MODEL 1
REMARK VINA RESULT:    -8.574      0.000      0.000
REMARK INTER + INTRA:         -13.426
REMARK INTER:                 -12.584
REMARK INTRA:                  -0.842
REMARK UNBOUND:                -0.842
REMARK  Name = 
REMARK  9 active torsions:
REMARK  status: ('A' for Active; 'I' for Inactive)
REMARK    1  A    between atoms: C_1  and  C_2
REMARK    2  A    between atoms: C_2  and  C_3
REMARK    3  A    between atoms: C_3  and  N_4
REMARK    4  A    between atoms: C_3  and  C_17
REMARK    5  A    between atoms: C_5  and  C_7
REMARK    6  A    between atoms: C_20  and  C_21
REMARK    7  A    between atoms: C_21  and  N_22
REMARK    8  A    between atoms: N_22  and  C_23
REMARK    9  A    between atoms: C_23  and  C_24
REMARK                            x       y       z     vdW  Elec       q    Type
REMARK                         _______ _______ _______ _____ _____    ______ ____
ROOT
ATOM      1  C   UNL     1      47.090   8.214  12.938  0.00  0.00    +0.000 C 
ENDROOT
BRANCH   1   2
ATOM      2  C   UNL     1      46.190   7.172  12.267  0.00  0.00    +0.000 A 
ATOM      3  C   UNL     1      44.992   6.761  12.869  0.00  0.00    +0.000 A 
ATOM      4  C   UNL     1      44.147   5.849  12.222  0.00  0.00    +0.000 A 
ATOM      5  C   UNL     1      44.478   5.329  10.960  0.00  0.00    +0.000 A 
ATOM      6  C   UNL     1      45.686   5.707  10.377  0.00  0.00    +0.000 A 
ATOM      7  C   UNL     1      46.538   6.593  11.033  0.00  0.00    +0.000 A 
BRANCH   5   8
ATOM      8  C   UNL     1      43.569   4.365  10.239  0.00  0.00    +0.000 C 
BRANCH   8   9
ATOM      9  N   UNL     1      44.190   3.887   9.008  0.00  0.00    +0.000 NA
ATOM     10  H   UNL     1      45.038   4.430   8.838  0.00  0.00    +0.000 HD
BRANCH   9  11
ATOM     11  C   UNL     1      44.559   2.474   9.125  0.00  0.00    +0.000 C 
BRANCH  11  12
ATOM     12  C   UNL     1      45.774   2.142   8.283  0.00  0.00    +0.000 A 
ATOM     13  C   UNL     1      46.445   3.149   7.611  0.00  0.00    +0.000 A 
ATOM     14  C   UNL     1      47.533   2.764   6.863  0.00  0.00    +0.000 A 
ATOM     15  N   UNL     1      47.950   1.490   6.763  0.00  0.00    +0.000 NA
ATOM     16  C   UNL     1      47.235   0.591   7.456  0.00  0.00    +0.000 A 
ATOM     17  N   UNL     1      46.160   0.848   8.218  0.00  0.00    +0.000 NA
ENDBRANCH  11  12
ENDBRANCH   9  11
ENDBRANCH   8   9
ENDBRANCH   5   8
ENDBRANCH   1   2
BRANCH   1  18
ATOM     18  N   UNL     1      47.507   7.708  14.235  0.00  0.00    +0.000 N 
ATOM     19  C   UNL     1      48.336   6.628  14.388  0.00  0.00    +0.000 C 
ATOM     20  O   UNL     1      48.741   5.971  13.432  0.00  0.00    +0.000 OA
ATOM     21  H   UNL     1      47.161   8.199  15.051  0.00  0.00    +0.000 HD
BRANCH  19  22
ATOM     22  C   UNL     1      48.773   6.313  15.758  0.00  0.00    +0.000 A 
ATOM     23  C   UNL     1      49.657   7.162  16.412  0.00  0.00    +0.000 A 
ATOM     24  S   UNL     1      50.070   6.651  17.986  0.00  0.00    +0.000 S 
ATOM     25  C   UNL     1      49.118   5.248  17.835  0.00  0.00    +0.000 A 
ATOM     26  N   UNL     1      49.073   4.332  18.838  0.00  0.00    +0.000 NA
ATOM     27  C   UNL     1      48.343   3.293  18.578  0.00  0.00    +0.000 A 
ATOM     28  N   UNL     1      47.645   3.104  17.419  0.00  0.00    +0.000 N 
ATOM     29  C   UNL     1      47.611   4.038  16.403  0.00  0.00    +0.000 A 
ATOM     30  O   UNL     1      46.883   3.885  15.427  0.00  0.00    +0.000 OA
ATOM     31  C   UNL     1      48.459   5.196  16.622  0.00  0.00    +0.000 A 
ATOM     32  H   UNL     1      47.072   2.289  17.288  0.00  0.00    +0.000 HD
ENDBRANCH  19  22
ENDBRANCH   1  18
BRANCH   1  34
ATOM     33  C   UNL     1      49.180   9.708  12.415  0.00  0.00    +0.000 C 
ATOM     34  C   UNL     1      48.269   8.570  11.998  0.00  0.00    +0.000 C 
ENDBRANCH   1  34
TORSDOF 8
ENDMDL
MODEL 2
REMARK VINA RESULT:    -8.297      1.694      1.846
REMARK INTER + INTRA:         -13.019
REMARK INTER:                 -11.790
REMARK INTRA:                  -1.229
REMARK UNBOUND:                -0.842
REMARK  Name = 
REMARK  9 active torsions:
REMARK  status: ('A' for Active; 'I' for Inactive)
REMARK    1  A    between atoms: C_1  and  C_2
REMARK    2  A    between atoms: C_2  and  C_3
REMARK    3  A    between atoms: C_3  and  N_4
REMARK    4  A    between atoms: C_3  and  C_17
REMARK    5  A    between atoms: C_5  and  C_7
REMARK    6  A    between atoms: C_20  and  C_21
REMARK    7  A    between atoms: C_21  and  N_22
REMARK    8  A    between atoms: N_22  and  C_23
REMARK    9  A    between atoms: C_23  and  C_24
REMARK                            x       y       z     vdW  Elec       q    Type
REMARK                         _______ _______ _______ _____ _____    ______ ____
ROOT
ATOM      1  C   UNL     1      48.033   7.332  13.520  0.00  0.00    +0.000 C 
ENDROOT
BRANCH   1   2
ATOM      2  C   UNL     1      47.053   6.329  12.906  0.00  0.00    +0.000 A 
ATOM      3  C   UNL     1      46.651   5.188  13.615  0.00  0.00    +0.000 A 
ATOM      4  C   UNL     1      45.710   4.305  13.069  0.00  0.00    +0.000 A 
ATOM      5  C   UNL     1      45.148   4.542  11.804  0.00  0.00    +0.000 A 
ATOM      6  C   UNL     1      45.574   5.655  11.081  0.00  0.00    +0.000 A 
ATOM      7  C   UNL     1      46.529   6.517  11.614  0.00  0.00    +0.000 A 
BRANCH   5   8
ATOM      8  C   UNL     1      44.117   3.615  11.211  0.00  0.00    +0.000 C 
BRANCH   8   9
ATOM      9  N   UNL     1      44.752   2.575  10.409  0.00  0.00    +0.000 NA
ATOM     10  H   UNL     1      44.300   1.682  10.613  0.00  0.00    +0.000 HD
BRANCH   9  11
ATOM     11  C   UNL     1      44.601   2.854   8.978  0.00  0.00    +0.000 C 
BRANCH  11  12
ATOM     12  C   UNL     1      45.780   2.338   8.179  0.00  0.00    +0.000 A 
ATOM     13  C   UNL     1      46.519   3.209   7.398  0.00  0.00    +0.000 A 
ATOM     14  C   UNL     1      47.569   2.661   6.698  0.00  0.00    +0.000 A 
ATOM     15  N   UNL     1      47.888   1.356   6.742  0.00  0.00    +0.000 NA
ATOM     16  C   UNL     1      47.112   0.597   7.532  0.00  0.00    +0.000 A 
ATOM     17  N   UNL     1      46.066   1.020   8.260  0.00  0.00    +0.000 NA
ENDBRANCH  11  12
ENDBRANCH   9  11
ENDBRANCH   8   9
ENDBRANCH   5   8
ENDBRANCH   1   2
BRANCH   1  18
ATOM     18  N   UNL     1      48.080   7.121  14.958  0.00  0.00    +0.000 N 
ATOM     19  C   UNL     1      48.599   8.037  15.835  0.00  0.00    +0.000 C 
ATOM     20  O   UNL     1      49.118   9.085  15.459  0.00  0.00    +0.000 OA
ATOM     21  H   UNL     1      47.697   6.250  15.306  0.00  0.00    +0.000 HD
BRANCH  19  22
ATOM     22  C   UNL     1      48.459   7.738  17.270  0.00  0.00    +0.000 A 
ATOM     23  C   UNL     1      48.113   8.751  18.155  0.00  0.00    +0.000 A 
ATOM     24  S   UNL     1      48.001   8.243  19.779  0.00  0.00    +0.000 S 
ATOM     25  C   UNL     1      48.458   6.656  19.367  0.00  0.00    +0.000 A 
ATOM     26  N   UNL     1      48.606   5.707  20.328  0.00  0.00    +0.000 NA
ATOM     27  C   UNL     1      48.996   4.554  19.883  0.00  0.00    +0.000 A 
ATOM     28  N   UNL     1      49.230   4.267  18.568  0.00  0.00    +0.000 N 
ATOM     29  C   UNL     1      49.029   5.181  17.554  0.00  0.00    +0.000 A 
ATOM     30  O   UNL     1      49.141   4.855  16.377  0.00  0.00    +0.000 OA
ATOM     31  C   UNL     1      48.646   6.507  18.006  0.00  0.00    +0.000 A 
ATOM     32  H   UNL     1      49.504   3.343  18.281  0.00  0.00    +0.000 HD
ENDBRANCH  19  22
ENDBRANCH   1  18
BRANCH   1  34
ATOM     33  C   UNL     1      49.784   8.266  11.807  0.00  0.00    +0.000 C 
ATOM     34  C   UNL     1      49.413   7.207  12.827  0.00  0.00    +0.000 C 
ENDBRANCH   1  34
TORSDOF 8
ENDMDL
MODEL 3
REMARK VINA RESULT:    -8.256      1.278      1.343
REMARK INTER + INTRA:         -12.960
REMARK INTER:                 -11.352
REMARK INTRA:                  -1.608
REMARK UNBOUND:                -0.842
REMARK  Name = 
REMARK  9 active torsions:
REMARK  status: ('A' for Active; 'I' for Inactive)
REMARK    1  A    between atoms: C_1  and  C_2
REMARK    2  A    between atoms: C_2  and  C_3
REMARK    3  A    between atoms: C_3  and  N_4
REMARK    4  A    between atoms: C_3  and  C_17
REMARK    5  A    between atoms: C_5  and  C_7
REMARK    6  A    between atoms: C_20  and  C_21
REMARK    7  A    between atoms: C_21  and  N_22
REMARK    8  A    between atoms: N_22  and  C_23
REMARK    9  A    between atoms: C_23  and  C_24
REMARK                            x       y       z     vdW  Elec       q    Type
REMARK                         _______ _______ _______ _____ _____    ______ ____
ROOT
ATOM      1  C   UNL     1      47.483   7.617  13.144  0.00  0.00    +0.000 C 
ENDROOT
BRANCH   1   2
ATOM      2  C   UNL     1      46.514   6.576  12.576  0.00  0.00    +0.000 A 
ATOM      3  C   UNL     1      46.550   5.245  13.015  0.00  0.00    +0.000 A 
ATOM      4  C   UNL     1      45.624   4.310  12.532  0.00  0.00    +0.000 A 
ATOM      5  C   UNL     1      44.640   4.685  11.602  0.00  0.00    +0.000 A 
ATOM      6  C   UNL     1      44.626   5.998  11.136  0.00  0.00    +0.000 A 
ATOM      7  C   UNL     1      45.564   6.919  11.597  0.00  0.00    +0.000 A 
BRANCH   5   8
ATOM      8  C   UNL     1      43.620   3.699  11.089  0.00  0.00    +0.000 C 
BRANCH   8   9
ATOM      9  N   UNL     1      43.815   3.442   9.667  0.00  0.00    +0.000 NA
ATOM     10  H   UNL     1      44.422   4.168   9.283  0.00  0.00    +0.000 HD
BRANCH   9  11
ATOM     11  C   UNL     1      44.456   2.141   9.454  0.00  0.00    +0.000 C 
BRANCH  11  12
ATOM     12  C   UNL     1      45.600   2.236   8.466  0.00  0.00    +0.000 A 
ATOM     13  C   UNL     1      45.886   3.444   7.854  0.00  0.00    +0.000 A 
ATOM     14  C   UNL     1      46.935   3.445   6.965  0.00  0.00    +0.000 A 
ATOM     15  N   UNL     1      47.664   2.353   6.678  0.00  0.00    +0.000 NA
ATOM     16  C   UNL     1      47.310   1.233   7.327  0.00  0.00    +0.000 A 
ATOM     17  N   UNL     1      46.309   1.113   8.214  0.00  0.00    +0.000 NA
ENDBRANCH  11  12
ENDBRANCH   9  11
ENDBRANCH   8   9
ENDBRANCH   5   8
ENDBRANCH   1   2
BRANCH   1  18
ATOM     18  N   UNL     1      48.411   6.952  14.044  0.00  0.00    +0.000 N 
ATOM     19  C   UNL     1      48.745   7.446  15.277  0.00  0.00    +0.000 C 
ATOM     20  O   UNL     1      48.323   8.524  15.689  0.00  0.00    +0.000 OA
ATOM     21  H   UNL     1      48.813   6.079  13.724  0.00  0.00    +0.000 HD
BRANCH  19  22
ATOM     22  C   UNL     1      49.597   6.596  16.126  0.00  0.00    +0.000 A 
ATOM     23  C   UNL     1      50.883   7.012  16.448  0.00  0.00    +0.000 A 
ATOM     24  S   UNL     1      51.740   5.912  17.428  0.00  0.00    +0.000 S 
ATOM     25  C   UNL     1      50.440   4.814  17.421  0.00  0.00    +0.000 A 
ATOM     26  N   UNL     1      50.545   3.614  18.050  0.00  0.00    +0.000 NA
ATOM     27  C   UNL     1      49.499   2.858  17.933  0.00  0.00    +0.000 A 
ATOM     28  N   UNL     1      48.360   3.205  17.263  0.00  0.00    +0.000 N 
ATOM     29  C   UNL     1      48.187   4.438  16.667  0.00  0.00    +0.000 A 
ATOM     30  O   UNL     1      47.110   4.755  16.173  0.00  0.00    +0.000 OA
ATOM     31  C   UNL     1      49.353   5.301  16.721  0.00  0.00    +0.000 A 
ATOM     32  H   UNL     1      47.570   2.585  17.232  0.00  0.00    +0.000 HD
ENDBRANCH  19  22
ENDBRANCH   1  18
BRANCH   1  34
ATOM     33  C   UNL     1      49.423   7.758  11.387  0.00  0.00    +0.000 C 
ATOM     34  C   UNL     1      48.174   8.376  11.983  0.00  0.00    +0.000 C 
ENDBRANCH   1  34
TORSDOF 8
ENDMDL
MODEL 4
REMARK VINA RESULT:    -7.980      2.587      3.709
REMARK INTER + INTRA:         -12.554
REMARK INTER:                 -11.206
REMARK INTRA:                  -1.348
REMARK UNBOUND:                -0.842
REMARK  Name = 
REMARK  9 active torsions:
REMARK  status: ('A' for Active; 'I' for Inactive)
REMARK    1  A    between atoms: C_1  and  C_2
REMARK    2  A    between atoms: C_2  and  C_3
REMARK    3  A    between atoms: C_3  and  N_4
REMARK    4  A    between atoms: C_3  and  C_17
REMARK    5  A    between atoms: C_5  and  C_7
REMARK    6  A    between atoms: C_20  and  C_21
REMARK    7  A    between atoms: C_21  and  N_22
REMARK    8  A    between atoms: N_22  and  C_23
REMARK    9  A    between atoms: C_23  and  C_24
REMARK                            x       y       z     vdW  Elec       q    Type
REMARK                         _______ _______ _______ _____ _____    ______ ____
ROOT
ATOM      1  C   UNL     1      47.876   4.759  15.210  0.00  0.00    +0.000 C 
ENDROOT
BRANCH   1   2
ATOM      2  C   UNL     1      46.990   4.779  13.960  0.00  0.00    +0.000 A 
ATOM      3  C   UNL     1      46.315   3.625  13.539  0.00  0.00    +0.000 A 
ATOM      4  C   UNL     1      45.462   3.665  12.427  0.00  0.00    +0.000 A 
ATOM      5  C   UNL     1      45.263   4.859  11.715  0.00  0.00    +0.000 A 
ATOM      6  C   UNL     1      45.962   5.999  12.109  0.00  0.00    +0.000 A 
ATOM      7  C   UNL     1      46.830   5.950  13.198  0.00  0.00    +0.000 A 
BRANCH   5   8
ATOM      8  C   UNL     1      44.330   4.927  10.531  0.00  0.00    +0.000 C 
BRANCH   8   9
ATOM      9  N   UNL     1      45.036   4.611   9.294  0.00  0.00    +0.000 NA
ATOM     10  H   UNL     1      46.040   4.607   9.482  0.00  0.00    +0.000 HD
BRANCH   9  11
ATOM     11  C   UNL     1      44.653   3.285   8.799  0.00  0.00    +0.000 C 
BRANCH  11  12
ATOM     12  C   UNL     1      45.805   2.594   8.100  0.00  0.00    +0.000 A 
ATOM     13  C   UNL     1      46.646   3.319   7.273  0.00  0.00    +0.000 A 
ATOM     14  C   UNL     1      47.664   2.616   6.670  0.00  0.00    +0.000 A 
ATOM     15  N   UNL     1      47.860   1.298   6.848  0.00  0.00    +0.000 NA
ATOM     16  C   UNL     1      46.993   0.689   7.671  0.00  0.00    +0.000 A 
ATOM     17  N   UNL     1      45.967   1.269   8.313  0.00  0.00    +0.000 NA
ENDBRANCH  11  12
ENDBRANCH   9  11
ENDBRANCH   8   9
ENDBRANCH   5   8
ENDBRANCH   1   2
BRANCH   1  18
ATOM     18  N   UNL     1      47.870   6.083  15.810  0.00  0.00    +0.000 N 
ATOM     19  C   UNL     1      49.010   6.802  16.056  0.00  0.00    +0.000 C 
ATOM     20  O   UNL     1      50.131   6.350  15.836  0.00  0.00    +0.000 OA
ATOM     21  H   UNL     1      46.965   6.476  16.043  0.00  0.00    +0.000 HD
BRANCH  19  22
ATOM     22  C   UNL     1      48.835   8.179  16.548  0.00  0.00    +0.000 A 
ATOM     23  C   UNL     1      49.306   9.246  15.793  0.00  0.00    +0.000 A 
ATOM     24  S   UNL     1      49.034  10.771  16.506  0.00  0.00    +0.000 S 
ATOM     25  C   UNL     1      48.317  10.059  17.876  0.00  0.00    +0.000 A 
ATOM     26  N   UNL     1      47.899  10.827  18.916  0.00  0.00    +0.000 NA
ATOM     27  C   UNL     1      47.410  10.156  19.911  0.00  0.00    +0.000 A 
ATOM     28  N   UNL     1      47.286   8.796  19.945  0.00  0.00    +0.000 N 
ATOM     29  C   UNL     1      47.638   7.984  18.886  0.00  0.00    +0.000 A 
ATOM     30  O   UNL     1      47.408   6.779  18.910  0.00  0.00    +0.000 OA
ATOM     31  C   UNL     1      48.245   8.683  17.768  0.00  0.00    +0.000 A 
ATOM     32  H   UNL     1      46.871   8.335  20.736  0.00  0.00    +0.000 HD
ENDBRANCH  19  22
ENDBRANCH   1  18
BRANCH   1  34
ATOM     33  C   UNL     1      48.426   3.052  17.122  0.00  0.00    +0.000 C 
ATOM     34  C   UNL     1      47.403   3.637  16.169  0.00  0.00    +0.000 C 
ENDBRANCH   1  34
TORSDOF 8
ENDMDL
MODEL 5
REMARK VINA RESULT:    -7.650      2.041      4.451
REMARK INTER + INTRA:         -12.071
REMARK INTER:                 -10.612
REMARK INTRA:                  -1.458
REMARK UNBOUND:                -0.842
REMARK  Name = 
REMARK  9 active torsions:
REMARK  status: ('A' for Active; 'I' for Inactive)
REMARK    1  A    between atoms: C_1  and  C_2
REMARK    2  A    between atoms: C_2  and  C_3
REMARK    3  A    between atoms: C_3  and  N_4
REMARK    4  A    between atoms: C_3  and  C_17
REMARK    5  A    between atoms: C_5  and  C_7
REMARK    6  A    between atoms: C_20  and  C_21
REMARK    7  A    between atoms: C_21  and  N_22
REMARK    8  A    between atoms: N_22  and  C_23
REMARK    9  A    between atoms: C_23  and  C_24
REMARK                            x       y       z     vdW  Elec       q    Type
REMARK                         _______ _______ _______ _____ _____    ______ ____
ROOT
ATOM      1  C   UNL     1      47.728   5.083  15.000  0.00  0.00    +0.000 C 
ENDROOT
BRANCH   1   2
ATOM      2  C   UNL     1      46.744   4.753  13.874  0.00  0.00    +0.000 A 
ATOM      3  C   UNL     1      46.560   3.432  13.442  0.00  0.00    +0.000 A 
ATOM      4  C   UNL     1      45.617   3.131  12.450  0.00  0.00    +0.000 A 
ATOM      5  C   UNL     1      44.834   4.142  11.870  0.00  0.00    +0.000 A 
ATOM      6  C   UNL     1      45.041   5.462  12.271  0.00  0.00    +0.000 A 
ATOM      7  C   UNL     1      45.998   5.762  13.237  0.00  0.00    +0.000 A 
BRANCH   5   8
ATOM      8  C   UNL     1      43.797   3.835  10.819  0.00  0.00    +0.000 C 
BRANCH   8   9
ATOM      9  N   UNL     1      44.289   2.832   9.881  0.00  0.00    +0.000 NA
ATOM     10  H   UNL     1      43.530   2.181   9.670  0.00  0.00    +0.000 HD
BRANCH   9  11
ATOM     11  C   UNL     1      44.725   3.457   8.629  0.00  0.00    +0.000 C 
BRANCH  11  12
ATOM     12  C   UNL     1      45.881   2.706   8.001  0.00  0.00    +0.000 A 
ATOM     13  C   UNL     1      46.799   3.382   7.217  0.00  0.00    +0.000 A 
ATOM     14  C   UNL     1      47.815   2.627   6.677  0.00  0.00    +0.000 A 
ATOM     15  N   UNL     1      47.938   1.303   6.874  0.00  0.00    +0.000 NA
ATOM     16  C   UNL     1      46.998   0.743   7.652  0.00  0.00    +0.000 A 
ATOM     17  N   UNL     1      45.967   1.377   8.232  0.00  0.00    +0.000 NA
ENDBRANCH  11  12
ENDBRANCH   9  11
ENDBRANCH   8   9
ENDBRANCH   5   8
ENDBRANCH   1   2
BRANCH   1  18
ATOM     18  N   UNL     1      48.089   6.489  14.910  0.00  0.00    +0.000 N 
ATOM     19  C   UNL     1      49.315   6.974  15.279  0.00  0.00    +0.000 C 
ATOM     20  O   UNL     1      50.184   6.258  15.770  0.00  0.00    +0.000 OA
ATOM     21  H   UNL     1      47.383   7.120  14.547  0.00  0.00    +0.000 HD
BRANCH  19  22
ATOM     22  C   UNL     1      49.575   8.399  15.010  0.00  0.00    +0.000 A 
ATOM     23  C   UNL     1      50.048   9.218  16.028  0.00  0.00    +0.000 A 
ATOM     24  S   UNL     1      50.288  10.839  15.556  0.00  0.00    +0.000 S 
ATOM     25  C   UNL     1      49.724  10.517  13.983  0.00  0.00    +0.000 A 
ATOM     26  N   UNL     1      49.624  11.516  13.067  0.00  0.00    +0.000 NA
ATOM     27  C   UNL     1      49.142  11.143  11.922  0.00  0.00    +0.000 A 
ATOM     28  N   UNL     1      48.774   9.864  11.614  0.00  0.00    +0.000 N 
ATOM     29  C   UNL     1      48.920   8.809  12.492  0.00  0.00    +0.000 A 
ATOM     30  O   UNL     1      48.684   7.658  12.141  0.00  0.00    +0.000 OA
ATOM     31  C   UNL     1      49.402   9.185  13.809  0.00  0.00    +0.000 A 
ATOM     32  H   UNL     1      48.433   9.632  10.697  0.00  0.00    +0.000 HD
ENDBRANCH  19  22
ENDBRANCH   1  18
BRANCH   1  34
ATOM     33  C   UNL     1      47.871   3.669  17.203  0.00  0.00    +0.000 C 
ATOM     34  C   UNL     1      47.115   4.682  16.365  0.00  0.00    +0.000 C 
ENDBRANCH   1  34
TORSDOF 8
ENDMDL
MODEL 6
REMARK VINA RESULT:    -7.498      1.989      2.626
REMARK INTER + INTRA:         -11.848
REMARK INTER:                 -10.648
REMARK INTRA:                  -1.200
REMARK UNBOUND:                -0.842
REMARK  Name = 
REMARK  9 active torsions:
REMARK  status: ('A' for Active; 'I' for Inactive)
REMARK    1  A    between atoms: C_1  and  C_2
REMARK    2  A    between atoms: C_2  and  C_3
REMARK    3  A    between atoms: C_3  and  N_4
REMARK    4  A    between atoms: C_3  and  C_17
REMARK    5  A    between atoms: C_5  and  C_7
REMARK    6  A    between atoms: C_20  and  C_21
REMARK    7  A    between atoms: C_21  and  N_22
REMARK    8  A    between atoms: N_22  and  C_23
REMARK    9  A    between atoms: C_23  and  C_24
REMARK                            x       y       z     vdW  Elec       q    Type
REMARK                         _______ _______ _______ _____ _____    ______ ____
ROOT
ATOM      1  C   UNL     1      47.151   7.877  13.506  0.00  0.00    +0.000 C 
ENDROOT
BRANCH   1   2
ATOM      2  C   UNL     1      46.249   6.894  12.755  0.00  0.00    +0.000 A 
ATOM      3  C   UNL     1      46.477   5.512  12.822  0.00  0.00    +0.000 A 
ATOM      4  C   UNL     1      45.614   4.615  12.178  0.00  0.00    +0.000 A 
ATOM      5  C   UNL     1      44.502   5.078  11.456  0.00  0.00    +0.000 A 
ATOM      6  C   UNL     1      44.294   6.453  11.357  0.00  0.00    +0.000 A 
ATOM      7  C   UNL     1      45.168   7.344  11.975  0.00  0.00    +0.000 A 
BRANCH   5   8
ATOM      8  C   UNL     1      43.548   4.127  10.777  0.00  0.00    +0.000 C 
BRANCH   8   9
ATOM      9  N   UNL     1      44.272   3.168   9.950  0.00  0.00    +0.000 NA
ATOM     10  H   UNL     1      43.628   2.425   9.672  0.00  0.00    +0.000 HD
BRANCH   9  11
ATOM     11  C   UNL     1      44.790   3.810   8.738  0.00  0.00    +0.000 C 
BRANCH  11  12
ATOM     12  C   UNL     1      45.716   2.889   7.970  0.00  0.00    +0.000 A 
ATOM     13  C   UNL     1      46.294   3.321   6.788  0.00  0.00    +0.000 A 
ATOM     14  C   UNL     1      47.116   2.423   6.147  0.00  0.00    +0.000 A 
ATOM     15  N   UNL     1      47.364   1.185   6.609  0.00  0.00    +0.000 NA
ATOM     16  C   UNL     1      46.759   0.866   7.763  0.00  0.00    +0.000 A 
ATOM     17  N   UNL     1      45.941   1.657   8.476  0.00  0.00    +0.000 NA
ENDBRANCH  11  12
ENDBRANCH   9  11
ENDBRANCH   8   9
ENDBRANCH   5   8
ENDBRANCH   1   2
BRANCH   1  18
ATOM     18  N   UNL     1      48.003   7.130  14.417  0.00  0.00    +0.000 N 
ATOM     19  C   UNL     1      48.563   7.678  15.540  0.00  0.00    +0.000 C 
ATOM     20  O   UNL     1      48.431   8.865  15.828  0.00  0.00    +0.000 OA
ATOM     21  H   UNL     1      48.170   6.156  14.193  0.00  0.00    +0.000 HD
BRANCH  19  22
ATOM     22  C   UNL     1      49.296   6.763  16.433  0.00  0.00    +0.000 A 
ATOM     23  C   UNL     1      48.600   6.008  17.368  0.00  0.00    +0.000 A 
ATOM     24  S   UNL     1      49.594   5.009  18.327  0.00  0.00    +0.000 S 
ATOM     25  C   UNL     1      51.000   5.583  17.560  0.00  0.00    +0.000 A 
ATOM     26  N   UNL     1      52.228   5.156  17.955  0.00  0.00    +0.000 NA
ATOM     27  C   UNL     1      53.214   5.703  17.315  0.00  0.00    +0.000 A 
ATOM     28  N   UNL     1      53.076   6.617  16.309  0.00  0.00    +0.000 N 
ATOM     29  C   UNL     1      51.848   7.029  15.833  0.00  0.00    +0.000 A 
ATOM     30  O   UNL     1      51.763   7.763  14.855  0.00  0.00    +0.000 OA
ATOM     31  C   UNL     1      50.710   6.488  16.556  0.00  0.00    +0.000 A 
ATOM     32  H   UNL     1      53.880   6.984  15.831  0.00  0.00    +0.000 HD
ENDBRANCH  19  22
ENDBRANCH   1  18
BRANCH   1  34
ATOM     33  C   UNL     1      48.961   8.052  11.617  0.00  0.00    +0.000 C 
ATOM     34  C   UNL     1      47.935   8.747  12.491  0.00  0.00    +0.000 C 
ENDBRANCH   1  34
TORSDOF 8
ENDMDL
MODEL 7
REMARK VINA RESULT:    -7.367      4.607      8.812
REMARK INTER + INTRA:         -11.654
REMARK INTER:                 -10.511
REMARK INTRA:                  -1.143
REMARK UNBOUND:                -0.842
REMARK  Name = 
REMARK  9 active torsions:
REMARK  status: ('A' for Active; 'I' for Inactive)
REMARK    1  A    between atoms: C_1  and  C_2
REMARK    2  A    between atoms: C_2  and  C_3
REMARK    3  A    between atoms: C_3  and  N_4
REMARK    4  A    between atoms: C_3  and  C_17
REMARK    5  A    between atoms: C_5  and  C_7
REMARK    6  A    between atoms: C_20  and  C_21
REMARK    7  A    between atoms: C_21  and  N_22
REMARK    8  A    between atoms: N_22  and  C_23
REMARK    9  A    between atoms: C_23  and  C_24
REMARK                            x       y       z     vdW  Elec       q    Type
REMARK                         _______ _______ _______ _____ _____    ______ ____
ROOT
ATOM      1  C   UNL     1      48.764   6.273  17.291  0.00  0.00    +0.000 C 
ENDROOT
BRANCH   1   2
ATOM      2  C   UNL     1      49.511   4.938  17.371  0.00  0.00    +0.000 A 
ATOM      3  C   UNL     1      48.814   3.722  17.369  0.00  0.00    +0.000 A 
ATOM      4  C   UNL     1      49.507   2.504  17.386  0.00  0.00    +0.000 A 
ATOM      5  C   UNL     1      50.911   2.474  17.401  0.00  0.00    +0.000 A 
ATOM      6  C   UNL     1      51.606   3.681  17.441  0.00  0.00    +0.000 A 
ATOM      7  C   UNL     1      50.915   4.891  17.452  0.00  0.00    +0.000 A 
BRANCH   5   8
ATOM      8  C   UNL     1      51.674   1.172  17.395  0.00  0.00    +0.000 C 
BRANCH   8   9
ATOM      9  N   UNL     1      52.653   1.138  18.475  0.00  0.00    +0.000 NA
ATOM     10  H   UNL     1      52.387   0.406  19.135  0.00  0.00    +0.000 HD
BRANCH   9  11
ATOM     11  C   UNL     1      53.990   0.833  17.958  0.00  0.00    +0.000 C 
BRANCH  11  12
ATOM     12  C   UNL     1      54.286  -0.652  18.014  0.00  0.00    +0.000 A 
ATOM     13  C   UNL     1      54.919  -1.271  16.950  0.00  0.00    +0.000 A 
ATOM     14  C   UNL     1      55.144  -2.622  17.075  0.00  0.00    +0.000 A 
ATOM     15  N   UNL     1      54.782  -3.336  18.155  0.00  0.00    +0.000 NA
ATOM     16  C   UNL     1      54.179  -2.642  19.132  0.00  0.00    +0.000 A 
ATOM     17  N   UNL     1      53.909  -1.327  19.122  0.00  0.00    +0.000 NA
ENDBRANCH  11  12
ENDBRANCH   9  11
ENDBRANCH   8   9
ENDBRANCH   5   8
ENDBRANCH   1   2
BRANCH   1  18
ATOM     18  N   UNL     1      47.913   6.263  16.112  0.00  0.00    +0.000 N 
ATOM     19  C   UNL     1      48.386   6.464  14.842  0.00  0.00    +0.000 C 
ATOM     20  O   UNL     1      49.564   6.726  14.614  0.00  0.00    +0.000 OA
ATOM     21  H   UNL     1      46.925   6.090  16.262  0.00  0.00    +0.000 HD
BRANCH  19  22
ATOM     22  C   UNL     1      47.424   6.298  13.740  0.00  0.00    +0.000 A 
ATOM     23  C   UNL     1      47.013   7.406  13.010  0.00  0.00    +0.000 A 
ATOM     24  S   UNL     1      45.892   7.045  11.777  0.00  0.00    +0.000 S 
ATOM     25  C   UNL     1      45.877   5.397  12.203  0.00  0.00    +0.000 A 
ATOM     26  N   UNL     1      45.065   4.522  11.553  0.00  0.00    +0.000 NA
ATOM     27  C   UNL     1      45.122   3.307  12.003  0.00  0.00    +0.000 A 
ATOM     28  N   UNL     1      45.930   2.895  13.025  0.00  0.00    +0.000 N 
ATOM     29  C   UNL     1      46.816   3.735  13.667  0.00  0.00    +0.000 A 
ATOM     30  O   UNL     1      47.604   3.304  14.502  0.00  0.00    +0.000 OA
ATOM     31  C   UNL     1      46.749   5.121  13.238  0.00  0.00    +0.000 A 
ATOM     32  H   UNL     1      45.950   1.931  13.310  0.00  0.00    +0.000 HD
ENDBRANCH  19  22
ENDBRANCH   1  18
BRANCH   1  34
ATOM     33  C   UNL     1      47.604   7.951  18.937  0.00  0.00    +0.000 C 
ATOM     34  C   UNL     1      47.997   6.523  18.613  0.00  0.00    +0.000 C 
ENDBRANCH   1  34
TORSDOF 8
ENDMDL
MODEL 8
REMARK VINA RESULT:    -7.100      3.085      7.459
REMARK INTER + INTRA:         -11.263
REMARK INTER:                 -10.278
REMARK INTRA:                  -0.985
REMARK UNBOUND:                -0.842
REMARK  Name = 
REMARK  9 active torsions:
REMARK  status: ('A' for Active; 'I' for Inactive)
REMARK    1  A    between atoms: C_1  and  C_2
REMARK    2  A    between atoms: C_2  and  C_3
REMARK    3  A    between atoms: C_3  and  N_4
REMARK    4  A    between atoms: C_3  and  C_17
REMARK    5  A    between atoms: C_5  and  C_7
REMARK    6  A    between atoms: C_20  and  C_21
REMARK    7  A    between atoms: C_21  and  N_22
REMARK    8  A    between atoms: N_22  and  C_23
REMARK    9  A    between atoms: C_23  and  C_24
REMARK                            x       y       z     vdW  Elec       q    Type
REMARK                         _______ _______ _______ _____ _____    ______ ____
ROOT
ATOM      1  C   UNL     1      48.466   8.257  12.214  0.00  0.00    +0.000 C 
ENDROOT
BRANCH   1   2
ATOM      2  C   UNL     1      48.641   8.052  13.722  0.00  0.00    +0.000 A 
ATOM      3  C   UNL     1      48.157   8.997  14.637  0.00  0.00    +0.000 A 
ATOM      4  C   UNL     1      48.270   8.775  16.016  0.00  0.00    +0.000 A 
ATOM      5  C   UNL     1      48.866   7.604  16.511  0.00  0.00    +0.000 A 
ATOM      6  C   UNL     1      49.382   6.681  15.604  0.00  0.00    +0.000 A 
ATOM      7  C   UNL     1      49.292   6.915  14.233  0.00  0.00    +0.000 A 
BRANCH   5   8
ATOM      8  C   UNL     1      48.975   7.338  17.992  0.00  0.00    +0.000 C 
BRANCH   8   9
ATOM      9  N   UNL     1      49.927   6.265  18.258  0.00  0.00    +0.000 NA
ATOM     10  H   UNL     1      50.618   6.600  18.931  0.00  0.00    +0.000 HD
BRANCH   9  11
ATOM     11  C   UNL     1      49.250   5.098  18.833  0.00  0.00    +0.000 C 
BRANCH  11  12
ATOM     12  C   UNL     1      49.318   3.900  17.908  0.00  0.00    +0.000 A 
ATOM     13  C   UNL     1      50.497   3.185  17.789  0.00  0.00    +0.000 A 
ATOM     14  C   UNL     1      50.478   2.116  16.923  0.00  0.00    +0.000 A 
ATOM     15  N   UNL     1      49.395   1.758  16.212  0.00  0.00    +0.000 NA
ATOM     16  C   UNL     1      48.302   2.513  16.401  0.00  0.00    +0.000 A 
ATOM     17  N   UNL     1      48.202   3.574  17.217  0.00  0.00    +0.000 NA
ENDBRANCH  11  12
ENDBRANCH   9  11
ENDBRANCH   8   9
ENDBRANCH   5   8
ENDBRANCH   1   2
BRANCH   1  18
ATOM     18  N   UNL     1      47.737   7.123  11.668  0.00  0.00    +0.000 N 
ATOM     19  C   UNL     1      46.377   6.992  11.757  0.00  0.00    +0.000 C 
ATOM     20  O   UNL     1      45.677   7.803  12.360  0.00  0.00    +0.000 OA
ATOM     21  H   UNL     1      48.284   6.411  11.197  0.00  0.00    +0.000 HD
BRANCH  19  22
ATOM     22  C   UNL     1      45.770   5.855  11.045  0.00  0.00    +0.000 A 
ATOM     23  C   UNL     1      45.908   5.751   9.667  0.00  0.00    +0.000 A 
ATOM     24  S   UNL     1      45.140   4.385   8.995  0.00  0.00    +0.000 S 
ATOM     25  C   UNL     1      44.552   3.904  10.519  0.00  0.00    +0.000 A 
ATOM     26  N   UNL     1      43.757   2.809  10.639  0.00  0.00    +0.000 NA
ATOM     27  C   UNL     1      43.346   2.578  11.846  0.00  0.00    +0.000 A 
ATOM     28  N   UNL     1      43.676   3.332  12.937  0.00  0.00    +0.000 N 
ATOM     29  C   UNL     1      44.532   4.413  12.870  0.00  0.00    +0.000 A 
ATOM     30  O   UNL     1      44.894   4.996  13.886  0.00  0.00    +0.000 OA
ATOM     31  C   UNL     1      44.975   4.747  11.528  0.00  0.00    +0.000 A 
ATOM     32  H   UNL     1      43.348   3.085  13.854  0.00  0.00    +0.000 HD
ENDBRANCH  19  22
ENDBRANCH   1  18
BRANCH   1  34
ATOM     33  C   UNL     1      48.630  10.717  11.323  0.00  0.00    +0.000 C 
ATOM     34  C   UNL     1      47.786   9.623  11.947  0.00  0.00    +0.000 C 
ENDBRANCH   1  34
TORSDOF 8
ENDMDL
MODEL 9
REMARK VINA RESULT:    -7.031      3.375      4.164
REMARK INTER + INTRA:         -11.162
REMARK INTER:                 -10.047
REMARK INTRA:                  -1.116
REMARK UNBOUND:                -0.842
REMARK  Name = 
REMARK  9 active torsions:
REMARK  status: ('A' for Active; 'I' for Inactive)
REMARK    1  A    between atoms: C_1  and  C_2
REMARK    2  A    between atoms: C_2  and  C_3
REMARK    3  A    between atoms: C_3  and  N_4
REMARK    4  A    between atoms: C_3  and  C_17
REMARK    5  A    between atoms: C_5  and  C_7
REMARK    6  A    between atoms: C_20  and  C_21
REMARK    7  A    between atoms: C_21  and  N_22
REMARK    8  A    between atoms: N_22  and  C_23
REMARK    9  A    between atoms: C_23  and  C_24
REMARK                            x       y       z     vdW  Elec       q    Type
REMARK                         _______ _______ _______ _____ _____    ______ ____
ROOT
ATOM      1  C   UNL     1      46.236   8.539  12.985  0.00  0.00    +0.000 C 
ENDROOT
BRANCH   1   2
ATOM      2  C   UNL     1      45.673   7.186  12.540  0.00  0.00    +0.000 A 
ATOM      3  C   UNL     1      45.981   6.012  13.242  0.00  0.00    +0.000 A 
ATOM      4  C   UNL     1      45.418   4.786  12.862  0.00  0.00    +0.000 A 
ATOM      5  C   UNL     1      44.533   4.706  11.775  0.00  0.00    +0.000 A 
ATOM      6  C   UNL     1      44.254   5.865  11.052  0.00  0.00    +0.000 A 
ATOM      7  C   UNL     1      44.836   7.078  11.415  0.00  0.00    +0.000 A 
BRANCH   5   8
ATOM      8  C   UNL     1      43.898   3.400  11.366  0.00  0.00    +0.000 C 
BRANCH   8   9
ATOM      9  N   UNL     1      44.889   2.497  10.793  0.00  0.00    +0.000 NA
ATOM     10  H   UNL     1      44.961   1.670  11.387  0.00  0.00    +0.000 HD
BRANCH   9  11
ATOM     11  C   UNL     1      44.490   2.069   9.449  0.00  0.00    +0.000 C 
BRANCH  11  12
ATOM     12  C   UNL     1      45.619   2.227   8.452  0.00  0.00    +0.000 A 
ATOM     13  C   UNL     1      45.876   3.466   7.891  0.00  0.00    +0.000 A 
ATOM     14  C   UNL     1      46.913   3.525   6.989  0.00  0.00    +0.000 A 
ATOM     15  N   UNL     1      47.655   2.458   6.643  0.00  0.00    +0.000 NA
ATOM     16  C   UNL     1      47.328   1.305   7.246  0.00  0.00    +0.000 A 
ATOM     17  N   UNL     1      46.342   1.129   8.140  0.00  0.00    +0.000 NA
ENDBRANCH  11  12
ENDBRANCH   9  11
ENDBRANCH   8   9
ENDBRANCH   5   8
ENDBRANCH   1   2
BRANCH   1  18
ATOM     18  N   UNL     1      47.607   8.654  12.515  0.00  0.00    +0.000 N 
ATOM     19  C   UNL     1      48.591   9.295  13.220  0.00  0.00    +0.000 C 
ATOM     20  O   UNL     1      48.369   9.871  14.282  0.00  0.00    +0.000 OA
ATOM     21  H   UNL     1      47.822   8.226  11.622  0.00  0.00    +0.000 HD
BRANCH  19  22
ATOM     22  C   UNL     1      49.957   9.218  12.676  0.00  0.00    +0.000 A 
ATOM     23  C   UNL     1      50.212   9.664  11.385  0.00  0.00    +0.000 A 
ATOM     24  S   UNL     1      51.839   9.497  10.904  0.00  0.00    +0.000 S 
ATOM     25  C   UNL     1      52.257   8.776  12.389  0.00  0.00    +0.000 A 
ATOM     26  N   UNL     1      53.524   8.338  12.612  0.00  0.00    +0.000 NA
ATOM     27  C   UNL     1      53.697   7.773  13.766  0.00  0.00    +0.000 A 
ATOM     28  N   UNL     1      52.723   7.629  14.714  0.00  0.00    +0.000 N 
ATOM     29  C   UNL     1      51.442   8.116  14.554  0.00  0.00    +0.000 A 
ATOM     30  O   UNL     1      50.628   8.068  15.470  0.00  0.00    +0.000 OA
ATOM     31  C   UNL     1      51.182   8.708  13.253  0.00  0.00    +0.000 A 
ATOM     32  H   UNL     1      52.926   7.206  15.603  0.00  0.00    +0.000 HD
ENDBRANCH  19  22
ENDBRANCH   1  18
BRANCH   1  34
ATOM     33  C   UNL     1      45.885  10.672  11.502  0.00  0.00    +0.000 C 
ATOM     34  C   UNL     1      45.309   9.679  12.492  0.00  0.00    +0.000 C 
ENDBRANCH   1  34
TORSDOF 8
ENDMDL
