MODEL 1
REMARK VINA RESULT:    -7.951      0.000      0.000
REMARK INTER + INTRA:         -10.954
REMARK INTER:                 -10.274
REMARK INTRA:                  -0.679
REMARK UNBOUND:                -0.679
REMARK  Name = 
REMARK  7 active torsions:
REMARK  status: ('A' for Active; 'I' for Inactive)
REMARK    1  A    between atoms: C_1  and  O_2
REMARK    2  A    between atoms: O_2  and  C_3
REMARK    3  A    between atoms: N_6  and  C_7
REMARK    4  A    between atoms: C_7  and  C_8
REMARK    5  A    between atoms: C_12  and  C_13
REMARK    6  A    between atoms: C_17  and  C_18
REMARK    7  A    between atoms: C_23  and  C_24
REMARK                            x       y       z     vdW  Elec       q    Type
REMARK                         _______ _______ _______ _____ _____    ______ ____
ROOT
ATOM      1  C   UNL     1      49.081   5.385  16.678  0.00  0.00    +0.000 A 
ATOM      2  N   UNL     1      48.080   5.297  15.760  0.00  0.00    +0.000 NA
ATOM      3  C   UNL     1      47.483   4.109  15.545  0.00  0.00    +0.000 A 
ATOM      4  N   UNL     1      46.396   4.014  14.680  0.00  0.00    +0.000 N 
ATOM      5  C   UNL     1      47.870   2.984  16.265  0.00  0.00    +0.000 A 
ATOM      6  C   UNL     1      48.879   3.085  17.225  0.00  0.00    +0.000 A 
ATOM      7  C   UNL     1      49.507   4.314  17.459  0.00  0.00    +0.000 A 
ATOM      8  H   UNL     1      46.363   3.149  14.153  0.00  0.00    +0.000 HD
ENDROOT
BRANCH   7   9
ATOM      9  C   UNL     1      50.553   4.362  18.516  0.00  0.00    +0.000 C 
ATOM     10  N   UNL     1      50.168   4.512  19.820  0.00  0.00    +0.000 N 
ATOM     11  O   UNL     1      51.741   4.255  18.239  0.00  0.00    +0.000 OA
ATOM     12  H   UNL     1      49.199   4.597  20.089  0.00  0.00    +0.000 HD
ATOM     13  H   UNL     1      50.885   4.532  20.532  0.00  0.00    +0.000 HD
ENDBRANCH   7   9
BRANCH   1  15
ATOM     14  C   UNL     1      48.892   7.620  17.379  0.00  0.00    +0.000 C 
ATOM     15  O   UNL     1      49.719   6.607  16.810  0.00  0.00    +0.000 OA
ENDBRANCH   1  15
BRANCH   4  16
ATOM     16  C   UNL     1      46.010   5.180  13.881  0.00  0.00    +0.000 C 
BRANCH  16  17
ATOM     17  C   UNL     1      45.088   4.870  12.706  0.00  0.00    +0.000 A 
ATOM     18  C   UNL     1      43.711   5.023  12.832  0.00  0.00    +0.000 A 
ATOM     19  C   UNL     1      42.882   4.645  11.786  0.00  0.00    +0.000 A 
ATOM     20  C   UNL     1      43.448   4.131  10.628  0.00  0.00    +0.000 A 
ATOM     21  C   UNL     1      44.835   4.022  10.531  0.00  0.00    +0.000 A 
ATOM     22  N   UNL     1      45.651   4.375  11.565  0.00  0.00    +0.000 NA
BRANCH  21  23
ATOM     23  C   UNL     1      45.486   3.520   9.299  0.00  0.00    +0.000 A 
ATOM     24  C   UNL     1      45.873   4.399   8.268  0.00  0.00    +0.000 A 
ATOM     25  C   UNL     1      46.462   3.934   7.090  0.00  0.00    +0.000 A 
ATOM     26  C   UNL     1      46.689   2.573   6.916  0.00  0.00    +0.000 A 
ATOM     27  C   UNL     1      46.331   1.668   7.921  0.00  0.00    +0.000 A 
ATOM     28  C   UNL     1      46.570   0.197   7.742  0.00  0.00    +0.000 C 
ATOM     29  C   UNL     1      45.736   2.150   9.101  0.00  0.00    +0.000 A 
ENDBRANCH  21  23
ENDBRANCH  16  17
ENDBRANCH   4  16
TORSDOF 5
ENDMDL
MODEL 2
REMARK VINA RESULT:    -7.932      2.369      3.513
REMARK INTER + INTRA:         -10.931
REMARK INTER:                  -9.915
REMARK INTRA:                  -1.016
REMARK UNBOUND:                -0.679
REMARK  Name = 
REMARK  7 active torsions:
REMARK  status: ('A' for Active; 'I' for Inactive)
REMARK    1  A    between atoms: C_1  and  O_2
REMARK    2  A    between atoms: O_2  and  C_3
REMARK    3  A    between atoms: N_6  and  C_7
REMARK    4  A    between atoms: C_7  and  C_8
REMARK    5  A    between atoms: C_12  and  C_13
REMARK    6  A    between atoms: C_17  and  C_18
REMARK    7  A    between atoms: C_23  and  C_24
REMARK                            x       y       z     vdW  Elec       q    Type
REMARK                         _______ _______ _______ _____ _____    ______ ____
ROOT
ATOM      1  C   UNL     1      47.978   4.616  15.526  0.00  0.00    +0.000 A 
ATOM      2  N   UNL     1      48.275   5.619  14.656  0.00  0.00    +0.000 NA
ATOM      3  C   UNL     1      48.660   6.818  15.134  0.00  0.00    +0.000 A 
ATOM      4  N   UNL     1      49.059   7.828  14.264  0.00  0.00    +0.000 N 
ATOM      5  C   UNL     1      48.771   7.028  16.505  0.00  0.00    +0.000 A 
ATOM      6  C   UNL     1      48.491   5.988  17.393  0.00  0.00    +0.000 A 
ATOM      7  C   UNL     1      48.092   4.737  16.909  0.00  0.00    +0.000 A 
ATOM      8  H   UNL     1      48.798   8.760  14.567  0.00  0.00    +0.000 HD
ENDROOT
BRANCH   7   9
ATOM      9  C   UNL     1      47.837   3.662  17.906  0.00  0.00    +0.000 C 
ATOM     10  N   UNL     1      46.805   2.790  17.688  0.00  0.00    +0.000 N 
ATOM     11  O   UNL     1      48.540   3.538  18.900  0.00  0.00    +0.000 OA
ATOM     12  H   UNL     1      46.207   2.856  16.878  0.00  0.00    +0.000 HD
ATOM     13  H   UNL     1      46.647   2.057  18.364  0.00  0.00    +0.000 HD
ENDBRANCH   7   9
BRANCH   1  15
ATOM     14  C   UNL     1      46.871   3.584  13.729  0.00  0.00    +0.000 C 
ATOM     15  O   UNL     1      47.512   3.427  14.993  0.00  0.00    +0.000 OA
ENDBRANCH   1  15
BRANCH   4  16
ATOM     16  C   UNL     1      48.901   7.636  12.820  0.00  0.00    +0.000 C 
BRANCH  16  17
ATOM     17  C   UNL     1      47.456   7.616  12.334  0.00  0.00    +0.000 A 
ATOM     18  C   UNL     1      46.597   8.669  12.635  0.00  0.00    +0.000 A 
ATOM     19  C   UNL     1      45.262   8.588  12.268  0.00  0.00    +0.000 A 
ATOM     20  C   UNL     1      44.813   7.461  11.594  0.00  0.00    +0.000 A 
ATOM     21  C   UNL     1      45.714   6.442  11.284  0.00  0.00    +0.000 A 
ATOM     22  N   UNL     1      47.023   6.510  11.661  0.00  0.00    +0.000 NA
BRANCH  21  23
ATOM     23  C   UNL     1      45.292   5.240  10.529  0.00  0.00    +0.000 A 
ATOM     24  C   UNL     1      44.388   4.312  11.081  0.00  0.00    +0.000 A 
ATOM     25  C   UNL     1      44.004   3.161  10.389  0.00  0.00    +0.000 A 
ATOM     26  C   UNL     1      44.510   2.912   9.117  0.00  0.00    +0.000 A 
ATOM     27  C   UNL     1      45.400   3.815   8.528  0.00  0.00    +0.000 A 
ATOM     28  C   UNL     1      45.954   3.556   7.158  0.00  0.00    +0.000 C 
ATOM     29  C   UNL     1      45.781   4.969   9.237  0.00  0.00    +0.000 A 
ENDBRANCH  21  23
ENDBRANCH  16  17
ENDBRANCH   4  16
TORSDOF 5
ENDMDL
MODEL 3
REMARK VINA RESULT:    -7.803      3.054      4.136
REMARK INTER + INTRA:         -10.764
REMARK INTER:                 -10.291
REMARK INTRA:                  -0.472
REMARK UNBOUND:                -0.679
REMARK  Name = 
REMARK  7 active torsions:
REMARK  status: ('A' for Active; 'I' for Inactive)
REMARK    1  A    between atoms: C_1  and  O_2
REMARK    2  A    between atoms: O_2  and  C_3
REMARK    3  A    between atoms: N_6  and  C_7
REMARK    4  A    between atoms: C_7  and  C_8
REMARK    5  A    between atoms: C_12  and  C_13
REMARK    6  A    between atoms: C_17  and  C_18
REMARK    7  A    between atoms: C_23  and  C_24
REMARK                            x       y       z     vdW  Elec       q    Type
REMARK                         _______ _______ _______ _____ _____    ______ ____
ROOT
ATOM      1  C   UNL     1      46.538   6.484  13.265  0.00  0.00    +0.000 A 
ATOM      2  N   UNL     1      45.319   6.533  12.661  0.00  0.00    +0.000 NA
ATOM      3  C   UNL     1      45.042   7.538  11.809  0.00  0.00    +0.000 A 
ATOM      4  N   UNL     1      43.839   7.557  11.110  0.00  0.00    +0.000 N 
ATOM      5  C   UNL     1      45.997   8.511  11.531  0.00  0.00    +0.000 A 
ATOM      6  C   UNL     1      47.256   8.442  12.131  0.00  0.00    +0.000 A 
ATOM      7  C   UNL     1      47.557   7.401  13.018  0.00  0.00    +0.000 A 
ATOM      8  H   UNL     1      43.460   8.486  10.968  0.00  0.00    +0.000 HD
ENDROOT
BRANCH   7   9
ATOM      9  C   UNL     1      48.926   7.368  13.601  0.00  0.00    +0.000 C 
ATOM     10  N   UNL     1      49.064   7.380  14.962  0.00  0.00    +0.000 N 
ATOM     11  O   UNL     1      49.919   7.314  12.887  0.00  0.00    +0.000 OA
ATOM     12  H   UNL     1      48.270   7.418  15.584  0.00  0.00    +0.000 HD
ATOM     13  H   UNL     1      49.996   7.346  15.349  0.00  0.00    +0.000 HD
ENDBRANCH   7   9
BRANCH   1  15
ATOM     14  C   UNL     1      46.592   4.167  13.653  0.00  0.00    +0.000 C 
ATOM     15  O   UNL     1      46.752   5.478  14.191  0.00  0.00    +0.000 OA
ENDBRANCH   1  15
BRANCH   4  16
ATOM     16  C   UNL     1      42.807   6.567  11.429  0.00  0.00    +0.000 C 
BRANCH  16  17
ATOM     17  C   UNL     1      43.263   5.115  11.323  0.00  0.00    +0.000 A 
ATOM     18  C   UNL     1      42.947   4.203  12.326  0.00  0.00    +0.000 A 
ATOM     19  C   UNL     1      43.452   2.913  12.259  0.00  0.00    +0.000 A 
ATOM     20  C   UNL     1      44.253   2.555  11.184  0.00  0.00    +0.000 A 
ATOM     21  C   UNL     1      44.520   3.491  10.185  0.00  0.00    +0.000 A 
ATOM     22  N   UNL     1      44.042   4.766  10.257  0.00  0.00    +0.000 NA
BRANCH  21  23
ATOM     23  C   UNL     1      45.334   3.143   8.998  0.00  0.00    +0.000 A 
ATOM     24  C   UNL     1      45.711   4.123   8.058  0.00  0.00    +0.000 A 
ATOM     25  C   UNL     1      46.455   3.801   6.921  0.00  0.00    +0.000 A 
ATOM     26  C   UNL     1      46.850   2.486   6.697  0.00  0.00    +0.000 A 
ATOM     27  C   UNL     1      46.507   1.485   7.611  0.00  0.00    +0.000 A 
ATOM     28  C   UNL     1      46.927   0.063   7.378  0.00  0.00    +0.000 C 
ATOM     29  C   UNL     1      45.755   1.823   8.752  0.00  0.00    +0.000 A 
ENDBRANCH  21  23
ENDBRANCH  16  17
ENDBRANCH   4  16
TORSDOF 5
ENDMDL
MODEL 4
REMARK VINA RESULT:    -7.416      3.351      9.070
REMARK INTER + INTRA:         -10.263
REMARK INTER:                  -9.504
REMARK INTRA:                  -0.760
REMARK UNBOUND:                -0.679
REMARK  Name = 
REMARK  7 active torsions:
REMARK  status: ('A' for Active; 'I' for Inactive)
REMARK    1  A    between atoms: C_1  and  O_2
REMARK    2  A    between atoms: O_2  and  C_3
REMARK    3  A    between atoms: N_6  and  C_7
REMARK    4  A    between atoms: C_7  and  C_8
REMARK    5  A    between atoms: C_12  and  C_13
REMARK    6  A    between atoms: C_17  and  C_18
REMARK    7  A    between atoms: C_23  and  C_24
REMARK                            x       y       z     vdW  Elec       q    Type
REMARK                         _______ _______ _______ _____ _____    ______ ____
ROOT
ATOM      1  C   UNL     1      45.541   4.097  12.133  0.00  0.00    +0.000 A 
ATOM      2  N   UNL     1      46.082   4.195  13.378  0.00  0.00    +0.000 NA
ATOM      3  C   UNL     1      46.811   5.281  13.699  0.00  0.00    +0.000 A 
ATOM      4  N   UNL     1      47.296   5.446  14.993  0.00  0.00    +0.000 N 
ATOM      5  C   UNL     1      46.996   6.305  12.775  0.00  0.00    +0.000 A 
ATOM      6  C   UNL     1      46.416   6.212  11.509  0.00  0.00    +0.000 A 
ATOM      7  C   UNL     1      45.655   5.090  11.163  0.00  0.00    +0.000 A 
ATOM      8  H   UNL     1      48.206   5.891  15.039  0.00  0.00    +0.000 HD
ENDROOT
BRANCH   7   9
ATOM      9  C   UNL     1      45.039   5.066   9.808  0.00  0.00    +0.000 C 
ATOM     10  N   UNL     1      43.679   4.963   9.704  0.00  0.00    +0.000 N 
ATOM     11  O   UNL     1      45.724   5.152   8.798  0.00  0.00    +0.000 OA
ATOM     12  H   UNL     1      43.080   4.896  10.513  0.00  0.00    +0.000 HD
ATOM     13  H   UNL     1      43.269   4.959   8.781  0.00  0.00    +0.000 HD
ENDBRANCH   7   9
BRANCH   1  15
ATOM     14  C   UNL     1      43.558   2.862  12.386  0.00  0.00    +0.000 C 
ATOM     15  O   UNL     1      44.865   2.930  11.821  0.00  0.00    +0.000 OA
ENDBRANCH   1  15
BRANCH   4  16
ATOM     16  C   UNL     1      47.148   4.355  15.960  0.00  0.00    +0.000 C 
BRANCH  16  17
ATOM     17  C   UNL     1      48.143   4.389  17.115  0.00  0.00    +0.000 A 
ATOM     18  C   UNL     1      47.893   5.174  18.237  0.00  0.00    +0.000 A 
ATOM     19  C   UNL     1      48.853   5.267  19.234  0.00  0.00    +0.000 A 
ATOM     20  C   UNL     1      50.042   4.563  19.096  0.00  0.00    +0.000 A 
ATOM     21  C   UNL     1      50.240   3.764  17.969  0.00  0.00    +0.000 A 
ATOM     22  N   UNL     1      49.306   3.686  16.979  0.00  0.00    +0.000 NA
BRANCH  21  23
ATOM     23  C   UNL     1      51.473   2.961  17.799  0.00  0.00    +0.000 A 
ATOM     24  C   UNL     1      51.413   1.583  17.512  0.00  0.00    +0.000 A 
ATOM     25  C   UNL     1      52.569   0.811  17.377  0.00  0.00    +0.000 A 
ATOM     26  C   UNL     1      53.820   1.402  17.517  0.00  0.00    +0.000 A 
ATOM     27  C   UNL     1      53.923   2.770  17.789  0.00  0.00    +0.000 A 
ATOM     28  C   UNL     1      55.269   3.416  17.943  0.00  0.00    +0.000 C 
ATOM     29  C   UNL     1      52.751   3.536  17.925  0.00  0.00    +0.000 A 
ENDBRANCH  21  23
ENDBRANCH  16  17
ENDBRANCH   4  16
TORSDOF 5
ENDMDL
MODEL 5
REMARK VINA RESULT:    -6.676      2.338      3.689
REMARK INTER + INTRA:          -9.306
REMARK INTER:                  -8.298
REMARK INTRA:                  -1.008
REMARK UNBOUND:                -0.679
REMARK  Name = 
REMARK  7 active torsions:
REMARK  status: ('A' for Active; 'I' for Inactive)
REMARK    1  A    between atoms: C_1  and  O_2
REMARK    2  A    between atoms: O_2  and  C_3
REMARK    3  A    between atoms: N_6  and  C_7
REMARK    4  A    between atoms: C_7  and  C_8
REMARK    5  A    between atoms: C_12  and  C_13
REMARK    6  A    between atoms: C_17  and  C_18
REMARK    7  A    between atoms: C_23  and  C_24
REMARK                            x       y       z     vdW  Elec       q    Type
REMARK                         _______ _______ _______ _____ _____    ______ ____
ROOT
ATOM      1  C   UNL     1      49.514   5.414  17.028  0.00  0.00    +0.000 A 
ATOM      2  N   UNL     1      49.401   6.142  15.883  0.00  0.00    +0.000 NA
ATOM      3  C   UNL     1      49.378   7.486  15.953  0.00  0.00    +0.000 A 
ATOM      4  N   UNL     1      49.357   8.251  14.790  0.00  0.00    +0.000 N 
ATOM      5  C   UNL     1      49.487   8.131  17.181  0.00  0.00    +0.000 A 
ATOM      6  C   UNL     1      49.631   7.381  18.350  0.00  0.00    +0.000 A 
ATOM      7  C   UNL     1      49.657   5.983  18.291  0.00  0.00    +0.000 A 
ATOM      8  H   UNL     1      48.810   9.102  14.866  0.00  0.00    +0.000 HD
ENDROOT
BRANCH   7   9
ATOM      9  C   UNL     1      49.842   5.243  19.568  0.00  0.00    +0.000 C 
ATOM     10  N   UNL     1      50.739   4.210  19.609  0.00  0.00    +0.000 N 
ATOM     11  O   UNL     1      49.220   5.552  20.577  0.00  0.00    +0.000 OA
ATOM     12  H   UNL     1      51.274   3.929  18.802  0.00  0.00    +0.000 HD
ATOM     13  H   UNL     1      50.866   3.721  20.484  0.00  0.00    +0.000 HD
ENDBRANCH   7   9
BRANCH   1  15
ATOM     14  C   UNL     1      48.126   3.533  16.785  0.00  0.00    +0.000 C 
ATOM     15  O   UNL     1      49.454   4.036  16.916  0.00  0.00    +0.000 OA
ENDBRANCH   1  15
BRANCH   4  16
ATOM     16  C   UNL     1      49.194   7.586  13.495  0.00  0.00    +0.000 C 
BRANCH  16  17
ATOM     17  C   UNL     1      47.816   7.750  12.864  0.00  0.00    +0.000 A 
ATOM     18  C   UNL     1      47.107   8.937  13.018  0.00  0.00    +0.000 A 
ATOM     19  C   UNL     1      45.816   9.033  12.519  0.00  0.00    +0.000 A 
ATOM     20  C   UNL     1      45.263   7.942  11.864  0.00  0.00    +0.000 A 
ATOM     21  C   UNL     1      46.018   6.780  11.705  0.00  0.00    +0.000 A 
ATOM     22  N   UNL     1      47.280   6.677  12.211  0.00  0.00    +0.000 NA
BRANCH  21  23
ATOM     23  C   UNL     1      45.486   5.606  10.975  0.00  0.00    +0.000 A 
ATOM     24  C   UNL     1      45.741   5.422   9.602  0.00  0.00    +0.000 A 
ATOM     25  C   UNL     1      45.220   4.334   8.898  0.00  0.00    +0.000 A 
ATOM     26  C   UNL     1      44.436   3.392   9.555  0.00  0.00    +0.000 A 
ATOM     27  C   UNL     1      44.169   3.530  10.921  0.00  0.00    +0.000 A 
ATOM     28  C   UNL     1      43.323   2.520  11.639  0.00  0.00    +0.000 C 
ATOM     29  C   UNL     1      44.697   4.633  11.617  0.00  0.00    +0.000 A 
ENDBRANCH  21  23
ENDBRANCH  16  17
ENDBRANCH   4  16
TORSDOF 5
ENDMDL
MODEL 6
REMARK VINA RESULT:    -6.609      2.094      2.783
REMARK INTER + INTRA:          -9.220
REMARK INTER:                  -8.555
REMARK INTRA:                  -0.665
REMARK UNBOUND:                -0.679
REMARK  Name = 
REMARK  7 active torsions:
REMARK  status: ('A' for Active; 'I' for Inactive)
REMARK    1  A    between atoms: C_1  and  O_2
REMARK    2  A    between atoms: O_2  and  C_3
REMARK    3  A    between atoms: N_6  and  C_7
REMARK    4  A    between atoms: C_7  and  C_8
REMARK    5  A    between atoms: C_12  and  C_13
REMARK    6  A    between atoms: C_17  and  C_18
REMARK    7  A    between atoms: C_23  and  C_24
REMARK                            x       y       z     vdW  Elec       q    Type
REMARK                         _______ _______ _______ _____ _____    ______ ____
ROOT
ATOM      1  C   UNL     1      48.587   6.652  18.163  0.00  0.00    +0.000 A 
ATOM      2  N   UNL     1      48.361   6.720  16.822  0.00  0.00    +0.000 NA
ATOM      3  C   UNL     1      48.188   5.583  16.122  0.00  0.00    +0.000 A 
ATOM      4  N   UNL     1      47.863   5.632  14.769  0.00  0.00    +0.000 N 
ATOM      5  C   UNL     1      48.221   4.348  16.762  0.00  0.00    +0.000 A 
ATOM      6  C   UNL     1      48.426   4.285  18.142  0.00  0.00    +0.000 A 
ATOM      7  C   UNL     1      48.606   5.459  18.881  0.00  0.00    +0.000 A 
ATOM      8  H   UNL     1      48.276   4.887  14.219  0.00  0.00    +0.000 HD
ENDROOT
BRANCH   7   9
ATOM      9  C   UNL     1      48.790   5.325  20.352  0.00  0.00    +0.000 C 
ATOM     10  N   UNL     1      49.886   4.654  20.822  0.00  0.00    +0.000 N 
ATOM     11  O   UNL     1      47.991   5.816  21.139  0.00  0.00    +0.000 OA
ATOM     12  H   UNL     1      50.570   4.242  20.206  0.00  0.00    +0.000 HD
ATOM     13  H   UNL     1      50.008   4.579  21.821  0.00  0.00    +0.000 HD
ENDBRANCH   7   9
BRANCH   1  15
ATOM     14  C   UNL     1      47.807   8.812  18.661  0.00  0.00    +0.000 C 
ATOM     15  O   UNL     1      48.837   7.840  18.828  0.00  0.00    +0.000 OA
ENDBRANCH   1  15
BRANCH   4  16
ATOM     16  C   UNL     1      47.873   6.922  14.074  0.00  0.00    +0.000 C 
BRANCH  16  17
ATOM     17  C   UNL     1      46.779   7.087  13.024  0.00  0.00    +0.000 A 
ATOM     18  C   UNL     1      46.085   8.288  12.914  0.00  0.00    +0.000 A 
ATOM     19  C   UNL     1      45.030   8.388  12.019  0.00  0.00    +0.000 A 
ATOM     20  C   UNL     1      44.697   7.288  11.242  0.00  0.00    +0.000 A 
ATOM     21  C   UNL     1      45.438   6.113  11.361  0.00  0.00    +0.000 A 
ATOM     22  N   UNL     1      46.463   6.005  12.254  0.00  0.00    +0.000 NA
BRANCH  21  23
ATOM     23  C   UNL     1      45.148   4.927  10.522  0.00  0.00    +0.000 A 
ATOM     24  C   UNL     1      44.332   3.880  10.994  0.00  0.00    +0.000 A 
ATOM     25  C   UNL     1      44.074   2.745  10.222  0.00  0.00    +0.000 A 
ATOM     26  C   UNL     1      44.622   2.631   8.949  0.00  0.00    +0.000 A 
ATOM     27  C   UNL     1      45.427   3.654   8.438  0.00  0.00    +0.000 A 
ATOM     28  C   UNL     1      46.024   3.539   7.066  0.00  0.00    +0.000 C 
ATOM     29  C   UNL     1      45.681   4.791   9.227  0.00  0.00    +0.000 A 
ENDBRANCH  21  23
ENDBRANCH  16  17
ENDBRANCH   4  16
TORSDOF 5
ENDMDL
MODEL 7
REMARK VINA RESULT:    -6.554      3.718      8.376
REMARK INTER + INTRA:          -9.150
REMARK INTER:                  -8.086
REMARK INTRA:                  -1.063
REMARK UNBOUND:                -0.679
REMARK  Name = 
REMARK  7 active torsions:
REMARK  status: ('A' for Active; 'I' for Inactive)
REMARK    1  A    between atoms: C_1  and  O_2
REMARK    2  A    between atoms: O_2  and  C_3
REMARK    3  A    between atoms: N_6  and  C_7
REMARK    4  A    between atoms: C_7  and  C_8
REMARK    5  A    between atoms: C_12  and  C_13
REMARK    6  A    between atoms: C_17  and  C_18
REMARK    7  A    between atoms: C_23  and  C_24
REMARK                            x       y       z     vdW  Elec       q    Type
REMARK                         _______ _______ _______ _____ _____    ______ ____
ROOT
ATOM      1  C   UNL     1      46.151   4.877  13.102  0.00  0.00    +0.000 A 
ATOM      2  N   UNL     1      47.206   5.680  12.795  0.00  0.00    +0.000 NA
ATOM      3  C   UNL     1      47.035   6.691  11.922  0.00  0.00    +0.000 A 
ATOM      4  N   UNL     1      48.074   7.581  11.664  0.00  0.00    +0.000 N 
ATOM      5  C   UNL     1      45.789   6.928  11.350  0.00  0.00    +0.000 A 
ATOM      6  C   UNL     1      44.703   6.118  11.690  0.00  0.00    +0.000 A 
ATOM      7  C   UNL     1      44.867   5.065  12.596  0.00  0.00    +0.000 A 
ATOM      8  H   UNL     1      48.109   7.907  10.705  0.00  0.00    +0.000 HD
ENDROOT
BRANCH   7   9
ATOM      9  C   UNL     1      43.664   4.258  12.938  0.00  0.00    +0.000 C 
ATOM     10  N   UNL     1      43.731   2.895  12.833  0.00  0.00    +0.000 N 
ATOM     11  O   UNL     1      42.631   4.790  13.324  0.00  0.00    +0.000 OA
ATOM     12  H   UNL     1      44.566   2.419  12.524  0.00  0.00    +0.000 HD
ATOM     13  H   UNL     1      42.914   2.355  13.078  0.00  0.00    +0.000 HD
ENDBRANCH   7   9
BRANCH   1  15
ATOM     14  C   UNL     1      47.133   4.151  15.110  0.00  0.00    +0.000 C 
ATOM     15  O   UNL     1      46.390   3.804  13.943  0.00  0.00    +0.000 OA
ENDBRANCH   1  15
BRANCH   4  16
ATOM     16  C   UNL     1      49.403   7.316  12.222  0.00  0.00    +0.000 C 
BRANCH  16  17
ATOM     17  C   UNL     1      49.606   7.814  13.649  0.00  0.00    +0.000 A 
ATOM     18  C   UNL     1      49.826   9.165  13.899  0.00  0.00    +0.000 A 
ATOM     19  C   UNL     1      50.104   9.585  15.191  0.00  0.00    +0.000 A 
ATOM     20  C   UNL     1      50.145   8.646  16.212  0.00  0.00    +0.000 A 
ATOM     21  C   UNL     1      49.889   7.306  15.924  0.00  0.00    +0.000 A 
ATOM     22  N   UNL     1      49.634   6.887  14.651  0.00  0.00    +0.000 NA
BRANCH  21  23
ATOM     23  C   UNL     1      49.879   6.275  16.987  0.00  0.00    +0.000 A 
ATOM     24  C   UNL     1      48.789   6.148  17.871  0.00  0.00    +0.000 A 
ATOM     25  C   UNL     1      48.781   5.198  18.895  0.00  0.00    +0.000 A 
ATOM     26  C   UNL     1      49.865   4.341  19.057  0.00  0.00    +0.000 A 
ATOM     27  C   UNL     1      50.961   4.425  18.193  0.00  0.00    +0.000 A 
ATOM     28  C   UNL     1      52.136   3.506  18.360  0.00  0.00    +0.000 C 
ATOM     29  C   UNL     1      50.957   5.388  17.167  0.00  0.00    +0.000 A 
ENDBRANCH  21  23
ENDBRANCH  16  17
ENDBRANCH   4  16
TORSDOF 5
ENDMDL
MODEL 8
REMARK VINA RESULT:    -6.535      3.542      8.078
REMARK INTER + INTRA:          -9.125
REMARK INTER:                  -8.143
REMARK INTRA:                  -0.982
REMARK UNBOUND:                -0.679
REMARK  Name = 
REMARK  7 active torsions:
REMARK  status: ('A' for Active; 'I' for Inactive)
REMARK    1  A    between atoms: C_1  and  O_2
REMARK    2  A    between atoms: O_2  and  C_3
REMARK    3  A    between atoms: N_6  and  C_7
REMARK    4  A    between atoms: C_7  and  C_8
REMARK    5  A    between atoms: C_12  and  C_13
REMARK    6  A    between atoms: C_17  and  C_18
REMARK    7  A    between atoms: C_23  and  C_24
REMARK                            x       y       z     vdW  Elec       q    Type
REMARK                         _______ _______ _______ _____ _____    ______ ____
ROOT
ATOM      1  C   UNL     1      44.991   4.868  12.676  0.00  0.00    +0.000 A 
ATOM      2  N   UNL     1      45.252   6.192  12.854  0.00  0.00    +0.000 NA
ATOM      3  C   UNL     1      44.791   7.084  11.956  0.00  0.00    +0.000 A 
ATOM      4  N   UNL     1      44.965   8.448  12.165  0.00  0.00    +0.000 N 
ATOM      5  C   UNL     1      44.040   6.661  10.863  0.00  0.00    +0.000 A 
ATOM      6  C   UNL     1      43.751   5.305  10.700  0.00  0.00    +0.000 A 
ATOM      7  C   UNL     1      44.223   4.369  11.627  0.00  0.00    +0.000 A 
ATOM      8  H   UNL     1      45.126   8.979  11.316  0.00  0.00    +0.000 HD
ENDROOT
BRANCH   7   9
ATOM      9  C   UNL     1      43.856   2.942  11.413  0.00  0.00    +0.000 C 
ATOM     10  N   UNL     1      43.609   2.153  12.503  0.00  0.00    +0.000 N 
ATOM     11  O   UNL     1      43.759   2.474  10.286  0.00  0.00    +0.000 OA
ATOM     12  H   UNL     1      43.673   2.503  13.447  0.00  0.00    +0.000 HD
ATOM     13  H   UNL     1      43.350   1.189  12.347  0.00  0.00    +0.000 HD
ENDBRANCH   7   9
BRANCH   1  15
ATOM     14  C   UNL     1      46.915   4.262  13.881  0.00  0.00    +0.000 C 
ATOM     15  O   UNL     1      45.549   3.981  13.580  0.00  0.00    +0.000 OA
ENDBRANCH   1  15
BRANCH   4  16
ATOM     16  C   UNL     1      45.795   8.903  13.284  0.00  0.00    +0.000 C 
BRANCH  16  17
ATOM     17  C   UNL     1      47.277   8.568  13.156  0.00  0.00    +0.000 A 
ATOM     18  C   UNL     1      47.951   8.802  11.961  0.00  0.00    +0.000 A 
ATOM     19  C   UNL     1      49.273   8.402  11.833  0.00  0.00    +0.000 A 
ATOM     20  C   UNL     1      49.900   7.786  12.907  0.00  0.00    +0.000 A 
ATOM     21  C   UNL     1      49.197   7.598  14.097  0.00  0.00    +0.000 A 
ATOM     22  N   UNL     1      47.892   7.973  14.220  0.00  0.00    +0.000 NA
BRANCH  21  23
ATOM     23  C   UNL     1      49.837   6.986  15.284  0.00  0.00    +0.000 A 
ATOM     24  C   UNL     1      51.207   7.175  15.554  0.00  0.00    +0.000 A 
ATOM     25  C   UNL     1      51.827   6.579  16.655  0.00  0.00    +0.000 A 
ATOM     26  C   UNL     1      51.088   5.782  17.522  0.00  0.00    +0.000 A 
ATOM     27  C   UNL     1      49.723   5.578  17.296  0.00  0.00    +0.000 A 
ATOM     28  C   UNL     1      48.917   4.718  18.225  0.00  0.00    +0.000 C 
ATOM     29  C   UNL     1      49.111   6.182  16.183  0.00  0.00    +0.000 A 
ENDBRANCH  21  23
ENDBRANCH  16  17
ENDBRANCH   4  16
TORSDOF 5
ENDMDL
MODEL 9
REMARK VINA RESULT:    -6.161      2.789      4.853
REMARK INTER + INTRA:          -8.642
REMARK INTER:                  -7.436
REMARK INTRA:                  -1.206
REMARK UNBOUND:                -0.679
REMARK  Name = 
REMARK  7 active torsions:
REMARK  status: ('A' for Active; 'I' for Inactive)
REMARK    1  A    between atoms: C_1  and  O_2
REMARK    2  A    between atoms: O_2  and  C_3
REMARK    3  A    between atoms: N_6  and  C_7
REMARK    4  A    between atoms: C_7  and  C_8
REMARK    5  A    between atoms: C_12  and  C_13
REMARK    6  A    between atoms: C_17  and  C_18
REMARK    7  A    between atoms: C_23  and  C_24
REMARK                            x       y       z     vdW  Elec       q    Type
REMARK                         _______ _______ _______ _____ _____    ______ ____
ROOT
ATOM      1  C   UNL     1      48.971   5.467  17.991  0.00  0.00    +0.000 A 
ATOM      2  N   UNL     1      49.526   6.164  16.962  0.00  0.00    +0.000 NA
ATOM      3  C   UNL     1      49.667   7.499  17.067  0.00  0.00    +0.000 A 
ATOM      4  N   UNL     1      50.316   8.219  16.069  0.00  0.00    +0.000 N 
ATOM      5  C   UNL     1      49.267   8.162  18.223  0.00  0.00    +0.000 A 
ATOM      6  C   UNL     1      48.723   7.440  19.287  0.00  0.00    +0.000 A 
ATOM      7  C   UNL     1      48.572   6.052  19.191  0.00  0.00    +0.000 A 
ATOM      8  H   UNL     1      49.929   9.142  15.908  0.00  0.00    +0.000 HD
ENDROOT
BRANCH   7   9
ATOM      9  C   UNL     1      48.013   5.337  20.370  0.00  0.00    +0.000 C 
ATOM     10  N   UNL     1      48.455   4.071  20.645  0.00  0.00    +0.000 N 
ATOM     11  O   UNL     1      47.184   5.865  21.099  0.00  0.00    +0.000 OA
ATOM     12  H   UNL     1      49.141   3.604  20.072  0.00  0.00    +0.000 HD
ATOM     13  H   UNL     1      48.078   3.598  21.454  0.00  0.00    +0.000 HD
ENDBRANCH   7   9
BRANCH   1  15
ATOM     14  C   UNL     1      47.649   3.804  16.986  0.00  0.00    +0.000 C 
ATOM     15  O   UNL     1      48.774   4.109  17.809  0.00  0.00    +0.000 OA
ENDBRANCH   1  15
BRANCH   4  16
ATOM     16  C   UNL     1      50.699   7.541  14.827  0.00  0.00    +0.000 C 
BRANCH  16  17
ATOM     17  C   UNL     1      49.679   7.653  13.699  0.00  0.00    +0.000 A 
ATOM     18  C   UNL     1      49.658   8.776  12.878  0.00  0.00    +0.000 A 
ATOM     19  C   UNL     1      48.663   8.904  11.920  0.00  0.00    +0.000 A 
ATOM     20  C   UNL     1      47.714   7.899  11.793  0.00  0.00    +0.000 A 
ATOM     21  C   UNL     1      47.790   6.775  12.616  0.00  0.00    +0.000 A 
ATOM     22  N   UNL     1      48.756   6.656  13.571  0.00  0.00    +0.000 NA
BRANCH  21  23
ATOM     23  C   UNL     1      46.827   5.657  12.488  0.00  0.00    +0.000 A 
ATOM     24  C   UNL     1      46.886   4.541  13.345  0.00  0.00    +0.000 A 
ATOM     25  C   UNL     1      46.000   3.468  13.215  0.00  0.00    +0.000 A 
ATOM     26  C   UNL     1      45.023   3.489  12.226  0.00  0.00    +0.000 A 
ATOM     27  C   UNL     1      44.922   4.585  11.363  0.00  0.00    +0.000 A 
ATOM     28  C   UNL     1      43.872   4.616  10.291  0.00  0.00    +0.000 C 
ATOM     29  C   UNL     1      45.822   5.657  11.502  0.00  0.00    +0.000 A 
ENDBRANCH  21  23
ENDBRANCH  16  17
ENDBRANCH   4  16
TORSDOF 5
ENDMDL
