MODEL 1
REMARK VINA RESULT:    -7.627      0.000      0.000
REMARK INTER + INTRA:         -11.408
REMARK INTER:                 -10.525
REMARK INTRA:                  -0.883
REMARK UNBOUND:                -0.883
REMARK  Name = 
REMARK  10 active torsions:
REMARK  status: ('A' for Active; 'I' for Inactive)
REMARK    1  A    between atoms: C_1  and  O_2
REMARK    2  A    between atoms: O_2  and  C_3
REMARK    3  A    between atoms: C_5  and  O_6
REMARK    4  A    between atoms: C_8  and  O_9
REMARK    5  A    between atoms: O_9  and  C_10
REMARK    6  A    between atoms: C_10  and  C_11
REMARK    7  A    between atoms: C_11  and  C_12
REMARK    8  A    between atoms: C_11  and  C_13
REMARK    9  A    between atoms: C_11  and  C_14
REMARK   10  A    between atoms: C_17  and  C_18
REMARK                            x       y       z     vdW  Elec       q    Type
REMARK                         _______ _______ _______ _____ _____    ______ ____
ROOT
ATOM      1  C   UNL     1      44.152   3.887  11.149  0.00  0.00    +0.000 C 
ATOM      2  C   UNL     1      43.282   2.666  11.533  0.00  0.00    +0.000 C 
ATOM      3  C   UNL     1      43.227   5.097  10.894  0.00  0.00    +0.000 C 
ENDROOT
BRANCH   1   4
ATOM      4  C   UNL     1      44.949   3.554   9.875  0.00  0.00    +0.000 A 
ATOM      5  C   UNL     1      45.168   2.244   9.428  0.00  0.00    +0.000 A 
ATOM      6  C   UNL     1      45.900   1.999   8.268  0.00  0.00    +0.000 A 
ATOM      7  C   UNL     1      46.394   3.083   7.563  0.00  0.00    +0.000 A 
ATOM      8  N   UNL     1      46.209   4.377   7.943  0.00  0.00    +0.000 NA
ATOM      9  C   UNL     1      45.501   4.569   9.083  0.00  0.00    +0.000 A 
BRANCH   7  10
ATOM     10  C   UNL     1      47.172   2.849   6.308  0.00  0.00    +0.000 C 
ATOM     11  N   UNL     1      48.496   2.546   6.485  0.00  0.00    +0.000 N 
ATOM     12  O   UNL     1      46.674   2.925   5.190  0.00  0.00    +0.000 OA
ATOM     13  H   UNL     1      48.871   2.491   7.424  0.00  0.00    +0.000 HD
ATOM     14  H   UNL     1      49.080   2.379   5.679  0.00  0.00    +0.000 HD
ENDBRANCH   7  10
ENDBRANCH   1   4
BRANCH   1  15
ATOM     15  C   UNL     1      45.039   4.200  12.393  0.00  0.00    +0.000 C 
BRANCH  15  16
ATOM     16  O   UNL     1      44.857   5.550  12.836  0.00  0.00    +0.000 OA
BRANCH  16  21
ATOM     17  C   UNL     1      46.647   8.695  12.418  0.00  0.00    +0.000 A 
ATOM     18  C   UNL     1      47.980   8.295  12.499  0.00  0.00    +0.000 A 
ATOM     19  C   UNL     1      48.276   6.946  12.676  0.00  0.00    +0.000 A 
ATOM     20  C   UNL     1      47.271   5.990  12.781  0.00  0.00    +0.000 A 
ATOM     21  C   UNL     1      45.938   6.383  12.716  0.00  0.00    +0.000 A 
ATOM     22  C   UNL     1      45.634   7.735  12.525  0.00  0.00    +0.000 A 
BRANCH  17  24
ATOM     23  C   UNL     1      44.842  10.150  11.878  0.00  0.00    +0.000 C 
ATOM     24  O   UNL     1      46.208   9.979  12.240  0.00  0.00    +0.000 OA
ENDBRANCH  17  24
BRANCH  19  25
ATOM     25  O   UNL     1      49.567   6.504  12.759  0.00  0.00    +0.000 OA
ATOM     26  H   UNL     1      49.564   5.534  12.810  0.00  0.00    +0.000 HD
ENDBRANCH  19  25
ENDBRANCH  16  21
ENDBRANCH  15  16
ENDBRANCH   1  15
TORSDOF 7
ENDMDL
MODEL 2
REMARK VINA RESULT:    -7.329      0.959      2.329
REMARK INTER + INTRA:         -10.997
REMARK INTER:                 -10.237
REMARK INTRA:                  -0.760
REMARK UNBOUND:                -0.883
REMARK  Name = 
REMARK  10 active torsions:
REMARK  status: ('A' for Active; 'I' for Inactive)
REMARK    1  A    between atoms: C_1  and  O_2
REMARK    2  A    between atoms: O_2  and  C_3
REMARK    3  A    between atoms: C_5  and  O_6
REMARK    4  A    between atoms: C_8  and  O_9
REMARK    5  A    between atoms: O_9  and  C_10
REMARK    6  A    between atoms: C_10  and  C_11
REMARK    7  A    between atoms: C_11  and  C_12
REMARK    8  A    between atoms: C_11  and  C_13
REMARK    9  A    between atoms: C_11  and  C_14
REMARK   10  A    between atoms: C_17  and  C_18
REMARK                            x       y       z     vdW  Elec       q    Type
REMARK                         _______ _______ _______ _____ _____    ______ ____
ROOT
ATOM      1  C   UNL     1      44.204   3.947  10.989  0.00  0.00    +0.000 C 
ATOM      2  C   UNL     1      43.360   2.753  11.497  0.00  0.00    +0.000 C 
ATOM      3  C   UNL     1      43.252   5.103  10.610  0.00  0.00    +0.000 C 
ENDROOT
BRANCH   1   4
ATOM      4  C   UNL     1      45.011   3.502   9.757  0.00  0.00    +0.000 A 
ATOM      5  C   UNL     1      45.234   2.158   9.430  0.00  0.00    +0.000 A 
ATOM      6  C   UNL     1      45.976   1.812   8.303  0.00  0.00    +0.000 A 
ATOM      7  C   UNL     1      46.476   2.828   7.508  0.00  0.00    +0.000 A 
ATOM      8  N   UNL     1      46.287   4.151   7.770  0.00  0.00    +0.000 NA
ATOM      9  C   UNL     1      45.569   4.443   8.881  0.00  0.00    +0.000 A 
BRANCH   7  10
ATOM     10  C   UNL     1      47.265   2.484   6.285  0.00  0.00    +0.000 C 
ATOM     11  N   UNL     1      47.157   3.371   5.248  0.00  0.00    +0.000 N 
ATOM     12  O   UNL     1      47.960   1.478   6.201  0.00  0.00    +0.000 OA
ATOM     13  H   UNL     1      46.573   4.193   5.355  0.00  0.00    +0.000 HD
ATOM     14  H   UNL     1      47.661   3.199   4.391  0.00  0.00    +0.000 HD
ENDBRANCH   7  10
ENDBRANCH   1   4
BRANCH   1  15
ATOM     15  C   UNL     1      45.079   4.407  12.195  0.00  0.00    +0.000 C 
BRANCH  15  16
ATOM     16  O   UNL     1      44.616   5.652  12.730  0.00  0.00    +0.000 OA
BRANCH  16  21
ATOM     17  C   UNL     1      47.866   7.079  13.550  0.00  0.00    +0.000 A 
ATOM     18  C   UNL     1      47.672   8.435  13.291  0.00  0.00    +0.000 A 
ATOM     19  C   UNL     1      46.425   8.874  12.856  0.00  0.00    +0.000 A 
ATOM     20  C   UNL     1      45.370   7.987  12.666  0.00  0.00    +0.000 A 
ATOM     21  C   UNL     1      45.559   6.629  12.908  0.00  0.00    +0.000 A 
ATOM     22  C   UNL     1      46.806   6.184  13.358  0.00  0.00    +0.000 A 
BRANCH  17  24
ATOM     23  C   UNL     1      49.998   7.375  14.568  0.00  0.00    +0.000 C 
ATOM     24  O   UNL     1      49.030   6.507  13.987  0.00  0.00    +0.000 OA
ENDBRANCH  17  24
BRANCH  19  25
ATOM     25  O   UNL     1      46.184  10.192  12.591  0.00  0.00    +0.000 OA
ATOM     26  H   UNL     1      47.031  10.668  12.563  0.00  0.00    +0.000 HD
ENDBRANCH  19  25
ENDBRANCH  16  21
ENDBRANCH  15  16
ENDBRANCH   1  15
TORSDOF 7
ENDMDL
MODEL 3
REMARK VINA RESULT:    -7.212      3.397      7.124
REMARK INTER + INTRA:         -10.836
REMARK INTER:                  -9.946
REMARK INTRA:                  -0.890
REMARK UNBOUND:                -0.883
REMARK  Name = 
REMARK  10 active torsions:
REMARK  status: ('A' for Active; 'I' for Inactive)
REMARK    1  A    between atoms: C_1  and  O_2
REMARK    2  A    between atoms: O_2  and  C_3
REMARK    3  A    between atoms: C_5  and  O_6
REMARK    4  A    between atoms: C_8  and  O_9
REMARK    5  A    between atoms: O_9  and  C_10
REMARK    6  A    between atoms: C_10  and  C_11
REMARK    7  A    between atoms: C_11  and  C_12
REMARK    8  A    between atoms: C_11  and  C_13
REMARK    9  A    between atoms: C_11  and  C_14
REMARK   10  A    between atoms: C_17  and  C_18
REMARK                            x       y       z     vdW  Elec       q    Type
REMARK                         _______ _______ _______ _____ _____    ______ ____
ROOT
ATOM      1  C   UNL     1      46.606   7.057  12.635  0.00  0.00    +0.000 C 
ATOM      2  C   UNL     1      47.778   7.194  11.633  0.00  0.00    +0.000 C 
ATOM      3  C   UNL     1      46.333   8.438  13.273  0.00  0.00    +0.000 C 
ENDROOT
BRANCH   1   4
ATOM      4  C   UNL     1      46.994   6.041  13.724  0.00  0.00    +0.000 A 
ATOM      5  C   UNL     1      47.877   6.338  14.771  0.00  0.00    +0.000 A 
ATOM      6  C   UNL     1      48.196   5.378  15.729  0.00  0.00    +0.000 A 
ATOM      7  C   UNL     1      47.610   4.129  15.626  0.00  0.00    +0.000 A 
ATOM      8  N   UNL     1      46.742   3.783  14.637  0.00  0.00    +0.000 NA
ATOM      9  C   UNL     1      46.467   4.743  13.721  0.00  0.00    +0.000 A 
BRANCH   7  10
ATOM     10  C   UNL     1      47.926   3.084  16.649  0.00  0.00    +0.000 C 
ATOM     11  N   UNL     1      46.970   2.896  17.611  0.00  0.00    +0.000 N 
ATOM     12  O   UNL     1      48.966   2.436  16.641  0.00  0.00    +0.000 OA
ATOM     13  H   UNL     1      46.122   3.450  17.583  0.00  0.00    +0.000 HD
ATOM     14  H   UNL     1      47.119   2.207  18.333  0.00  0.00    +0.000 HD
ENDBRANCH   7  10
ENDBRANCH   1   4
BRANCH   1  15
ATOM     15  C   UNL     1      45.358   6.649  11.795  0.00  0.00    +0.000 C 
BRANCH  15  16
ATOM     16  O   UNL     1      45.728   6.261  10.466  0.00  0.00    +0.000 OA
BRANCH  16  21
ATOM     17  C   UNL     1      45.401   3.394   8.243  0.00  0.00    +0.000 A 
ATOM     18  C   UNL     1      44.624   2.516   8.998  0.00  0.00    +0.000 A 
ATOM     19  C   UNL     1      44.188   2.907  10.261  0.00  0.00    +0.000 A 
ATOM     20  C   UNL     1      44.519   4.150  10.790  0.00  0.00    +0.000 A 
ATOM     21  C   UNL     1      45.307   5.026  10.050  0.00  0.00    +0.000 A 
ATOM     22  C   UNL     1      45.737   4.645   8.775  0.00  0.00    +0.000 A 
BRANCH  17  24
ATOM     23  C   UNL     1      47.211   2.618   6.905  0.00  0.00    +0.000 C 
ATOM     24  O   UNL     1      45.893   3.149   6.990  0.00  0.00    +0.000 OA
ENDBRANCH  17  24
BRANCH  19  25
ATOM     25  O   UNL     1      43.421   2.085  11.038  0.00  0.00    +0.000 OA
ATOM     26  H   UNL     1      43.088   1.355  10.490  0.00  0.00    +0.000 HD
ENDBRANCH  19  25
ENDBRANCH  16  21
ENDBRANCH  15  16
ENDBRANCH   1  15
TORSDOF 7
ENDMDL
MODEL 4
REMARK VINA RESULT:    -7.098      3.351      6.985
REMARK INTER + INTRA:         -10.678
REMARK INTER:                  -9.669
REMARK INTRA:                  -1.009
REMARK UNBOUND:                -0.883
REMARK  Name = 
REMARK  10 active torsions:
REMARK  status: ('A' for Active; 'I' for Inactive)
REMARK    1  A    between atoms: C_1  and  O_2
REMARK    2  A    between atoms: O_2  and  C_3
REMARK    3  A    between atoms: C_5  and  O_6
REMARK    4  A    between atoms: C_8  and  O_9
REMARK    5  A    between atoms: O_9  and  C_10
REMARK    6  A    between atoms: C_10  and  C_11
REMARK    7  A    between atoms: C_11  and  C_12
REMARK    8  A    between atoms: C_11  and  C_13
REMARK    9  A    between atoms: C_11  and  C_14
REMARK   10  A    between atoms: C_17  and  C_18
REMARK                            x       y       z     vdW  Elec       q    Type
REMARK                         _______ _______ _______ _____ _____    ______ ____
ROOT
ATOM      1  C   UNL     1      46.577   7.134  12.524  0.00  0.00    +0.000 C 
ATOM      2  C   UNL     1      47.819   7.412  11.642  0.00  0.00    +0.000 C 
ATOM      3  C   UNL     1      46.112   8.463  13.160  0.00  0.00    +0.000 C 
ENDROOT
BRANCH   1   4
ATOM      4  C   UNL     1      46.957   6.127  13.623  0.00  0.00    +0.000 A 
ATOM      5  C   UNL     1      47.961   6.369  14.571  0.00  0.00    +0.000 A 
ATOM      6  C   UNL     1      48.267   5.419  15.544  0.00  0.00    +0.000 A 
ATOM      7  C   UNL     1      47.546   4.238  15.556  0.00  0.00    +0.000 A 
ATOM      8  N   UNL     1      46.558   3.948  14.667  0.00  0.00    +0.000 NA
ATOM      9  C   UNL     1      46.300   4.894  13.732  0.00  0.00    +0.000 A 
BRANCH   7  10
ATOM     10  C   UNL     1      47.846   3.206  16.598  0.00  0.00    +0.000 C 
ATOM     11  N   UNL     1      46.857   3.002  17.523  0.00  0.00    +0.000 N 
ATOM     12  O   UNL     1      48.901   2.584  16.636  0.00  0.00    +0.000 OA
ATOM     13  H   UNL     1      45.998   3.535  17.458  0.00  0.00    +0.000 HD
ATOM     14  H   UNL     1      46.994   2.322  18.255  0.00  0.00    +0.000 HD
ENDBRANCH   7  10
ENDBRANCH   1   4
BRANCH   1  15
ATOM     15  C   UNL     1      45.459   6.635  11.558  0.00  0.00    +0.000 C 
BRANCH  15  16
ATOM     16  O   UNL     1      45.985   6.346  10.257  0.00  0.00    +0.000 OA
BRANCH  16  21
ATOM     17  C   UNL     1      44.267   3.143  10.004  0.00  0.00    +0.000 A 
ATOM     18  C   UNL     1      44.627   2.710   8.728  0.00  0.00    +0.000 A 
ATOM     19  C   UNL     1      45.476   3.498   7.956  0.00  0.00    +0.000 A 
ATOM     20  C   UNL     1      45.966   4.712   8.425  0.00  0.00    +0.000 A 
ATOM     21  C   UNL     1      45.600   5.160   9.691  0.00  0.00    +0.000 A 
ATOM     22  C   UNL     1      44.758   4.366  10.478  0.00  0.00    +0.000 A 
BRANCH  17  24
ATOM     23  C   UNL     1      43.481   2.887  12.236  0.00  0.00    +0.000 C 
ATOM     24  O   UNL     1      43.450   2.475  10.874  0.00  0.00    +0.000 OA
ENDBRANCH  17  24
BRANCH  19  25
ATOM     25  O   UNL     1      45.860   3.115   6.702  0.00  0.00    +0.000 OA
ATOM     26  H   UNL     1      45.109   2.685   6.260  0.00  0.00    +0.000 HD
ENDBRANCH  19  25
ENDBRANCH  16  21
ENDBRANCH  15  16
ENDBRANCH   1  15
TORSDOF 7
ENDMDL
MODEL 5
REMARK VINA RESULT:    -6.624      3.808      7.292
REMARK INTER + INTRA:         -10.024
REMARK INTER:                  -9.116
REMARK INTRA:                  -0.908
REMARK UNBOUND:                -0.883
REMARK  Name = 
REMARK  10 active torsions:
REMARK  status: ('A' for Active; 'I' for Inactive)
REMARK    1  A    between atoms: C_1  and  O_2
REMARK    2  A    between atoms: O_2  and  C_3
REMARK    3  A    between atoms: C_5  and  O_6
REMARK    4  A    between atoms: C_8  and  O_9
REMARK    5  A    between atoms: O_9  and  C_10
REMARK    6  A    between atoms: C_10  and  C_11
REMARK    7  A    between atoms: C_11  and  C_12
REMARK    8  A    between atoms: C_11  and  C_13
REMARK    9  A    between atoms: C_11  and  C_14
REMARK   10  A    between atoms: C_17  and  C_18
REMARK                            x       y       z     vdW  Elec       q    Type
REMARK                         _______ _______ _______ _____ _____    ______ ____
ROOT
ATOM      1  C   UNL     1      48.172   7.358  13.408  0.00  0.00    +0.000 C 
ATOM      2  C   UNL     1      49.048   6.802  12.259  0.00  0.00    +0.000 C 
ATOM      3  C   UNL     1      48.820   8.654  13.945  0.00  0.00    +0.000 C 
ENDROOT
BRANCH   1   4
ATOM      4  C   UNL     1      48.089   6.307  14.528  0.00  0.00    +0.000 A 
ATOM      5  C   UNL     1      48.707   6.464  15.777  0.00  0.00    +0.000 A 
ATOM      6  C   UNL     1      48.601   5.478  16.755  0.00  0.00    +0.000 A 
ATOM      7  C   UNL     1      47.861   4.345  16.466  0.00  0.00    +0.000 A 
ATOM      8  N   UNL     1      47.233   4.137  15.276  0.00  0.00    +0.000 NA
ATOM      9  C   UNL     1      47.370   5.117  14.350  0.00  0.00    +0.000 A 
BRANCH   7  10
ATOM     10  C   UNL     1      47.720   3.276  17.503  0.00  0.00    +0.000 C 
ATOM     11  N   UNL     1      48.823   3.072  18.289  0.00  0.00    +0.000 N 
ATOM     12  O   UNL     1      46.697   2.617  17.647  0.00  0.00    +0.000 OA
ATOM     13  H   UNL     1      49.650   3.638  18.141  0.00  0.00    +0.000 HD
ATOM     14  H   UNL     1      48.798   2.364  19.007  0.00  0.00    +0.000 HD
ENDBRANCH   7  10
ENDBRANCH   1   4
BRANCH   1  15
ATOM     15  C   UNL     1      46.797   7.724  12.771  0.00  0.00    +0.000 C 
BRANCH  15  16
ATOM     16  O   UNL     1      46.548   6.953  11.590  0.00  0.00    +0.000 OA
BRANCH  16  21
ATOM     17  C   UNL     1      44.257   4.354  10.462  0.00  0.00    +0.000 A 
ATOM     18  C   UNL     1      43.264   4.384  11.441  0.00  0.00    +0.000 A 
ATOM     19  C   UNL     1      43.359   5.307  12.478  0.00  0.00    +0.000 A 
ATOM     20  C   UNL     1      44.427   6.194  12.566  0.00  0.00    +0.000 A 
ATOM     21  C   UNL     1      45.431   6.160  11.602  0.00  0.00    +0.000 A 
ATOM     22  C   UNL     1      45.335   5.244  10.550  0.00  0.00    +0.000 A 
BRANCH  17  24
ATOM     23  C   UNL     1      45.028   3.945   8.248  0.00  0.00    +0.000 C 
ATOM     24  O   UNL     1      44.293   3.510   9.386  0.00  0.00    +0.000 OA
ENDBRANCH  17  24
BRANCH  19  25
ATOM     25  O   UNL     1      42.410   5.379  13.459  0.00  0.00    +0.000 OA
ATOM     26  H   UNL     1      42.842   5.598  14.301  0.00  0.00    +0.000 HD
ENDBRANCH  19  25
ENDBRANCH  16  21
ENDBRANCH  15  16
ENDBRANCH   1  15
TORSDOF 7
ENDMDL
MODEL 6
REMARK VINA RESULT:    -6.317      3.968      6.154
REMARK INTER + INTRA:          -9.601
REMARK INTER:                  -8.834
REMARK INTRA:                  -0.766
REMARK UNBOUND:                -0.883
REMARK  Name = 
REMARK  10 active torsions:
REMARK  status: ('A' for Active; 'I' for Inactive)
REMARK    1  A    between atoms: C_1  and  O_2
REMARK    2  A    between atoms: O_2  and  C_3
REMARK    3  A    between atoms: C_5  and  O_6
REMARK    4  A    between atoms: C_8  and  O_9
REMARK    5  A    between atoms: O_9  and  C_10
REMARK    6  A    between atoms: C_10  and  C_11
REMARK    7  A    between atoms: C_11  and  C_12
REMARK    8  A    between atoms: C_11  and  C_13
REMARK    9  A    between atoms: C_11  and  C_14
REMARK   10  A    between atoms: C_17  and  C_18
REMARK                            x       y       z     vdW  Elec       q    Type
REMARK                         _______ _______ _______ _____ _____    ______ ____
ROOT
ATOM      1  C   UNL     1      47.528   6.956  13.205  0.00  0.00    +0.000 C 
ATOM      2  C   UNL     1      46.976   8.374  12.918  0.00  0.00    +0.000 C 
ATOM      3  C   UNL     1      48.947   6.844  12.605  0.00  0.00    +0.000 C 
ENDROOT
BRANCH   1   4
ATOM      4  C   UNL     1      46.598   5.916  12.559  0.00  0.00    +0.000 A 
ATOM      5  C   UNL     1      46.076   6.051  11.265  0.00  0.00    +0.000 A 
ATOM      6  C   UNL     1      45.235   5.079  10.729  0.00  0.00    +0.000 A 
ATOM      7  C   UNL     1      44.937   3.971  11.502  0.00  0.00    +0.000 A 
ATOM      8  N   UNL     1      45.417   3.779  12.762  0.00  0.00    +0.000 NA
ATOM      9  C   UNL     1      46.223   4.754  13.248  0.00  0.00    +0.000 A 
BRANCH   7  10
ATOM     10  C   UNL     1      44.047   2.905  10.946  0.00  0.00    +0.000 C 
ATOM     11  N   UNL     1      44.573   2.180   9.911  0.00  0.00    +0.000 N 
ATOM     12  O   UNL     1      42.919   2.688  11.375  0.00  0.00    +0.000 OA
ATOM     13  H   UNL     1      45.510   2.388   9.585  0.00  0.00    +0.000 HD
ATOM     14  H   UNL     1      44.025   1.447   9.487  0.00  0.00    +0.000 HD
ENDBRANCH   7  10
ENDBRANCH   1   4
BRANCH   1  15
ATOM     15  C   UNL     1      47.640   6.837  14.756  0.00  0.00    +0.000 C 
BRANCH  15  16
ATOM     16  O   UNL     1      48.805   6.097  15.139  0.00  0.00    +0.000 OA
BRANCH  16  21
ATOM     17  C   UNL     1      49.672   4.360  18.222  0.00  0.00    +0.000 A 
ATOM     18  C   UNL     1      48.559   3.546  18.431  0.00  0.00    +0.000 A 
ATOM     19  C   UNL     1      47.516   3.569  17.509  0.00  0.00    +0.000 A 
ATOM     20  C   UNL     1      47.556   4.393  16.388  0.00  0.00    +0.000 A 
ATOM     21  C   UNL     1      48.656   5.220  16.180  0.00  0.00    +0.000 A 
ATOM     22  C   UNL     1      49.713   5.191  17.096  0.00  0.00    +0.000 A 
BRANCH  17  24
ATOM     23  C   UNL     1      51.660   5.525  18.817  0.00  0.00    +0.000 C 
ATOM     24  O   UNL     1      50.769   4.437  19.036  0.00  0.00    +0.000 OA
ENDBRANCH  17  24
BRANCH  19  25
ATOM     25  O   UNL     1      46.407   2.788  17.667  0.00  0.00    +0.000 OA
ATOM     26  H   UNL     1      45.713   3.310  18.103  0.00  0.00    +0.000 HD
ENDBRANCH  19  25
ENDBRANCH  16  21
ENDBRANCH  15  16
ENDBRANCH   1  15
TORSDOF 7
ENDMDL
MODEL 7
REMARK VINA RESULT:    -6.291      5.633      8.031
REMARK INTER + INTRA:          -9.565
REMARK INTER:                  -8.831
REMARK INTRA:                  -0.734
REMARK UNBOUND:                -0.883
REMARK  Name = 
REMARK  10 active torsions:
REMARK  status: ('A' for Active; 'I' for Inactive)
REMARK    1  A    between atoms: C_1  and  O_2
REMARK    2  A    between atoms: O_2  and  C_3
REMARK    3  A    between atoms: C_5  and  O_6
REMARK    4  A    between atoms: C_8  and  O_9
REMARK    5  A    between atoms: O_9  and  C_10
REMARK    6  A    between atoms: C_10  and  C_11
REMARK    7  A    between atoms: C_11  and  C_12
REMARK    8  A    between atoms: C_11  and  C_13
REMARK    9  A    between atoms: C_11  and  C_14
REMARK   10  A    between atoms: C_17  and  C_18
REMARK                            x       y       z     vdW  Elec       q    Type
REMARK                         _______ _______ _______ _____ _____    ______ ____
ROOT
ATOM      1  C   UNL     1      48.196   4.839  16.942  0.00  0.00    +0.000 C 
ATOM      2  C   UNL     1      48.720   6.178  16.370  0.00  0.00    +0.000 C 
ATOM      3  C   UNL     1      47.478   5.117  18.282  0.00  0.00    +0.000 C 
ENDROOT
BRANCH   1   4
ATOM      4  C   UNL     1      49.386   3.891  17.168  0.00  0.00    +0.000 A 
ATOM      5  C   UNL     1      50.649   4.331  17.586  0.00  0.00    +0.000 A 
ATOM      6  C   UNL     1      51.694   3.428  17.772  0.00  0.00    +0.000 A 
ATOM      7  C   UNL     1      51.448   2.085  17.545  0.00  0.00    +0.000 A 
ATOM      8  N   UNL     1      50.242   1.596  17.144  0.00  0.00    +0.000 NA
ATOM      9  C   UNL     1      49.258   2.510  16.966  0.00  0.00    +0.000 A 
BRANCH   7  10
ATOM     10  C   UNL     1      52.548   1.093  17.750  0.00  0.00    +0.000 C 
ATOM     11  N   UNL     1      52.178  -0.080  18.352  0.00  0.00    +0.000 N 
ATOM     12  O   UNL     1      53.708   1.303  17.411  0.00  0.00    +0.000 OA
ATOM     13  H   UNL     1      51.209  -0.218  18.617  0.00  0.00    +0.000 HD
ATOM     14  H   UNL     1      52.871  -0.793  18.523  0.00  0.00    +0.000 HD
ENDBRANCH   7  10
ENDBRANCH   1   4
BRANCH   1  15
ATOM     15  C   UNL     1      47.142   4.311  15.921  0.00  0.00    +0.000 C 
BRANCH  15  16
ATOM     16  O   UNL     1      47.629   4.400  14.577  0.00  0.00    +0.000 OA
BRANCH  16  21
ATOM     17  C   UNL     1      45.353   6.023  12.239  0.00  0.00    +0.000 A 
ATOM     18  C   UNL     1      44.803   4.940  11.555  0.00  0.00    +0.000 A 
ATOM     19  C   UNL     1      45.189   3.648  11.903  0.00  0.00    +0.000 A 
ATOM     20  C   UNL     1      46.118   3.415  12.912  0.00  0.00    +0.000 A 
ATOM     21  C   UNL     1      46.684   4.491  13.590  0.00  0.00    +0.000 A 
ATOM     22  C   UNL     1      46.290   5.791  13.254  0.00  0.00    +0.000 A 
BRANCH  17  24
ATOM     23  C   UNL     1      45.664   8.293  12.885  0.00  0.00    +0.000 C 
ATOM     24  O   UNL     1      45.066   7.342  12.012  0.00  0.00    +0.000 OA
ENDBRANCH  17  24
BRANCH  19  25
ATOM     25  O   UNL     1      44.676   2.554  11.265  0.00  0.00    +0.000 OA
ATOM     26  H   UNL     1      44.154   2.851  10.501  0.00  0.00    +0.000 HD
ENDBRANCH  19  25
ENDBRANCH  16  21
ENDBRANCH  15  16
ENDBRANCH   1  15
TORSDOF 7
ENDMDL
MODEL 8
REMARK VINA RESULT:    -6.040      5.817      8.308
REMARK INTER + INTRA:          -9.219
REMARK INTER:                  -8.539
REMARK INTRA:                  -0.679
REMARK UNBOUND:                -0.883
REMARK  Name = 
REMARK  10 active torsions:
REMARK  status: ('A' for Active; 'I' for Inactive)
REMARK    1  A    between atoms: C_1  and  O_2
REMARK    2  A    between atoms: O_2  and  C_3
REMARK    3  A    between atoms: C_5  and  O_6
REMARK    4  A    between atoms: C_8  and  O_9
REMARK    5  A    between atoms: O_9  and  C_10
REMARK    6  A    between atoms: C_10  and  C_11
REMARK    7  A    between atoms: C_11  and  C_12
REMARK    8  A    between atoms: C_11  and  C_13
REMARK    9  A    between atoms: C_11  and  C_14
REMARK   10  A    between atoms: C_17  and  C_18
REMARK                            x       y       z     vdW  Elec       q    Type
REMARK                         _______ _______ _______ _____ _____    ______ ____
ROOT
ATOM      1  C   UNL     1      48.195   4.211  17.197  0.00  0.00    +0.000 C 
ATOM      2  C   UNL     1      48.156   5.356  18.239  0.00  0.00    +0.000 C 
ATOM      3  C   UNL     1      47.014   3.253  17.467  0.00  0.00    +0.000 C 
ENDROOT
BRANCH   1   4
ATOM      4  C   UNL     1      49.528   3.456  17.333  0.00  0.00    +0.000 A 
ATOM      5  C   UNL     1      50.690   4.037  17.859  0.00  0.00    +0.000 A 
ATOM      6  C   UNL     1      51.872   3.307  17.956  0.00  0.00    +0.000 A 
ATOM      7  C   UNL     1      51.867   1.991  17.530  0.00  0.00    +0.000 A 
ATOM      8  N   UNL     1      50.771   1.369  17.016  0.00  0.00    +0.000 NA
ATOM      9  C   UNL     1      49.645   2.118  16.930  0.00  0.00    +0.000 A 
BRANCH   7  10
ATOM     10  C   UNL     1      53.120   1.181  17.635  0.00  0.00    +0.000 C 
ATOM     11  N   UNL     1      52.965  -0.076  18.156  0.00  0.00    +0.000 N 
ATOM     12  O   UNL     1      54.218   1.601  17.286  0.00  0.00    +0.000 OA
ATOM     13  H   UNL     1      52.042  -0.389  18.432  0.00  0.00    +0.000 HD
ATOM     14  H   UNL     1      53.770  -0.675  18.257  0.00  0.00    +0.000 HD
ENDBRANCH   7  10
ENDBRANCH   1   4
BRANCH   1  15
ATOM     15  C   UNL     1      47.977   4.880  15.806  0.00  0.00    +0.000 C 
BRANCH  15  16
ATOM     16  O   UNL     1      47.396   3.962  14.872  0.00  0.00    +0.000 OA
BRANCH  16  21
ATOM     17  C   UNL     1      45.321   4.054  11.878  0.00  0.00    +0.000 A 
ATOM     18  C   UNL     1      45.339   5.407  11.542  0.00  0.00    +0.000 A 
ATOM     19  C   UNL     1      46.077   6.293  12.323  0.00  0.00    +0.000 A 
ATOM     20  C   UNL     1      46.790   5.858  13.435  0.00  0.00    +0.000 A 
ATOM     21  C   UNL     1      46.766   4.512  13.787  0.00  0.00    +0.000 A 
ATOM     22  C   UNL     1      46.037   3.615  12.999  0.00  0.00    +0.000 A 
BRANCH  17  24
ATOM     23  C   UNL     1      43.289   2.855  11.564  0.00  0.00    +0.000 C 
ATOM     24  O   UNL     1      44.648   3.072  11.203  0.00  0.00    +0.000 OA
ENDBRANCH  17  24
BRANCH  19  25
ATOM     25  O   UNL     1      46.128   7.627  12.033  0.00  0.00    +0.000 OA
ATOM     26  H   UNL     1      46.838   7.782  11.388  0.00  0.00    +0.000 HD
ENDBRANCH  19  25
ENDBRANCH  16  21
ENDBRANCH  15  16
ENDBRANCH   1  15
TORSDOF 7
ENDMDL
MODEL 9
REMARK VINA RESULT:    -6.002      3.841      6.237
REMARK INTER + INTRA:          -9.166
REMARK INTER:                  -8.368
REMARK INTRA:                  -0.798
REMARK UNBOUND:                -0.883
REMARK  Name = 
REMARK  10 active torsions:
REMARK  status: ('A' for Active; 'I' for Inactive)
REMARK    1  A    between atoms: C_1  and  O_2
REMARK    2  A    between atoms: O_2  and  C_3
REMARK    3  A    between atoms: C_5  and  O_6
REMARK    4  A    between atoms: C_8  and  O_9
REMARK    5  A    between atoms: O_9  and  C_10
REMARK    6  A    between atoms: C_10  and  C_11
REMARK    7  A    between atoms: C_11  and  C_12
REMARK    8  A    between atoms: C_11  and  C_13
REMARK    9  A    between atoms: C_11  and  C_14
REMARK   10  A    between atoms: C_17  and  C_18
REMARK                            x       y       z     vdW  Elec       q    Type
REMARK                         _______ _______ _______ _____ _____    ______ ____
ROOT
ATOM      1  C   UNL     1      48.246   7.899  12.918  0.00  0.00    +0.000 C 
ATOM      2  C   UNL     1      48.113   9.422  12.677  0.00  0.00    +0.000 C 
ATOM      3  C   UNL     1      49.420   7.362  12.071  0.00  0.00    +0.000 C 
ENDROOT
BRANCH   1   4
ATOM      4  C   UNL     1      46.935   7.210  12.501  0.00  0.00    +0.000 A 
ATOM      5  C   UNL     1      46.762   5.819  12.515  0.00  0.00    +0.000 A 
ATOM      6  C   UNL     1      45.553   5.247  12.123  0.00  0.00    +0.000 A 
ATOM      7  C   UNL     1      44.526   6.087  11.732  0.00  0.00    +0.000 A 
ATOM      8  N   UNL     1      44.632   7.444  11.702  0.00  0.00    +0.000 NA
ATOM      9  C   UNL     1      45.827   7.958  12.081  0.00  0.00    +0.000 A 
BRANCH   7  10
ATOM     10  C   UNL     1      43.214   5.500  11.318  0.00  0.00    +0.000 C 
ATOM     11  N   UNL     1      42.106   6.206  11.706  0.00  0.00    +0.000 N 
ATOM     12  O   UNL     1      43.121   4.457  10.681  0.00  0.00    +0.000 OA
ATOM     13  H   UNL     1      42.223   7.065  12.231  0.00  0.00    +0.000 HD
ATOM     14  H   UNL     1      41.189   5.864  11.462  0.00  0.00    +0.000 HD
ENDBRANCH   7  10
ENDBRANCH   1   4
BRANCH   1  15
ATOM     15  C   UNL     1      48.607   7.726  14.425  0.00  0.00    +0.000 C 
BRANCH  15  16
ATOM     16  O   UNL     1      48.919   6.362  14.733  0.00  0.00    +0.000 OA
BRANCH  16  21
ATOM     17  C   UNL     1      48.306   6.306  18.324  0.00  0.00    +0.000 A 
ATOM     18  C   UNL     1      47.553   5.143  18.481  0.00  0.00    +0.000 A 
ATOM     19  C   UNL     1      47.270   4.359  17.366  0.00  0.00    +0.000 A 
ATOM     20  C   UNL     1      47.713   4.716  16.097  0.00  0.00    +0.000 A 
ATOM     21  C   UNL     1      48.452   5.883  15.928  0.00  0.00    +0.000 A 
ATOM     22  C   UNL     1      48.752   6.668  17.047  0.00  0.00    +0.000 A 
BRANCH  17  24
ATOM     23  C   UNL     1      49.823   7.965  19.106  0.00  0.00    +0.000 C 
ATOM     24  O   UNL     1      48.666   7.166  19.325  0.00  0.00    +0.000 OA
ENDBRANCH  17  24
BRANCH  19  25
ATOM     25  O   UNL     1      46.539   3.209  17.469  0.00  0.00    +0.000 OA
ATOM     26  H   UNL     1      46.741   2.638  16.709  0.00  0.00    +0.000 HD
ENDBRANCH  19  25
ENDBRANCH  16  21
ENDBRANCH  15  16
ENDBRANCH   1  15
TORSDOF 7
ENDMDL
