MODEL 1
REMARK VINA RESULT:    -8.064      0.000      0.000
REMARK INTER + INTRA:         -11.401
REMARK INTER:                 -10.892
REMARK INTRA:                  -0.509
REMARK UNBOUND:                -0.509
REMARK  Name = 
REMARK  9 active torsions:
REMARK  status: ('A' for Active; 'I' for Inactive)
REMARK    1  A    between atoms: C_1  and  C_2
REMARK    2  A    between atoms: C_2  and  C_3
REMARK    3  A    between atoms: C_2  and  O_4
REMARK    4  A    between atoms: C_2  and  C_5
REMARK    5  A    between atoms: N_7  and  C_8
REMARK    6  A    between atoms: C_8  and  C_9
REMARK    7  A    between atoms: C_12  and  C_13
REMARK    8  A    between atoms: C_13  and  C_14
REMARK    9  A    between atoms: C_14  and  N_15
REMARK                            x       y       z     vdW  Elec       q    Type
REMARK                         _______ _______ _______ _____ _____    ______ ____
ROOT
ATOM      1  C   UNL     1      45.839   7.286  12.233  0.00  0.00    +0.000 A 
ATOM      2  C   UNL     1      44.897   6.941  11.280  0.00  0.00    +0.000 A 
ATOM      3  N   UNL     1      44.734   5.581  11.279  0.00  0.00    +0.000 N 
ATOM      4  C   UNL     1      45.534   5.012  12.248  0.00  0.00    +0.000 A 
ATOM      5  C   UNL     1      45.694   3.671  12.637  0.00  0.00    +0.000 A 
ATOM      6  C   UNL     1      46.602   3.378  13.657  0.00  0.00    +0.000 A 
ATOM      7  C   UNL     1      47.339   4.387  14.263  0.00  0.00    +0.000 A 
ATOM      8  C   UNL     1      47.175   5.719  13.867  0.00  0.00    +0.000 A 
ATOM      9  C   UNL     1      46.253   6.052  12.848  0.00  0.00    +0.000 A 
ENDROOT
BRANCH   1  11
ATOM     10  C   UNL     1      45.342   9.746  11.995  0.00  0.00    +0.000 C 
ATOM     11  C   UNL     1      46.313   8.693  12.542  0.00  0.00    +0.000 C 
ATOM     12  C   UNL     1      47.732   8.936  12.014  0.00  0.00    +0.000 C 
BRANCH  11  13
ATOM     13  O   UNL     1      46.372   8.893  13.968  0.00  0.00    +0.000 OA
ATOM     14  H   UNL     1      45.980   8.114  14.390  0.00  0.00    +0.000 HD
ENDBRANCH  11  13
ENDBRANCH   1  11
BRANCH   3  15
ATOM     15  C   UNL     1      43.812   4.867  10.401  0.00  0.00    +0.000 C 
BRANCH  15  16
ATOM     16  C   UNL     1      44.561   3.944   9.476  0.00  0.00    +0.000 A 
ATOM     17  N   UNL     1      44.413   2.613   9.648  0.00  0.00    +0.000 NA
ATOM     18  C   UNL     1      45.191   1.816   8.887  0.00  0.00    +0.000 A 
ATOM     19  C   UNL     1      46.094   2.285   7.955  0.00  0.00    +0.000 A 
ATOM     20  C   UNL     1      46.116   3.656   7.813  0.00  0.00    +0.000 A 
ATOM     21  N   UNL     1      45.365   4.501   8.546  0.00  0.00    +0.000 NA
BRANCH  19  22
ATOM     22  C   UNL     1      47.001   1.381   7.178  0.00  0.00    +0.000 C 
BRANCH  22  23
ATOM     23  C   UNL     1      48.287   2.070   6.713  0.00  0.00    +0.000 C 
BRANCH  23  24
ATOM     24  N   UNL     1      48.383   2.046   5.255  0.00  0.00    +0.000 NA
ATOM     25  H   UNL     1      47.566   1.585   4.858  0.00  0.00    +0.000 HD
ATOM     26  H   UNL     1      49.188   1.484   4.976  0.00  0.00    +0.000 HD
ENDBRANCH  23  24
ENDBRANCH  22  23
ENDBRANCH  19  22
ENDBRANCH  15  16
ENDBRANCH   3  15
TORSDOF 7
ENDMDL
MODEL 2
REMARK VINA RESULT:    -7.405      0.992      3.048
REMARK INTER + INTRA:         -10.511
REMARK INTER:                  -9.995
REMARK INTRA:                  -0.516
REMARK UNBOUND:                -0.509
REMARK  Name = 
REMARK  9 active torsions:
REMARK  status: ('A' for Active; 'I' for Inactive)
REMARK    1  A    between atoms: C_1  and  C_2
REMARK    2  A    between atoms: C_2  and  C_3
REMARK    3  A    between atoms: C_2  and  O_4
REMARK    4  A    between atoms: C_2  and  C_5
REMARK    5  A    between atoms: N_7  and  C_8
REMARK    6  A    between atoms: C_8  and  C_9
REMARK    7  A    between atoms: C_12  and  C_13
REMARK    8  A    between atoms: C_13  and  C_14
REMARK    9  A    between atoms: C_14  and  N_15
REMARK                            x       y       z     vdW  Elec       q    Type
REMARK                         _______ _______ _______ _____ _____    ______ ____
ROOT
ATOM      1  C   UNL     1      46.264   6.572  12.702  0.00  0.00    +0.000 A 
ATOM      2  C   UNL     1      45.581   5.511  12.133  0.00  0.00    +0.000 A 
ATOM      3  N   UNL     1      44.532   5.994  11.395  0.00  0.00    +0.000 N 
ATOM      4  C   UNL     1      44.525   7.372  11.436  0.00  0.00    +0.000 A 
ATOM      5  C   UNL     1      43.670   8.306  10.826  0.00  0.00    +0.000 A 
ATOM      6  C   UNL     1      43.893   9.665  11.060  0.00  0.00    +0.000 A 
ATOM      7  C   UNL     1      44.928  10.082  11.886  0.00  0.00    +0.000 A 
ATOM      8  C   UNL     1      45.773   9.146  12.491  0.00  0.00    +0.000 A 
ATOM      9  C   UNL     1      45.585   7.763  12.264  0.00  0.00    +0.000 A 
ENDROOT
BRANCH   1  11
ATOM     10  C   UNL     1      48.780   6.682  12.817  0.00  0.00    +0.000 C 
ATOM     11  C   UNL     1      47.480   6.462  13.600  0.00  0.00    +0.000 C 
ATOM     12  C   UNL     1      47.512   5.120  14.342  0.00  0.00    +0.000 C 
BRANCH  11  13
ATOM     13  O   UNL     1      47.438   7.485  14.616  0.00  0.00    +0.000 OA
ATOM     14  H   UNL     1      47.970   7.175  15.365  0.00  0.00    +0.000 HD
ENDBRANCH  11  13
ENDBRANCH   1  11
BRANCH   3  15
ATOM     15  C   UNL     1      43.600   5.154  10.650  0.00  0.00    +0.000 C 
BRANCH  15  16
ATOM     16  C   UNL     1      44.339   4.229   9.719  0.00  0.00    +0.000 A 
ATOM     17  N   UNL     1      44.150   2.900   9.859  0.00  0.00    +0.000 NA
ATOM     18  C   UNL     1      44.919   2.097   9.096  0.00  0.00    +0.000 A 
ATOM     19  C   UNL     1      45.853   2.559   8.192  0.00  0.00    +0.000 A 
ATOM     20  C   UNL     1      45.918   3.931   8.080  0.00  0.00    +0.000 A 
ATOM     21  N   UNL     1      45.177   4.782   8.817  0.00  0.00    +0.000 NA
BRANCH  19  22
ATOM     22  C   UNL     1      46.748   1.645   7.413  0.00  0.00    +0.000 C 
BRANCH  22  23
ATOM     23  C   UNL     1      47.170   2.223   6.059  0.00  0.00    +0.000 C 
BRANCH  23  24
ATOM     24  N   UNL     1      48.532   1.809   5.726  0.00  0.00    +0.000 NA
ATOM     25  H   UNL     1      49.206   2.398   6.214  0.00  0.00    +0.000 HD
ATOM     26  H   UNL     1      48.699   1.956   4.730  0.00  0.00    +0.000 HD
ENDBRANCH  23  24
ENDBRANCH  22  23
ENDBRANCH  19  22
ENDBRANCH  15  16
ENDBRANCH   3  15
TORSDOF 7
ENDMDL
MODEL 3
REMARK VINA RESULT:    -7.103      0.971      1.543
REMARK INTER + INTRA:         -10.104
REMARK INTER:                  -9.794
REMARK INTRA:                  -0.310
REMARK UNBOUND:                -0.509
REMARK  Name = 
REMARK  9 active torsions:
REMARK  status: ('A' for Active; 'I' for Inactive)
REMARK    1  A    between atoms: C_1  and  C_2
REMARK    2  A    between atoms: C_2  and  C_3
REMARK    3  A    between atoms: C_2  and  O_4
REMARK    4  A    between atoms: C_2  and  C_5
REMARK    5  A    between atoms: N_7  and  C_8
REMARK    6  A    between atoms: C_8  and  C_9
REMARK    7  A    between atoms: C_12  and  C_13
REMARK    8  A    between atoms: C_13  and  C_14
REMARK    9  A    between atoms: C_14  and  N_15
REMARK                            x       y       z     vdW  Elec       q    Type
REMARK                         _______ _______ _______ _____ _____    ______ ____
ROOT
ATOM      1  C   UNL     1      44.890   7.983  11.681  0.00  0.00    +0.000 A 
ATOM      2  C   UNL     1      44.034   7.193  10.934  0.00  0.00    +0.000 A 
ATOM      3  N   UNL     1      44.324   5.874  11.162  0.00  0.00    +0.000 N 
ATOM      4  C   UNL     1      45.346   5.770  12.082  0.00  0.00    +0.000 A 
ATOM      5  C   UNL     1      45.969   4.642  12.642  0.00  0.00    +0.000 A 
ATOM      6  C   UNL     1      47.007   4.839  13.555  0.00  0.00    +0.000 A 
ATOM      7  C   UNL     1      47.424   6.121  13.890  0.00  0.00    +0.000 A 
ATOM      8  C   UNL     1      46.800   7.239  13.325  0.00  0.00    +0.000 A 
ATOM      9  C   UNL     1      45.736   7.075  12.410  0.00  0.00    +0.000 A 
ENDROOT
BRANCH   1  11
ATOM     10  C   UNL     1      44.140  10.085  10.508  0.00  0.00    +0.000 C 
ATOM     11  C   UNL     1      44.903   9.499  11.703  0.00  0.00    +0.000 C 
ATOM     12  C   UNL     1      46.334  10.048  11.756  0.00  0.00    +0.000 C 
BRANCH  11  13
ATOM     13  O   UNL     1      44.239   9.982  12.887  0.00  0.00    +0.000 OA
ATOM     14  H   UNL     1      43.385  10.351  12.614  0.00  0.00    +0.000 HD
ENDBRANCH  11  13
ENDBRANCH   1  11
BRANCH   3  15
ATOM     15  C   UNL     1      43.614   4.759  10.542  0.00  0.00    +0.000 C 
BRANCH  15  16
ATOM     16  C   UNL     1      44.542   3.949   9.676  0.00  0.00    +0.000 A 
ATOM     17  N   UNL     1      45.334   4.605   8.802  0.00  0.00    +0.000 NA
ATOM     18  C   UNL     1      46.060   3.846   7.957  0.00  0.00    +0.000 A 
ATOM     19  C   UNL     1      46.043   2.466   7.954  0.00  0.00    +0.000 A 
ATOM     20  C   UNL     1      45.252   1.897   8.930  0.00  0.00    +0.000 A 
ATOM     21  N   UNL     1      44.504   2.605   9.799  0.00  0.00    +0.000 NA
BRANCH  19  22
ATOM     22  C   UNL     1      46.800   1.648   6.953  0.00  0.00    +0.000 C 
BRANCH  22  23
ATOM     23  C   UNL     1      48.160   2.251   6.587  0.00  0.00    +0.000 C 
BRANCH  23  24
ATOM     24  N   UNL     1      48.143   2.760   5.216  0.00  0.00    +0.000 NA
ATOM     25  H   UNL     1      48.338   3.760   5.213  0.00  0.00    +0.000 HD
ATOM     26  H   UNL     1      47.207   2.654   4.825  0.00  0.00    +0.000 HD
ENDBRANCH  23  24
ENDBRANCH  22  23
ENDBRANCH  19  22
ENDBRANCH  15  16
ENDBRANCH   3  15
TORSDOF 7
ENDMDL
MODEL 4
REMARK VINA RESULT:    -5.984      3.077      6.536
REMARK INTER + INTRA:          -8.592
REMARK INTER:                  -8.144
REMARK INTRA:                  -0.448
REMARK UNBOUND:                -0.509
REMARK  Name = 
REMARK  9 active torsions:
REMARK  status: ('A' for Active; 'I' for Inactive)
REMARK    1  A    between atoms: C_1  and  C_2
REMARK    2  A    between atoms: C_2  and  C_3
REMARK    3  A    between atoms: C_2  and  O_4
REMARK    4  A    between atoms: C_2  and  C_5
REMARK    5  A    between atoms: N_7  and  C_8
REMARK    6  A    between atoms: C_8  and  C_9
REMARK    7  A    between atoms: C_12  and  C_13
REMARK    8  A    between atoms: C_13  and  C_14
REMARK    9  A    between atoms: C_14  and  N_15
REMARK                            x       y       z     vdW  Elec       q    Type
REMARK                         _______ _______ _______ _____ _____    ______ ____
ROOT
ATOM      1  C   UNL     1      45.255   4.312   9.454  0.00  0.00    +0.000 A 
ATOM      2  C   UNL     1      45.692   5.621   9.560  0.00  0.00    +0.000 A 
ATOM      3  N   UNL     1      45.297   6.133  10.767  0.00  0.00    +0.000 N 
ATOM      4  C   UNL     1      44.628   5.167  11.490  0.00  0.00    +0.000 A 
ATOM      5  C   UNL     1      44.060   5.208  12.775  0.00  0.00    +0.000 A 
ATOM      6  C   UNL     1      43.418   4.065  13.255  0.00  0.00    +0.000 A 
ATOM      7  C   UNL     1      43.330   2.919  12.476  0.00  0.00    +0.000 A 
ATOM      8  C   UNL     1      43.896   2.888  11.196  0.00  0.00    +0.000 A 
ATOM      9  C   UNL     1      44.567   4.022  10.685  0.00  0.00    +0.000 A 
ENDROOT
BRANCH   1  11
ATOM     10  C   UNL     1      45.768   1.958   8.711  0.00  0.00    +0.000 C 
ATOM     11  C   UNL     1      45.476   3.397   8.266  0.00  0.00    +0.000 C 
ATOM     12  C   UNL     1      46.593   3.921   7.354  0.00  0.00    +0.000 C 
BRANCH  11  13
ATOM     13  O   UNL     1      44.285   3.340   7.457  0.00  0.00    +0.000 OA
ATOM     14  H   UNL     1      43.813   4.180   7.571  0.00  0.00    +0.000 HD
ENDBRANCH  11  13
ENDBRANCH   1  11
BRANCH   3  15
ATOM     15  C   UNL     1      45.592   7.489  11.218  0.00  0.00    +0.000 C 
BRANCH  15  16
ATOM     16  C   UNL     1      46.749   7.493  12.182  0.00  0.00    +0.000 A 
ATOM     17  N   UNL     1      47.847   6.775  11.863  0.00  0.00    +0.000 NA
ATOM     18  C   UNL     1      48.812   6.699  12.801  0.00  0.00    +0.000 A 
ATOM     19  C   UNL     1      48.739   7.317  14.032  0.00  0.00    +0.000 A 
ATOM     20  C   UNL     1      47.607   8.079  14.229  0.00  0.00    +0.000 A 
ATOM     21  N   UNL     1      46.609   8.190  13.330  0.00  0.00    +0.000 NA
BRANCH  19  22
ATOM     22  C   UNL     1      49.792   7.153  15.085  0.00  0.00    +0.000 C 
BRANCH  22  23
ATOM     23  C   UNL     1      49.256   6.537  16.382  0.00  0.00    +0.000 C 
BRANCH  23  24
ATOM     24  N   UNL     1      48.867   5.144  16.166  0.00  0.00    +0.000 NA
ATOM     25  H   UNL     1      49.063   4.871  15.203  0.00  0.00    +0.000 HD
ATOM     26  H   UNL     1      47.858   5.050  16.285  0.00  0.00    +0.000 HD
ENDBRANCH  23  24
ENDBRANCH  22  23
ENDBRANCH  19  22
ENDBRANCH  15  16
ENDBRANCH   3  15
TORSDOF 7
ENDMDL
MODEL 5
REMARK VINA RESULT:    -5.974      2.066      3.943
REMARK INTER + INTRA:          -8.579
REMARK INTER:                  -8.377
REMARK INTRA:                  -0.202
REMARK UNBOUND:                -0.509
REMARK  Name = 
REMARK  9 active torsions:
REMARK  status: ('A' for Active; 'I' for Inactive)
REMARK    1  A    between atoms: C_1  and  C_2
REMARK    2  A    between atoms: C_2  and  C_3
REMARK    3  A    between atoms: C_2  and  O_4
REMARK    4  A    between atoms: C_2  and  C_5
REMARK    5  A    between atoms: N_7  and  C_8
REMARK    6  A    between atoms: C_8  and  C_9
REMARK    7  A    between atoms: C_12  and  C_13
REMARK    8  A    between atoms: C_13  and  C_14
REMARK    9  A    between atoms: C_14  and  N_15
REMARK                            x       y       z     vdW  Elec       q    Type
REMARK                         _______ _______ _______ _____ _____    ______ ____
ROOT
ATOM      1  C   UNL     1      47.327   5.073  14.917  0.00  0.00    +0.000 A 
ATOM      2  C   UNL     1      46.144   4.729  14.287  0.00  0.00    +0.000 A 
ATOM      3  N   UNL     1      45.920   5.591  13.246  0.00  0.00    +0.000 N 
ATOM      4  C   UNL     1      46.961   6.491  13.150  0.00  0.00    +0.000 A 
ATOM      5  C   UNL     1      47.190   7.537  12.241  0.00  0.00    +0.000 A 
ATOM      6  C   UNL     1      48.343   8.311  12.394  0.00  0.00    +0.000 A 
ATOM      7  C   UNL     1      49.234   8.060  13.430  0.00  0.00    +0.000 A 
ATOM      8  C   UNL     1      48.996   7.018  14.332  0.00  0.00    +0.000 A 
ATOM      9  C   UNL     1      47.847   6.205  14.196  0.00  0.00    +0.000 A 
ENDROOT
BRANCH   1  11
ATOM     10  C   UNL     1      48.014   2.858  15.906  0.00  0.00    +0.000 C 
ATOM     11  C   UNL     1      47.924   4.374  16.123  0.00  0.00    +0.000 C 
ATOM     12  C   UNL     1      47.143   4.694  17.403  0.00  0.00    +0.000 C 
BRANCH  11  13
ATOM     13  O   UNL     1      49.272   4.835  16.344  0.00  0.00    +0.000 OA
ATOM     14  H   UNL     1      49.703   4.203  16.939  0.00  0.00    +0.000 HD
ENDBRANCH  11  13
ENDBRANCH   1  11
BRANCH   3  15
ATOM     15  C   UNL     1      44.764   5.520  12.357  0.00  0.00    +0.000 C 
BRANCH  15  16
ATOM     16  C   UNL     1      45.106   4.774  11.094  0.00  0.00    +0.000 A 
ATOM     17  N   UNL     1      45.607   5.476  10.056  0.00  0.00    +0.000 NA
ATOM     18  C   UNL     1      45.785   4.802   8.901  0.00  0.00    +0.000 A 
ATOM     19  C   UNL     1      45.501   3.462   8.741  0.00  0.00    +0.000 A 
ATOM     20  C   UNL     1      45.057   2.826   9.881  0.00  0.00    +0.000 A 
ATOM     21  N   UNL     1      44.859   3.447  11.060  0.00  0.00    +0.000 NA
BRANCH  19  22
ATOM     22  C   UNL     1      45.634   2.756   7.426  0.00  0.00    +0.000 C 
BRANCH  22  23
ATOM     23  C   UNL     1      46.904   1.905   7.325  0.00  0.00    +0.000 C 
BRANCH  23  24
ATOM     24  N   UNL     1      46.666   0.565   7.858  0.00  0.00    +0.000 NA
ATOM     25  H   UNL     1      47.532   0.178   8.231  0.00  0.00    +0.000 HD
ATOM     26  H   UNL     1      46.382  -0.058   7.102  0.00  0.00    +0.000 HD
ENDBRANCH  23  24
ENDBRANCH  22  23
ENDBRANCH  19  22
ENDBRANCH  15  16
ENDBRANCH   3  15
TORSDOF 7
ENDMDL
MODEL 6
REMARK VINA RESULT:    -5.943      4.055      8.010
REMARK INTER + INTRA:          -8.537
REMARK INTER:                  -8.221
REMARK INTRA:                  -0.316
REMARK UNBOUND:                -0.509
REMARK  Name = 
REMARK  9 active torsions:
REMARK  status: ('A' for Active; 'I' for Inactive)
REMARK    1  A    between atoms: C_1  and  C_2
REMARK    2  A    between atoms: C_2  and  C_3
REMARK    3  A    between atoms: C_2  and  O_4
REMARK    4  A    between atoms: C_2  and  C_5
REMARK    5  A    between atoms: N_7  and  C_8
REMARK    6  A    between atoms: C_8  and  C_9
REMARK    7  A    between atoms: C_12  and  C_13
REMARK    8  A    between atoms: C_13  and  C_14
REMARK    9  A    between atoms: C_14  and  N_15
REMARK                            x       y       z     vdW  Elec       q    Type
REMARK                         _______ _______ _______ _____ _____    ______ ____
ROOT
ATOM      1  C   UNL     1      45.843   5.246  12.607  0.00  0.00    +0.000 A 
ATOM      2  C   UNL     1      47.047   5.217  13.287  0.00  0.00    +0.000 A 
ATOM      3  N   UNL     1      47.542   6.490  13.384  0.00  0.00    +0.000 N 
ATOM      4  C   UNL     1      46.662   7.380  12.805  0.00  0.00    +0.000 A 
ATOM      5  C   UNL     1      46.718   8.779  12.679  0.00  0.00    +0.000 A 
ATOM      6  C   UNL     1      45.674   9.430  12.018  0.00  0.00    +0.000 A 
ATOM      7  C   UNL     1      44.612   8.711  11.487  0.00  0.00    +0.000 A 
ATOM      8  C   UNL     1      44.565   7.318  11.615  0.00  0.00    +0.000 A 
ATOM      9  C   UNL     1      45.598   6.629  12.291  0.00  0.00    +0.000 A 
ENDROOT
BRANCH   1  11
ATOM     10  C   UNL     1      44.834   3.849  10.767  0.00  0.00    +0.000 C 
ATOM     11  C   UNL     1      44.980   4.043  12.281  0.00  0.00    +0.000 C 
ATOM     12  C   UNL     1      43.604   4.139  12.952  0.00  0.00    +0.000 C 
BRANCH  11  13
ATOM     13  O   UNL     1      45.595   2.842  12.788  0.00  0.00    +0.000 OA
ATOM     14  H   UNL     1      46.091   2.437  12.060  0.00  0.00    +0.000 HD
ENDBRANCH  11  13
ENDBRANCH   1  11
BRANCH   3  15
ATOM     15  C   UNL     1      48.797   6.834  14.046  0.00  0.00    +0.000 C 
BRANCH  15  16
ATOM     16  C   UNL     1      48.718   6.551  15.523  0.00  0.00    +0.000 A 
ATOM     17  N   UNL     1      48.590   5.268  15.920  0.00  0.00    +0.000 NA
ATOM     18  C   UNL     1      48.397   5.060  17.238  0.00  0.00    +0.000 A 
ATOM     19  C   UNL     1      48.341   6.070  18.176  0.00  0.00    +0.000 A 
ATOM     20  C   UNL     1      48.550   7.336  17.674  0.00  0.00    +0.000 A 
ATOM     21  N   UNL     1      48.746   7.605  16.368  0.00  0.00    +0.000 NA
BRANCH  19  22
ATOM     22  C   UNL     1      48.048   5.816  19.623  0.00  0.00    +0.000 C 
BRANCH  22  23
ATOM     23  C   UNL     1      49.020   4.825  20.271  0.00  0.00    +0.000 C 
BRANCH  23  24
ATOM     24  N   UNL     1      48.355   3.550  20.533  0.00  0.00    +0.000 NA
ATOM     25  H   UNL     1      48.842   3.047  21.273  0.00  0.00    +0.000 HD
ATOM     26  H   UNL     1      48.413   2.959  19.704  0.00  0.00    +0.000 HD
ENDBRANCH  23  24
ENDBRANCH  22  23
ENDBRANCH  19  22
ENDBRANCH  15  16
ENDBRANCH   3  15
TORSDOF 7
ENDMDL
MODEL 7
REMARK VINA RESULT:    -5.690      3.561      6.643
REMARK INTER + INTRA:          -8.194
REMARK INTER:                  -7.640
REMARK INTRA:                  -0.554
REMARK UNBOUND:                -0.509
REMARK  Name = 
REMARK  9 active torsions:
REMARK  status: ('A' for Active; 'I' for Inactive)
REMARK    1  A    between atoms: C_1  and  C_2
REMARK    2  A    between atoms: C_2  and  C_3
REMARK    3  A    between atoms: C_2  and  O_4
REMARK    4  A    between atoms: C_2  and  C_5
REMARK    5  A    between atoms: N_7  and  C_8
REMARK    6  A    between atoms: C_8  and  C_9
REMARK    7  A    between atoms: C_12  and  C_13
REMARK    8  A    between atoms: C_13  and  C_14
REMARK    9  A    between atoms: C_14  and  N_15
REMARK                            x       y       z     vdW  Elec       q    Type
REMARK                         _______ _______ _______ _____ _____    ______ ____
ROOT
ATOM      1  C   UNL     1      45.358   8.238  11.888  0.00  0.00    +0.000 A 
ATOM      2  C   UNL     1      46.629   7.842  12.267  0.00  0.00    +0.000 A 
ATOM      3  N   UNL     1      46.676   6.475  12.328  0.00  0.00    +0.000 N 
ATOM      4  C   UNL     1      45.457   5.946  11.960  0.00  0.00    +0.000 A 
ATOM      5  C   UNL     1      45.029   4.612  11.848  0.00  0.00    +0.000 A 
ATOM      6  C   UNL     1      43.709   4.367  11.462  0.00  0.00    +0.000 A 
ATOM      7  C   UNL     1      42.837   5.417  11.209  0.00  0.00    +0.000 A 
ATOM      8  C   UNL     1      43.271   6.743  11.326  0.00  0.00    +0.000 A 
ATOM      9  C   UNL     1      44.604   7.026  11.699  0.00  0.00    +0.000 A 
ENDROOT
BRANCH   1  11
ATOM     10  C   UNL     1      44.009   9.827  10.470  0.00  0.00    +0.000 C 
ATOM     11  C   UNL     1      44.891   9.669  11.715  0.00  0.00    +0.000 C 
ATOM     12  C   UNL     1      46.073  10.645  11.671  0.00  0.00    +0.000 C 
BRANCH  11  13
ATOM     13  O   UNL     1      44.081  10.064  12.840  0.00  0.00    +0.000 OA
ATOM     14  H   UNL     1      43.952   9.282  13.397  0.00  0.00    +0.000 HD
ENDBRANCH  11  13
ENDBRANCH   1  11
BRANCH   3  15
ATOM     15  C   UNL     1      47.866   5.711  12.690  0.00  0.00    +0.000 C 
BRANCH  15  16
ATOM     16  C   UNL     1      47.903   5.448  14.173  0.00  0.00    +0.000 A 
ATOM     17  N   UNL     1      48.573   6.318  14.958  0.00  0.00    +0.000 NA
ATOM     18  C   UNL     1      48.692   5.988  16.260  0.00  0.00    +0.000 A 
ATOM     19  C   UNL     1      48.161   4.842  16.815  0.00  0.00    +0.000 A 
ATOM     20  C   UNL     1      47.439   4.058  15.940  0.00  0.00    +0.000 A 
ATOM     21  N   UNL     1      47.288   4.336  14.630  0.00  0.00    +0.000 NA
BRANCH  19  22
ATOM     22  C   UNL     1      48.373   4.461  18.248  0.00  0.00    +0.000 C 
BRANCH  22  23
ATOM     23  C   UNL     1      47.738   5.446  19.234  0.00  0.00    +0.000 C 
BRANCH  23  24
ATOM     24  N   UNL     1      46.310   5.597  18.961  0.00  0.00    +0.000 NA
ATOM     25  H   UNL     1      45.764   5.227  19.738  0.00  0.00    +0.000 HD
ATOM     26  H   UNL     1      46.058   5.036  18.147  0.00  0.00    +0.000 HD
ENDBRANCH  23  24
ENDBRANCH  22  23
ENDBRANCH  19  22
ENDBRANCH  15  16
ENDBRANCH   3  15
TORSDOF 7
ENDMDL
MODEL 8
REMARK VINA RESULT:    -5.584      3.837      7.119
REMARK INTER + INTRA:          -8.052
REMARK INTER:                  -7.621
REMARK INTRA:                  -0.432
REMARK UNBOUND:                -0.509
REMARK  Name = 
REMARK  9 active torsions:
REMARK  status: ('A' for Active; 'I' for Inactive)
REMARK    1  A    between atoms: C_1  and  C_2
REMARK    2  A    between atoms: C_2  and  C_3
REMARK    3  A    between atoms: C_2  and  O_4
REMARK    4  A    between atoms: C_2  and  C_5
REMARK    5  A    between atoms: N_7  and  C_8
REMARK    6  A    between atoms: C_8  and  C_9
REMARK    7  A    between atoms: C_12  and  C_13
REMARK    8  A    between atoms: C_13  and  C_14
REMARK    9  A    between atoms: C_14  and  N_15
REMARK                            x       y       z     vdW  Elec       q    Type
REMARK                         _______ _______ _______ _____ _____    ______ ____
ROOT
ATOM      1  C   UNL     1      46.813   6.803  13.247  0.00  0.00    +0.000 A 
ATOM      2  C   UNL     1      47.448   5.743  13.871  0.00  0.00    +0.000 A 
ATOM      3  N   UNL     1      46.717   4.601  13.675  0.00  0.00    +0.000 N 
ATOM      4  C   UNL     1      45.614   4.878  12.895  0.00  0.00    +0.000 A 
ATOM      5  C   UNL     1      44.594   4.039  12.414  0.00  0.00    +0.000 A 
ATOM      6  C   UNL     1      43.575   4.605  11.645  0.00  0.00    +0.000 A 
ATOM      7  C   UNL     1      43.561   5.967  11.375  0.00  0.00    +0.000 A 
ATOM      8  C   UNL     1      44.579   6.795  11.861  0.00  0.00    +0.000 A 
ATOM      9  C   UNL     1      45.635   6.252  12.629  0.00  0.00    +0.000 A 
ENDROOT
BRANCH   1  11
ATOM     10  C   UNL     1      47.931   8.611  11.893  0.00  0.00    +0.000 C 
ATOM     11  C   UNL     1      47.292   8.241  13.237  0.00  0.00    +0.000 C 
ATOM     12  C   UNL     1      48.260   8.519  14.394  0.00  0.00    +0.000 C 
BRANCH  11  13
ATOM     13  O   UNL     1      46.177   9.135  13.418  0.00  0.00    +0.000 OA
ATOM     14  H   UNL     1      46.509  10.041  13.321  0.00  0.00    +0.000 HD
ENDBRANCH  11  13
ENDBRANCH   1  11
BRANCH   3  15
ATOM     15  C   UNL     1      47.095   3.289  14.190  0.00  0.00    +0.000 C 
BRANCH  15  16
ATOM     16  C   UNL     1      47.498   3.378  15.639  0.00  0.00    +0.000 A 
ATOM     17  N   UNL     1      46.691   4.054  16.484  0.00  0.00    +0.000 NA
ATOM     18  C   UNL     1      47.142   4.221  17.744  0.00  0.00    +0.000 A 
ATOM     19  C   UNL     1      48.349   3.733  18.200  0.00  0.00    +0.000 A 
ATOM     20  C   UNL     1      49.062   3.001  17.276  0.00  0.00    +0.000 A 
ATOM     21  N   UNL     1      48.664   2.803  16.004  0.00  0.00    +0.000 NA
BRANCH  19  22
ATOM     22  C   UNL     1      48.860   3.999  19.583  0.00  0.00    +0.000 C 
BRANCH  22  23
ATOM     23  C   UNL     1      50.038   4.978  19.613  0.00  0.00    +0.000 C 
BRANCH  23  24
ATOM     24  N   UNL     1      51.278   4.278  19.944  0.00  0.00    +0.000 NA
ATOM     25  H   UNL     1      51.999   4.949  20.205  0.00  0.00    +0.000 HD
ATOM     26  H   UNL     1      51.628   3.795  19.117  0.00  0.00    +0.000 HD
ENDBRANCH  23  24
ENDBRANCH  22  23
ENDBRANCH  19  22
ENDBRANCH  15  16
ENDBRANCH   3  15
TORSDOF 7
ENDMDL
MODEL 9
REMARK VINA RESULT:    -5.459      4.028      6.751
REMARK INTER + INTRA:          -7.883
REMARK INTER:                  -7.357
REMARK INTRA:                  -0.526
REMARK UNBOUND:                -0.509
REMARK  Name = 
REMARK  9 active torsions:
REMARK  status: ('A' for Active; 'I' for Inactive)
REMARK    1  A    between atoms: C_1  and  C_2
REMARK    2  A    between atoms: C_2  and  C_3
REMARK    3  A    between atoms: C_2  and  O_4
REMARK    4  A    between atoms: C_2  and  C_5
REMARK    5  A    between atoms: N_7  and  C_8
REMARK    6  A    between atoms: C_8  and  C_9
REMARK    7  A    between atoms: C_12  and  C_13
REMARK    8  A    between atoms: C_13  and  C_14
REMARK    9  A    between atoms: C_14  and  N_15
REMARK                            x       y       z     vdW  Elec       q    Type
REMARK                         _______ _______ _______ _____ _____    ______ ____
ROOT
ATOM      1  C   UNL     1      48.626   5.891  17.733  0.00  0.00    +0.000 A 
ATOM      2  C   UNL     1      48.661   5.507  16.404  0.00  0.00    +0.000 A 
ATOM      3  N   UNL     1      48.572   6.621  15.611  0.00  0.00    +0.000 N 
ATOM      4  C   UNL     1      48.512   7.753  16.396  0.00  0.00    +0.000 A 
ATOM      5  C   UNL     1      48.436   9.112  16.046  0.00  0.00    +0.000 A 
ATOM      6  C   UNL     1      48.371  10.060  17.070  0.00  0.00    +0.000 A 
ATOM      7  C   UNL     1      48.366   9.667  18.402  0.00  0.00    +0.000 A 
ATOM      8  C   UNL     1      48.439   8.311  18.741  0.00  0.00    +0.000 A 
ATOM      9  C   UNL     1      48.523   7.327  17.730  0.00  0.00    +0.000 A 
ENDROOT
BRANCH   1  11
ATOM     10  C   UNL     1      49.926   5.230  19.790  0.00  0.00    +0.000 C 
ATOM     11  C   UNL     1      48.688   4.958  18.926  0.00  0.00    +0.000 C 
ATOM     12  C   UNL     1      48.641   3.488  18.493  0.00  0.00    +0.000 C 
BRANCH  11  13
ATOM     13  O   UNL     1      47.544   5.166  19.777  0.00  0.00    +0.000 OA
ATOM     14  H   UNL     1      46.751   5.113  19.221  0.00  0.00    +0.000 HD
ENDBRANCH  11  13
ENDBRANCH   1  11
BRANCH   3  15
ATOM     15  C   UNL     1      48.585   6.590  14.152  0.00  0.00    +0.000 C 
BRANCH  15  16
ATOM     16  C   UNL     1      47.295   6.023  13.617  0.00  0.00    +0.000 A 
ATOM     17  N   UNL     1      46.329   6.887  13.239  0.00  0.00    +0.000 NA
ATOM     18  C   UNL     1      45.144   6.348  12.884  0.00  0.00    +0.000 A 
ATOM     19  C   UNL     1      44.887   4.993  12.874  0.00  0.00    +0.000 A 
ATOM     20  C   UNL     1      45.962   4.199  13.213  0.00  0.00    +0.000 A 
ATOM     21  N   UNL     1      47.167   4.680  13.579  0.00  0.00    +0.000 NA
BRANCH  19  22
ATOM     22  C   UNL     1      43.539   4.426  12.550  0.00  0.00    +0.000 C 
BRANCH  22  23
ATOM     23  C   UNL     1      43.547   3.519  11.316  0.00  0.00    +0.000 C 
BRANCH  23  24
ATOM     24  N   UNL     1      43.038   2.191  11.652  0.00  0.00    +0.000 NA
ATOM     25  H   UNL     1      42.325   1.909  10.980  0.00  0.00    +0.000 HD
ATOM     26  H   UNL     1      42.572   2.224  12.559  0.00  0.00    +0.000 HD
ENDBRANCH  23  24
ENDBRANCH  22  23
ENDBRANCH  19  22
ENDBRANCH  15  16
ENDBRANCH   3  15
TORSDOF 7
ENDMDL
