MODEL 1
REMARK VINA RESULT:    -7.299      0.000      0.000
REMARK INTER + INTRA:          -9.042
REMARK INTER:                  -9.005
REMARK INTRA:                  -0.037
REMARK UNBOUND:                -0.037
REMARK  Name = 
REMARK  6 active torsions:
REMARK  status: ('A' for Active; 'I' for Inactive)
REMARK    1  A    between atoms: C_1  and  C_2
REMARK    2  A    between atoms: C_8  and  C_9
REMARK    3  A    between atoms: C_11  and  C_12
REMARK    4  A    between atoms: C_12  and  O_13
REMARK    5  A    between atoms: O_13  and  C_14
REMARK    6  A    between atoms: C_23  and  C_24
REMARK                            x       y       z     vdW  Elec       q    Type
REMARK                         _______ _______ _______ _____ _____    ______ ____
ROOT
ATOM      1  C   UNL     1      49.419   7.049  14.438  0.00  0.00    +0.000 C 
ATOM      2  C   UNL     1      48.629   8.330  14.182  0.00  0.00    +0.000 C 
ATOM      3  C   UNL     1      47.106   8.089  14.069  0.00  0.00    +0.000 C 
ATOM      4  N   UNL     1      46.764   7.656  12.722  0.00  0.00    +0.000 N 
ATOM      5  C   UNL     1      45.992   6.561  12.477  0.00  0.00    +0.000 A 
ATOM      6  N   UNL     1      45.441   5.911  13.512  0.00  0.00    +0.000 NA
ATOM      7  C   UNL     1      44.682   4.831  13.242  0.00  0.00    +0.000 A 
ATOM      8  C   UNL     1      44.459   4.343  11.975  0.00  0.00    +0.000 A 
ATOM      9  C   UNL     1      45.089   5.030  10.959  0.00  0.00    +0.000 A 
ATOM     10  N   UNL     1      45.834   6.142  11.210  0.00  0.00    +0.000 NA
ATOM     11  C   UNL     1      47.236   8.525  11.653  0.00  0.00    +0.000 C 
ATOM     12  C   UNL     1      48.762   8.692  11.766  0.00  0.00    +0.000 C 
ATOM     13  C   UNL     1      49.520   7.471  11.251  0.00  0.00    +0.000 C 
ATOM     14  O   UNL     1      49.181   9.084  13.086  0.00  0.00    +0.000 OA
ENDROOT
BRANCH   8  15
ATOM     15  C   UNL     1      43.654   3.186  11.787  0.00  0.00    +0.000 C 
ATOM     16  N   UNL     1      43.026   2.221  11.638  0.00  0.00    +0.000 NA
ENDBRANCH   8  15
BRANCH   9  17
ATOM     17  C   UNL     1      45.050   4.569   9.515  0.00  0.00    +0.000 C 
BRANCH  17  18
ATOM     18  O   UNL     1      45.275   3.159   9.424  0.00  0.00    +0.000 OA
BRANCH  18  19
ATOM     19  C   UNL     1      46.001   2.824   8.294  0.00  0.00    +0.000 A 
ATOM     20  C   UNL     1      46.210   3.829   7.357  0.00  0.00    +0.000 A 
ATOM     21  C   UNL     1      46.953   3.532   6.213  0.00  0.00    +0.000 A 
ATOM     22  C   UNL     1      47.451   2.247   6.051  0.00  0.00    +0.000 A 
ATOM     23  F   UNL     1      48.173   1.931   4.969  0.00  0.00    +0.000 F 
ATOM     24  C   UNL     1      47.191   1.306   7.029  0.00  0.00    +0.000 A 
ATOM     25  N   UNL     1      46.471   1.565   8.149  0.00  0.00    +0.000 NA
ENDBRANCH  18  19
ENDBRANCH  17  18
ENDBRANCH   9  17
TORSDOF 4
ENDMDL
MODEL 2
REMARK VINA RESULT:    -6.915      2.769      4.224
REMARK INTER + INTRA:          -8.569
REMARK INTER:                  -7.976
REMARK INTRA:                  -0.593
REMARK UNBOUND:                -0.037
REMARK  Name = 
REMARK  6 active torsions:
REMARK  status: ('A' for Active; 'I' for Inactive)
REMARK    1  A    between atoms: C_1  and  C_2
REMARK    2  A    between atoms: C_8  and  C_9
REMARK    3  A    between atoms: C_11  and  C_12
REMARK    4  A    between atoms: C_12  and  O_13
REMARK    5  A    between atoms: O_13  and  C_14
REMARK    6  A    between atoms: C_23  and  C_24
REMARK                            x       y       z     vdW  Elec       q    Type
REMARK                         _______ _______ _______ _____ _____    ______ ____
ROOT
ATOM      1  C   UNL     1      52.167   8.521  13.831  0.00  0.00    +0.000 C 
ATOM      2  C   UNL     1      51.030   9.536  13.739  0.00  0.00    +0.000 C 
ATOM      3  C   UNL     1      49.856   9.216  14.692  0.00  0.00    +0.000 C 
ATOM      4  N   UNL     1      48.972   8.231  14.086  0.00  0.00    +0.000 N 
ATOM      5  C   UNL     1      48.561   7.111  14.744  0.00  0.00    +0.000 A 
ATOM      6  N   UNL     1      48.899   6.954  16.031  0.00  0.00    +0.000 NA
ATOM      7  C   UNL     1      48.481   5.836  16.657  0.00  0.00    +0.000 A 
ATOM      8  C   UNL     1      47.749   4.841  16.051  0.00  0.00    +0.000 A 
ATOM      9  C   UNL     1      47.472   5.043  14.715  0.00  0.00    +0.000 A 
ATOM     10  N   UNL     1      47.859   6.179  14.074  0.00  0.00    +0.000 NA
ATOM     11  C   UNL     1      48.487   8.568  12.755  0.00  0.00    +0.000 C 
ATOM     12  C   UNL     1      49.687   8.822  11.824  0.00  0.00    +0.000 C 
ATOM     13  C   UNL     1      50.353   7.526  11.368  0.00  0.00    +0.000 C 
ATOM     14  O   UNL     1      50.628   9.761  12.375  0.00  0.00    +0.000 OA
ENDROOT
BRANCH   8  15
ATOM     15  C   UNL     1      47.363   3.689  16.789  0.00  0.00    +0.000 C 
ATOM     16  N   UNL     1      47.013   2.760  17.392  0.00  0.00    +0.000 NA
ENDBRANCH   8  15
BRANCH   9  17
ATOM     17  C   UNL     1      46.778   4.002  13.859  0.00  0.00    +0.000 C 
BRANCH  17  18
ATOM     18  O   UNL     1      45.425   4.383  13.589  0.00  0.00    +0.000 OA
BRANCH  18  19
ATOM     19  C   UNL     1      45.125   4.297  12.240  0.00  0.00    +0.000 A 
ATOM     20  C   UNL     1      45.573   5.329  11.426  0.00  0.00    +0.000 A 
ATOM     21  C   UNL     1      45.303   5.267  10.057  0.00  0.00    +0.000 A 
ATOM     22  C   UNL     1      44.595   4.181   9.562  0.00  0.00    +0.000 A 
ATOM     23  F   UNL     1      44.326   4.086   8.255  0.00  0.00    +0.000 F 
ATOM     24  C   UNL     1      44.181   3.200  10.444  0.00  0.00    +0.000 A 
ATOM     25  N   UNL     1      44.426   3.235  11.777  0.00  0.00    +0.000 NA
ENDBRANCH  18  19
ENDBRANCH  17  18
ENDBRANCH   9  17
TORSDOF 4
ENDMDL
MODEL 3
REMARK VINA RESULT:    -6.630      4.234      6.614
REMARK INTER + INTRA:          -8.217
REMARK INTER:                  -7.580
REMARK INTRA:                  -0.637
REMARK UNBOUND:                -0.037
REMARK  Name = 
REMARK  6 active torsions:
REMARK  status: ('A' for Active; 'I' for Inactive)
REMARK    1  A    between atoms: C_1  and  C_2
REMARK    2  A    between atoms: C_8  and  C_9
REMARK    3  A    between atoms: C_11  and  C_12
REMARK    4  A    between atoms: C_12  and  O_13
REMARK    5  A    between atoms: O_13  and  C_14
REMARK    6  A    between atoms: C_23  and  C_24
REMARK                            x       y       z     vdW  Elec       q    Type
REMARK                         _______ _______ _______ _____ _____    ______ ____
ROOT
ATOM      1  C   UNL     1      47.167   5.890  19.876  0.00  0.00    +0.000 C 
ATOM      2  C   UNL     1      48.624   5.448  19.765  0.00  0.00    +0.000 C 
ATOM      3  C   UNL     1      49.435   6.288  18.752  0.00  0.00    +0.000 C 
ATOM      4  N   UNL     1      49.223   5.787  17.401  0.00  0.00    +0.000 N 
ATOM      5  C   UNL     1      48.889   6.602  16.361  0.00  0.00    +0.000 A 
ATOM      6  N   UNL     1      48.852   7.927  16.560  0.00  0.00    +0.000 NA
ATOM      7  C   UNL     1      48.518   8.709  15.515  0.00  0.00    +0.000 A 
ATOM      8  C   UNL     1      48.194   8.231  14.267  0.00  0.00    +0.000 A 
ATOM      9  C   UNL     1      48.209   6.857  14.139  0.00  0.00    +0.000 A 
ATOM     10  N   UNL     1      48.573   6.053  15.175  0.00  0.00    +0.000 NA
ATOM     11  C   UNL     1      49.474   4.365  17.219  0.00  0.00    +0.000 C 
ATOM     12  C   UNL     1      48.605   3.563  18.206  0.00  0.00    +0.000 C 
ATOM     13  C   UNL     1      47.149   3.470  17.756  0.00  0.00    +0.000 C 
ATOM     14  O   UNL     1      48.734   4.026  19.563  0.00  0.00    +0.000 OA
ENDROOT
BRANCH   8  15
ATOM     15  C   UNL     1      47.840   9.132  13.226  0.00  0.00    +0.000 C 
ATOM     16  N   UNL     1      47.551   9.841  12.353  0.00  0.00    +0.000 NA
ENDBRANCH   8  15
BRANCH   9  17
ATOM     17  C   UNL     1      47.768   6.150  12.873  0.00  0.00    +0.000 C 
BRANCH  17  18
ATOM     18  O   UNL     1      47.042   4.956  13.182  0.00  0.00    +0.000 OA
BRANCH  18  19
ATOM     19  C   UNL     1      45.698   5.075  12.870  0.00  0.00    +0.000 A 
ATOM     20  C   UNL     1      45.325   6.160  12.086  0.00  0.00    +0.000 A 
ATOM     21  C   UNL     1      43.980   6.303  11.739  0.00  0.00    +0.000 A 
ATOM     22  C   UNL     1      43.067   5.361  12.190  0.00  0.00    +0.000 A 
ATOM     23  F   UNL     1      41.772   5.464  11.869  0.00  0.00    +0.000 F 
ATOM     24  C   UNL     1      43.522   4.315  12.971  0.00  0.00    +0.000 A 
ATOM     25  N   UNL     1      44.821   4.152  13.327  0.00  0.00    +0.000 NA
ENDBRANCH  18  19
ENDBRANCH  17  18
ENDBRANCH   9  17
TORSDOF 4
ENDMDL
MODEL 4
REMARK VINA RESULT:    -6.571      4.728      6.069
REMARK INTER + INTRA:          -8.145
REMARK INTER:                  -7.473
REMARK INTRA:                  -0.672
REMARK UNBOUND:                -0.037
REMARK  Name = 
REMARK  6 active torsions:
REMARK  status: ('A' for Active; 'I' for Inactive)
REMARK    1  A    between atoms: C_1  and  C_2
REMARK    2  A    between atoms: C_8  and  C_9
REMARK    3  A    between atoms: C_11  and  C_12
REMARK    4  A    between atoms: C_12  and  O_13
REMARK    5  A    between atoms: O_13  and  C_14
REMARK    6  A    between atoms: C_23  and  C_24
REMARK                            x       y       z     vdW  Elec       q    Type
REMARK                         _______ _______ _______ _____ _____    ______ ____
ROOT
ATOM      1  C   UNL     1      49.079  10.883  14.019  0.00  0.00    +0.000 C 
ATOM      2  C   UNL     1      49.671  10.517  12.660  0.00  0.00    +0.000 C 
ATOM      3  C   UNL     1      48.675   9.762  11.750  0.00  0.00    +0.000 C 
ATOM      4  N   UNL     1      48.667   8.344  12.082  0.00  0.00    +0.000 N 
ATOM      5  C   UNL     1      47.517   7.650  12.305  0.00  0.00    +0.000 A 
ATOM      6  N   UNL     1      46.341   8.264  12.114  0.00  0.00    +0.000 NA
ATOM      7  C   UNL     1      45.218   7.554  12.343  0.00  0.00    +0.000 A 
ATOM      8  C   UNL     1      45.207   6.250  12.779  0.00  0.00    +0.000 A 
ATOM      9  C   UNL     1      46.448   5.689  12.998  0.00  0.00    +0.000 A 
ATOM     10  N   UNL     1      47.593   6.381  12.743  0.00  0.00    +0.000 NA
ATOM     11  C   UNL     1      49.972   7.698  12.078  0.00  0.00    +0.000 C 
ATOM     12  C   UNL     1      50.915   8.445  13.039  0.00  0.00    +0.000 C 
ATOM     13  C   UNL     1      50.637   8.110  14.503  0.00  0.00    +0.000 C 
ATOM     14  O   UNL     1      50.947   9.863  12.795  0.00  0.00    +0.000 OA
ENDROOT
BRANCH   8  15
ATOM     15  C   UNL     1      43.971   5.584  13.007  0.00  0.00    +0.000 C 
ATOM     16  N   UNL     1      42.958   5.060  13.223  0.00  0.00    +0.000 NA
ENDBRANCH   8  15
BRANCH   9  17
ATOM     17  C   UNL     1      46.626   4.304  13.587  0.00  0.00    +0.000 C 
BRANCH  17  18
ATOM     18  O   UNL     1      46.322   4.303  14.986  0.00  0.00    +0.000 OA
BRANCH  18  19
ATOM     19  C   UNL     1      47.429   3.983  15.753  0.00  0.00    +0.000 A 
ATOM     20  C   UNL     1      48.010   5.012  16.484  0.00  0.00    +0.000 A 
ATOM     21  C   UNL     1      49.118   4.722  17.283  0.00  0.00    +0.000 A 
ATOM     22  C   UNL     1      49.601   3.422  17.314  0.00  0.00    +0.000 A 
ATOM     23  F   UNL     1      50.656   3.108  18.075  0.00  0.00    +0.000 F 
ATOM     24  C   UNL     1      48.967   2.459  16.551  0.00  0.00    +0.000 A 
ATOM     25  N   UNL     1      47.891   2.712  15.764  0.00  0.00    +0.000 NA
ENDBRANCH  18  19
ENDBRANCH  17  18
ENDBRANCH   9  17
TORSDOF 4
ENDMDL
MODEL 5
REMARK VINA RESULT:    -6.562      4.256      8.214
REMARK INTER + INTRA:          -8.133
REMARK INTER:                  -7.605
REMARK INTRA:                  -0.528
REMARK UNBOUND:                -0.037
REMARK  Name = 
REMARK  6 active torsions:
REMARK  status: ('A' for Active; 'I' for Inactive)
REMARK    1  A    between atoms: C_1  and  C_2
REMARK    2  A    between atoms: C_8  and  C_9
REMARK    3  A    between atoms: C_11  and  C_12
REMARK    4  A    between atoms: C_12  and  O_13
REMARK    5  A    between atoms: O_13  and  C_14
REMARK    6  A    between atoms: C_23  and  C_24
REMARK                            x       y       z     vdW  Elec       q    Type
REMARK                         _______ _______ _______ _____ _____    ______ ____
ROOT
ATOM      1  C   UNL     1      44.529   4.454   9.465  0.00  0.00    +0.000 C 
ATOM      2  C   UNL     1      43.400   4.763  10.446  0.00  0.00    +0.000 C 
ATOM      3  C   UNL     1      43.619   6.080  11.225  0.00  0.00    +0.000 C 
ATOM      4  N   UNL     1      44.493   5.849  12.366  0.00  0.00    +0.000 N 
ATOM      5  C   UNL     1      45.581   6.627  12.627  0.00  0.00    +0.000 A 
ATOM      6  N   UNL     1      45.802   7.709  11.867  0.00  0.00    +0.000 NA
ATOM      7  C   UNL     1      46.885   8.461  12.146  0.00  0.00    +0.000 A 
ATOM      8  C   UNL     1      47.784   8.175  13.146  0.00  0.00    +0.000 A 
ATOM      9  C   UNL     1      47.524   7.025  13.864  0.00  0.00    +0.000 A 
ATOM     10  N   UNL     1      46.419   6.270  13.616  0.00  0.00    +0.000 NA
ATOM     11  C   UNL     1      44.078   4.777  13.259  0.00  0.00    +0.000 C 
ATOM     12  C   UNL     1      43.927   3.472  12.456  0.00  0.00    +0.000 C 
ATOM     13  C   UNL     1      45.273   2.827  12.138  0.00  0.00    +0.000 C 
ATOM     14  O   UNL     1      43.103   3.632  11.286  0.00  0.00    +0.000 OA
ENDROOT
BRANCH   8  15
ATOM     15  C   UNL     1      48.908   9.019  13.360  0.00  0.00    +0.000 C 
ATOM     16  N   UNL     1      49.819   9.708  13.570  0.00  0.00    +0.000 NA
ENDBRANCH   8  15
BRANCH   9  17
ATOM     17  C   UNL     1      48.467   6.493  14.924  0.00  0.00    +0.000 C 
BRANCH  17  18
ATOM     18  O   UNL     1      48.167   5.129  15.235  0.00  0.00    +0.000 OA
BRANCH  18  19
ATOM     19  C   UNL     1      48.284   4.871  16.590  0.00  0.00    +0.000 A 
ATOM     20  C   UNL     1      48.206   3.543  16.990  0.00  0.00    +0.000 A 
ATOM     21  C   UNL     1      48.336   3.244  18.348  0.00  0.00    +0.000 A 
ATOM     22  C   UNL     1      48.535   4.282  19.247  0.00  0.00    +0.000 A 
ATOM     23  F   UNL     1      48.671   4.030  20.554  0.00  0.00    +0.000 F 
ATOM     24  C   UNL     1      48.595   5.576  18.765  0.00  0.00    +0.000 A 
ATOM     25  N   UNL     1      48.469   5.896  17.453  0.00  0.00    +0.000 NA
ENDBRANCH  18  19
ENDBRANCH  17  18
ENDBRANCH   9  17
TORSDOF 4
ENDMDL
MODEL 6
REMARK VINA RESULT:    -6.317      3.979      7.036
REMARK INTER + INTRA:          -7.831
REMARK INTER:                  -7.420
REMARK INTRA:                  -0.411
REMARK UNBOUND:                -0.037
REMARK  Name = 
REMARK  6 active torsions:
REMARK  status: ('A' for Active; 'I' for Inactive)
REMARK    1  A    between atoms: C_1  and  C_2
REMARK    2  A    between atoms: C_8  and  C_9
REMARK    3  A    between atoms: C_11  and  C_12
REMARK    4  A    between atoms: C_12  and  O_13
REMARK    5  A    between atoms: O_13  and  C_14
REMARK    6  A    between atoms: C_23  and  C_24
REMARK                            x       y       z     vdW  Elec       q    Type
REMARK                         _______ _______ _______ _____ _____    ______ ____
ROOT
ATOM      1  C   UNL     1      43.200   5.140  13.072  0.00  0.00    +0.000 C 
ATOM      2  C   UNL     1      44.148   4.667  11.974  0.00  0.00    +0.000 C 
ATOM      3  C   UNL     1      45.401   3.948  12.525  0.00  0.00    +0.000 C 
ATOM      4  N   UNL     1      46.407   4.923  12.919  0.00  0.00    +0.000 N 
ATOM      5  C   UNL     1      47.026   4.890  14.132  0.00  0.00    +0.000 A 
ATOM      6  N   UNL     1      46.776   3.867  14.960  0.00  0.00    +0.000 NA
ATOM      7  C   UNL     1      47.400   3.859  16.154  0.00  0.00    +0.000 A 
ATOM      8  C   UNL     1      48.258   4.846  16.582  0.00  0.00    +0.000 A 
ATOM      9  C   UNL     1      48.439   5.893  15.701  0.00  0.00    +0.000 A 
ATOM     10  N   UNL     1      47.841   5.902  14.479  0.00  0.00    +0.000 NA
ATOM     11  C   UNL     1      46.770   5.890  11.892  0.00  0.00    +0.000 C 
ATOM     12  C   UNL     1      45.505   6.623  11.411  0.00  0.00    +0.000 C 
ATOM     13  C   UNL     1      45.041   7.690  12.400  0.00  0.00    +0.000 C 
ATOM     14  O   UNL     1      44.447   5.721  11.039  0.00  0.00    +0.000 OA
ENDROOT
BRANCH   8  15
ATOM     15  C   UNL     1      48.861   4.761  17.866  0.00  0.00    +0.000 C 
ATOM     16  N   UNL     1      49.359   4.656  18.910  0.00  0.00    +0.000 NA
ENDBRANCH   8  15
BRANCH   9  17
ATOM     17  C   UNL     1      49.256   7.121  16.050  0.00  0.00    +0.000 C 
BRANCH  17  18
ATOM     18  O   UNL     1      50.227   7.392  15.035  0.00  0.00    +0.000 OA
BRANCH  18  19
ATOM     19  C   UNL     1      49.712   8.196  14.031  0.00  0.00    +0.000 A 
ATOM     20  C   UNL     1      49.985   7.823  12.721  0.00  0.00    +0.000 A 
ATOM     21  C   UNL     1      49.469   8.600  11.682  0.00  0.00    +0.000 A 
ATOM     22  C   UNL     1      48.707   9.717  11.996  0.00  0.00    +0.000 A 
ATOM     23  F   UNL     1      48.190  10.479  11.025  0.00  0.00    +0.000 F 
ATOM     24  C   UNL     1      48.488  10.020  13.327  0.00  0.00    +0.000 A 
ATOM     25  N   UNL     1      48.980   9.285  14.356  0.00  0.00    +0.000 NA
ENDBRANCH  18  19
ENDBRANCH  17  18
ENDBRANCH   9  17
TORSDOF 4
ENDMDL
MODEL 7
REMARK VINA RESULT:    -6.237      5.119      9.071
REMARK INTER + INTRA:          -7.733
REMARK INTER:                  -7.158
REMARK INTRA:                  -0.575
REMARK UNBOUND:                -0.037
REMARK  Name = 
REMARK  6 active torsions:
REMARK  status: ('A' for Active; 'I' for Inactive)
REMARK    1  A    between atoms: C_1  and  C_2
REMARK    2  A    between atoms: C_8  and  C_9
REMARK    3  A    between atoms: C_11  and  C_12
REMARK    4  A    between atoms: C_12  and  O_13
REMARK    5  A    between atoms: O_13  and  C_14
REMARK    6  A    between atoms: C_23  and  C_24
REMARK                            x       y       z     vdW  Elec       q    Type
REMARK                         _______ _______ _______ _____ _____    ______ ____
ROOT
ATOM      1  C   UNL     1      43.418   5.325  12.968  0.00  0.00    +0.000 C 
ATOM      2  C   UNL     1      44.452   4.974  11.901  0.00  0.00    +0.000 C 
ATOM      3  C   UNL     1      45.659   4.189  12.463  0.00  0.00    +0.000 C 
ATOM      4  N   UNL     1      46.629   5.107  13.043  0.00  0.00    +0.000 N 
ATOM      5  C   UNL     1      47.150   4.931  14.290  0.00  0.00    +0.000 A 
ATOM      6  N   UNL     1      46.839   3.821  14.973  0.00  0.00    +0.000 NA
ATOM      7  C   UNL     1      47.366   3.673  16.204  0.00  0.00    +0.000 A 
ATOM      8  C   UNL     1      48.185   4.599  16.807  0.00  0.00    +0.000 A 
ATOM      9  C   UNL     1      48.432   5.739  16.070  0.00  0.00    +0.000 A 
ATOM     10  N   UNL     1      47.932   5.891  14.813  0.00  0.00    +0.000 NA
ATOM     11  C   UNL     1      47.069   6.182  12.165  0.00  0.00    +0.000 C 
ATOM     12  C   UNL     1      45.844   6.974  11.674  0.00  0.00    +0.000 C 
ATOM     13  C   UNL     1      45.301   7.923  12.739  0.00  0.00    +0.000 C 
ATOM     14  O   UNL     1      44.821   6.126  11.119  0.00  0.00    +0.000 OA
ENDROOT
BRANCH   8  15
ATOM     15  C   UNL     1      48.686   4.364  18.117  0.00  0.00    +0.000 C 
ATOM     16  N   UNL     1      49.060   4.172  19.200  0.00  0.00    +0.000 NA
ENDBRANCH   8  15
BRANCH   9  17
ATOM     17  C   UNL     1      49.216   6.914  16.620  0.00  0.00    +0.000 C 
BRANCH  17  18
ATOM     18  O   UNL     1      48.576   8.151  16.292  0.00  0.00    +0.000 OA
BRANCH  18  19
ATOM     19  C   UNL     1      48.142   8.823  17.422  0.00  0.00    +0.000 A 
ATOM     20  C   UNL     1      47.947   8.066  18.571  0.00  0.00    +0.000 A 
ATOM     21  C   UNL     1      47.525   8.712  19.734  0.00  0.00    +0.000 A 
ATOM     22  C   UNL     1      47.313  10.083  19.701  0.00  0.00    +0.000 A 
ATOM     23  F   UNL     1      46.916  10.734  20.800  0.00  0.00    +0.000 F 
ATOM     24  C   UNL     1      47.525  10.759  18.514  0.00  0.00    +0.000 A 
ATOM     25  N   UNL     1      47.932  10.158  17.368  0.00  0.00    +0.000 NA
ENDBRANCH  18  19
ENDBRANCH  17  18
ENDBRANCH   9  17
TORSDOF 4
ENDMDL
MODEL 8
REMARK VINA RESULT:    -5.945      4.128      6.608
REMARK INTER + INTRA:          -7.372
REMARK INTER:                  -6.761
REMARK INTRA:                  -0.611
REMARK UNBOUND:                -0.037
REMARK  Name = 
REMARK  6 active torsions:
REMARK  status: ('A' for Active; 'I' for Inactive)
REMARK    1  A    between atoms: C_1  and  C_2
REMARK    2  A    between atoms: C_8  and  C_9
REMARK    3  A    between atoms: C_11  and  C_12
REMARK    4  A    between atoms: C_12  and  O_13
REMARK    5  A    between atoms: O_13  and  C_14
REMARK    6  A    between atoms: C_23  and  C_24
REMARK                            x       y       z     vdW  Elec       q    Type
REMARK                         _______ _______ _______ _____ _____    ______ ____
ROOT
ATOM      1  C   UNL     1      49.938   2.271  17.022  0.00  0.00    +0.000 C 
ATOM      2  C   UNL     1      49.055   3.000  18.032  0.00  0.00    +0.000 C 
ATOM      3  C   UNL     1      47.729   3.507  17.420  0.00  0.00    +0.000 C 
ATOM      4  N   UNL     1      47.941   4.780  16.747  0.00  0.00    +0.000 N 
ATOM      5  C   UNL     1      47.511   5.019  15.476  0.00  0.00    +0.000 A 
ATOM      6  N   UNL     1      46.778   4.086  14.854  0.00  0.00    +0.000 NA
ATOM      7  C   UNL     1      46.367   4.347  13.597  0.00  0.00    +0.000 A 
ATOM      8  C   UNL     1      46.672   5.499  12.910  0.00  0.00    +0.000 A 
ATOM      9  C   UNL     1      47.465   6.399  13.591  0.00  0.00    +0.000 A 
ATOM     10  N   UNL     1      47.864   6.166  14.871  0.00  0.00    +0.000 NA
ATOM     11  C   UNL     1      48.571   5.813  17.557  0.00  0.00    +0.000 C 
ATOM     12  C   UNL     1      49.914   5.290  18.099  0.00  0.00    +0.000 C 
ATOM     13  C   UNL     1      51.013   5.303  17.038  0.00  0.00    +0.000 C 
ATOM     14  O   UNL     1      49.790   4.011  18.747  0.00  0.00    +0.000 OA
ENDROOT
BRANCH   8  15
ATOM     15  C   UNL     1      46.205   5.682  11.580  0.00  0.00    +0.000 C 
ATOM     16  N   UNL     1      45.800   5.805  10.499  0.00  0.00    +0.000 NA
ENDBRANCH   8  15
BRANCH   9  17
ATOM     17  C   UNL     1      47.995   7.667  12.951  0.00  0.00    +0.000 C 
BRANCH  17  18
ATOM     18  O   UNL     1      49.116   8.177  13.680  0.00  0.00    +0.000 OA
BRANCH  18  19
ATOM     19  C   UNL     1      50.271   8.174  12.917  0.00  0.00    +0.000 A 
ATOM     20  C   UNL     1      50.155   7.756  11.597  0.00  0.00    +0.000 A 
ATOM     21  C   UNL     1      51.297   7.756  10.793  0.00  0.00    +0.000 A 
ATOM     22  C   UNL     1      52.503   8.168  11.340  0.00  0.00    +0.000 A 
ATOM     23  F   UNL     1      53.615   8.188  10.595  0.00  0.00    +0.000 F 
ATOM     24  C   UNL     1      52.531   8.563  12.665  0.00  0.00    +0.000 A 
ATOM     25  N   UNL     1      51.440   8.570  13.470  0.00  0.00    +0.000 NA
ENDBRANCH  18  19
ENDBRANCH  17  18
ENDBRANCH   9  17
TORSDOF 4
ENDMDL
MODEL 9
REMARK VINA RESULT:    -5.923      2.591      4.347
REMARK INTER + INTRA:          -7.345
REMARK INTER:                  -6.815
REMARK INTRA:                  -0.530
REMARK UNBOUND:                -0.037
REMARK  Name = 
REMARK  6 active torsions:
REMARK  status: ('A' for Active; 'I' for Inactive)
REMARK    1  A    between atoms: C_1  and  C_2
REMARK    2  A    between atoms: C_8  and  C_9
REMARK    3  A    between atoms: C_11  and  C_12
REMARK    4  A    between atoms: C_12  and  O_13
REMARK    5  A    between atoms: O_13  and  C_14
REMARK    6  A    between atoms: C_23  and  C_24
REMARK                            x       y       z     vdW  Elec       q    Type
REMARK                         _______ _______ _______ _____ _____    ______ ____
ROOT
ATOM      1  C   UNL     1      49.492  10.234  16.250  0.00  0.00    +0.000 C 
ATOM      2  C   UNL     1      50.459   9.664  15.216  0.00  0.00    +0.000 C 
ATOM      3  C   UNL     1      49.958   9.829  13.762  0.00  0.00    +0.000 C 
ATOM      4  N   UNL     1      49.030   8.758  13.427  0.00  0.00    +0.000 N 
ATOM      5  C   UNL     1      47.811   8.992  12.865  0.00  0.00    +0.000 A 
ATOM      6  N   UNL     1      47.489  10.244  12.512  0.00  0.00    +0.000 NA
ATOM      7  C   UNL     1      46.278  10.448  11.959  0.00  0.00    +0.000 A 
ATOM      8  C   UNL     1      45.347   9.456  11.755  0.00  0.00    +0.000 A 
ATOM      9  C   UNL     1      45.723   8.198  12.179  0.00  0.00    +0.000 A 
ATOM     10  N   UNL     1      46.954   7.968  12.711  0.00  0.00    +0.000 NA
ATOM     11  C   UNL     1      49.529   7.409  13.657  0.00  0.00    +0.000 C 
ATOM     12  C   UNL     1      49.964   7.269  15.127  0.00  0.00    +0.000 C 
ATOM     13  C   UNL     1      48.776   7.103  16.071  0.00  0.00    +0.000 C 
ATOM     14  O   UNL     1      50.856   8.319  15.545  0.00  0.00    +0.000 OA
ENDROOT
BRANCH   8  15
ATOM     15  C   UNL     1      44.086   9.768  11.176  0.00  0.00    +0.000 C 
ATOM     16  N   UNL     1      43.068  10.007  10.672  0.00  0.00    +0.000 NA
ENDBRANCH   8  15
BRANCH   9  17
ATOM     17  C   UNL     1      44.783   7.009  12.139  0.00  0.00    +0.000 C 
BRANCH  17  18
ATOM     18  O   UNL     1      45.508   5.782  12.271  0.00  0.00    +0.000 OA
BRANCH  18  19
ATOM     19  C   UNL     1      45.151   4.865  11.297  0.00  0.00    +0.000 A 
ATOM     20  C   UNL     1      45.531   5.151   9.991  0.00  0.00    +0.000 A 
ATOM     21  C   UNL     1      45.203   4.241   8.985  0.00  0.00    +0.000 A 
ATOM     22  C   UNL     1      44.507   3.089   9.323  0.00  0.00    +0.000 A 
ATOM     23  F   UNL     1      44.183   2.192   8.384  0.00  0.00    +0.000 F 
ATOM     24  C   UNL     1      44.162   2.886  10.646  0.00  0.00    +0.000 A 
ATOM     25  N   UNL     1      44.465   3.753  11.644  0.00  0.00    +0.000 NA
ENDBRANCH  18  19
ENDBRANCH  17  18
ENDBRANCH   9  17
TORSDOF 4
ENDMDL
