MODEL 1
REMARK VINA RESULT:    -9.481      0.000      0.000
REMARK INTER + INTRA:         -10.965
REMARK INTER:                 -11.144
REMARK INTRA:                   0.179
REMARK UNBOUND:                 0.179
REMARK  Name = 
REMARK  5 active torsions:
REMARK  status: ('A' for Active; 'I' for Inactive)
REMARK    1  A    between atoms: C_1  and  C_2
REMARK    2  A    between atoms: C_9  and  C_10
REMARK    3  A    between atoms: C_10  and  N_11
REMARK    4  A    between atoms: C_15  and  C_16
REMARK    5  A    between atoms: C_25  and  C_26
REMARK                            x       y       z     vdW  Elec       q    Type
REMARK                         _______ _______ _______ _____ _____    ______ ____
ROOT
ATOM      1  C   UNL     1      43.961   4.646  11.584  0.00  0.00    +0.000 C 
ATOM      2  C   UNL     1      43.413   6.021  11.208  0.00  0.00    +0.000 C 
ATOM      3  C   UNL     1      42.635   5.149  12.142  0.00  0.00    +0.000 C 
ENDROOT
BRANCH   1  12
ATOM      4  C   UNL     1      49.294   7.472  11.534  0.00  0.00    +0.000 C 
ATOM      5  C   UNL     1      49.032   8.429  12.694  0.00  0.00    +0.000 C 
ATOM      6  C   UNL     1      48.484   7.747  13.969  0.00  0.00    +0.000 C 
ATOM      7  N   UNL     1      47.066   7.420  13.838  0.00  0.00    +0.000 N 
ATOM      8  C   UNL     1      46.728   6.129  13.503  0.00  0.00    +0.000 A 
ATOM      9  N   UNL     1      47.506   5.098  13.859  0.00  0.00    +0.000 NA
ATOM     10  C   UNL     1      47.081   3.860  13.538  0.00  0.00    +0.000 A 
ATOM     11  C   UNL     1      45.926   3.608  12.841  0.00  0.00    +0.000 A 
ATOM     12  C   UNL     1      45.194   4.718  12.476  0.00  0.00    +0.000 A 
ATOM     13  N   UNL     1      45.587   5.953  12.839  0.00  0.00    +0.000 NA
ATOM     14  C   UNL     1      46.224   8.510  13.324  0.00  0.00    +0.000 C 
ATOM     15  C   UNL     1      46.832   9.148  12.059  0.00  0.00    +0.000 C 
ATOM     16  C   UNL     1      46.066  10.412  11.680  0.00  0.00    +0.000 C 
ATOM     17  O   UNL     1      48.203   9.531  12.273  0.00  0.00    +0.000 OA
ENDBRANCH   1  12
BRANCH   1  18
ATOM     18  N   UNL     1      43.909   3.544  10.603  0.00  0.00    +0.000 N 
ATOM     19  C   UNL     1      44.873   3.366   9.600  0.00  0.00    +0.000 A 
ATOM     20  C   UNL     1      45.450   4.405   8.873  0.00  0.00    +0.000 A 
ATOM     21  C   UNL     1      46.310   4.117   7.804  0.00  0.00    +0.000 A 
ATOM     22  C   UNL     1      46.580   2.793   7.480  0.00  0.00    +0.000 A 
ATOM     23  C   UNL     1      45.986   1.817   8.267  0.00  0.00    +0.000 A 
ATOM     24  N   UNL     1      45.155   2.077   9.312  0.00  0.00    +0.000 NA
ATOM     25  H   UNL     1      43.768   2.609  10.982  0.00  0.00    +0.000 HD
BRANCH  22  26
ATOM     26  C   UNL     1      47.405   2.368   6.328  0.00  0.00    +0.000 C 
ATOM     27  N   UNL     1      47.248   3.025   5.139  0.00  0.00    +0.000 N 
ATOM     28  O   UNL     1      48.220   1.461   6.436  0.00  0.00    +0.000 OA
ATOM     29  H   UNL     1      46.741   3.891   5.047  0.00  0.00    +0.000 HD
ATOM     30  H   UNL     1      47.875   2.761   4.389  0.00  0.00    +0.000 HD
ENDBRANCH  22  26
ENDBRANCH   1  18
TORSDOF 3
ENDMDL
MODEL 2
REMARK VINA RESULT:    -6.885      3.682      6.102
REMARK INTER + INTRA:          -7.913
REMARK INTER:                  -7.637
REMARK INTRA:                  -0.276
REMARK UNBOUND:                 0.179
REMARK  Name = 
REMARK  5 active torsions:
REMARK  status: ('A' for Active; 'I' for Inactive)
REMARK    1  A    between atoms: C_1  and  C_2
REMARK    2  A    between atoms: C_9  and  C_10
REMARK    3  A    between atoms: C_10  and  N_11
REMARK    4  A    between atoms: C_15  and  C_16
REMARK    5  A    between atoms: C_25  and  C_26
REMARK                            x       y       z     vdW  Elec       q    Type
REMARK                         _______ _______ _______ _____ _____    ______ ____
ROOT
ATOM      1  C   UNL     1      48.449   8.174  13.260  0.00  0.00    +0.000 C 
ATOM      2  C   UNL     1      48.166   9.674  13.201  0.00  0.00    +0.000 C 
ATOM      3  C   UNL     1      47.300   8.796  14.047  0.00  0.00    +0.000 C 
ENDROOT
BRANCH   1  12
ATOM      4  C   UNL     1      50.405   8.276  18.969  0.00  0.00    +0.000 C 
ATOM      5  C   UNL     1      50.491   6.768  19.185  0.00  0.00    +0.000 C 
ATOM      6  C   UNL     1      51.256   6.010  18.075  0.00  0.00    +0.000 C 
ATOM      7  N   UNL     1      50.443   5.852  16.872  0.00  0.00    +0.000 N 
ATOM      8  C   UNL     1      50.647   6.734  15.834  0.00  0.00    +0.000 A 
ATOM      9  N   UNL     1      51.849   7.287  15.626  0.00  0.00    +0.000 NA
ATOM     10  C   UNL     1      51.981   8.100  14.559  0.00  0.00    +0.000 A 
ATOM     11  C   UNL     1      50.951   8.415  13.709  0.00  0.00    +0.000 A 
ATOM     12  C   UNL     1      49.734   7.837  14.004  0.00  0.00    +0.000 A 
ATOM     13  N   UNL     1      49.609   6.984  15.038  0.00  0.00    +0.000 NA
ATOM     14  C   UNL     1      49.075   5.366  17.106  0.00  0.00    +0.000 C 
ATOM     15  C   UNL     1      48.376   6.161  18.227  0.00  0.00    +0.000 C 
ATOM     16  C   UNL     1      47.055   5.496  18.605  0.00  0.00    +0.000 C 
ATOM     17  O   UNL     1      49.183   6.207  19.418  0.00  0.00    +0.000 OA
ENDBRANCH   1  12
BRANCH   1  18
ATOM     18  N   UNL     1      48.097   7.316  12.111  0.00  0.00    +0.000 N 
ATOM     19  C   UNL     1      47.042   6.392  12.142  0.00  0.00    +0.000 A 
ATOM     20  C   UNL     1      46.732   5.591  13.238  0.00  0.00    +0.000 A 
ATOM     21  C   UNL     1      45.740   4.608  13.127  0.00  0.00    +0.000 A 
ATOM     22  C   UNL     1      45.072   4.443  11.920  0.00  0.00    +0.000 A 
ATOM     23  C   UNL     1      45.420   5.296  10.883  0.00  0.00    +0.000 A 
ATOM     24  N   UNL     1      46.375   6.261  10.974  0.00  0.00    +0.000 NA
ATOM     25  H   UNL     1      47.993   7.785  11.213  0.00  0.00    +0.000 HD
BRANCH  22  26
ATOM     26  C   UNL     1      44.065   3.390  11.661  0.00  0.00    +0.000 C 
ATOM     27  N   UNL     1      43.870   2.429  12.614  0.00  0.00    +0.000 N 
ATOM     28  O   UNL     1      43.409   3.384  10.626  0.00  0.00    +0.000 OA
ATOM     29  H   UNL     1      44.236   2.494  13.550  0.00  0.00    +0.000 HD
ATOM     30  H   UNL     1      43.127   1.763  12.441  0.00  0.00    +0.000 HD
ENDBRANCH  22  26
ENDBRANCH   1  18
TORSDOF 3
ENDMDL
MODEL 3
REMARK VINA RESULT:    -6.862      3.883      6.287
REMARK INTER + INTRA:          -7.887
REMARK INTER:                  -8.793
REMARK INTRA:                   0.906
REMARK UNBOUND:                 0.179
REMARK  Name = 
REMARK  5 active torsions:
REMARK  status: ('A' for Active; 'I' for Inactive)
REMARK    1  A    between atoms: C_1  and  C_2
REMARK    2  A    between atoms: C_9  and  C_10
REMARK    3  A    between atoms: C_10  and  N_11
REMARK    4  A    between atoms: C_15  and  C_16
REMARK    5  A    between atoms: C_25  and  C_26
REMARK                            x       y       z     vdW  Elec       q    Type
REMARK                         _______ _______ _______ _____ _____    ______ ____
ROOT
ATOM      1  C   UNL     1      48.744   7.435  13.746  0.00  0.00    +0.000 C 
ATOM      2  C   UNL     1      49.418   7.287  12.384  0.00  0.00    +0.000 C 
ATOM      3  C   UNL     1      48.806   8.599  12.763  0.00  0.00    +0.000 C 
ENDROOT
BRANCH   1  12
ATOM      4  C   UNL     1      48.533   6.528  19.710  0.00  0.00    +0.000 C 
ATOM      5  C   UNL     1      49.263   5.188  19.741  0.00  0.00    +0.000 C 
ATOM      6  C   UNL     1      50.598   5.174  18.962  0.00  0.00    +0.000 C 
ATOM      7  N   UNL     1      50.380   5.090  17.520  0.00  0.00    +0.000 N 
ATOM      8  C   UNL     1      50.444   6.254  16.788  0.00  0.00    +0.000 A 
ATOM      9  N   UNL     1      51.227   7.269  17.174  0.00  0.00    +0.000 NA
ATOM     10  C   UNL     1      51.275   8.355  16.376  0.00  0.00    +0.000 A 
ATOM     11  C   UNL     1      50.541   8.486  15.224  0.00  0.00    +0.000 A 
ATOM     12  C   UNL     1      49.730   7.417  14.907  0.00  0.00    +0.000 A 
ATOM     13  N   UNL     1      49.718   6.309  15.672  0.00  0.00    +0.000 NA
ATOM     14  C   UNL     1      49.420   4.060  17.097  0.00  0.00    +0.000 C 
ATOM     15  C   UNL     1      48.117   4.128  17.918  0.00  0.00    +0.000 C 
ATOM     16  C   UNL     1      47.236   2.918  17.620  0.00  0.00    +0.000 C 
ATOM     17  O   UNL     1      48.388   4.118  19.332  0.00  0.00    +0.000 OA
ENDBRANCH   1  12
BRANCH   1  18
ATOM     18  N   UNL     1      47.423   6.816  13.982  0.00  0.00    +0.000 N 
ATOM     19  C   UNL     1      46.705   6.143  12.983  0.00  0.00    +0.000 A 
ATOM     20  C   UNL     1      46.623   6.563  11.657  0.00  0.00    +0.000 A 
ATOM     21  C   UNL     1      45.777   5.893  10.763  0.00  0.00    +0.000 A 
ATOM     22  C   UNL     1      45.027   4.812  11.210  0.00  0.00    +0.000 A 
ATOM     23  C   UNL     1      45.183   4.440  12.537  0.00  0.00    +0.000 A 
ATOM     24  N   UNL     1      46.004   5.073  13.418  0.00  0.00    +0.000 NA
ATOM     25  H   UNL     1      47.348   6.210  14.796  0.00  0.00    +0.000 HD
BRANCH  22  26
ATOM     26  C   UNL     1      44.044   4.079  10.381  0.00  0.00    +0.000 C 
ATOM     27  N   UNL     1      43.960   4.386   9.051  0.00  0.00    +0.000 N 
ATOM     28  O   UNL     1      43.332   3.209  10.867  0.00  0.00    +0.000 OA
ATOM     29  H   UNL     1      44.643   4.945   8.566  0.00  0.00    +0.000 HD
ATOM     30  H   UNL     1      43.329   3.821   8.495  0.00  0.00    +0.000 HD
ENDBRANCH  22  26
ENDBRANCH   1  18
TORSDOF 3
ENDMDL
