MODEL 1
REMARK VINA RESULT:    -8.862      0.000      0.000
REMARK INTER + INTRA:         -13.788
REMARK INTER:                 -12.748
REMARK INTRA:                  -1.039
REMARK UNBOUND:                -1.039
REMARK  Name = 
REMARK  8 active torsions:
REMARK  status: ('A' for Active; 'I' for Inactive)
REMARK    1  A    between atoms: N_1  and  C_2
REMARK    2  A    between atoms: C_2  and  C_3
REMARK    3  A    between atoms: C_2  and  C_17
REMARK    4  A    between atoms: C_3  and  N_4
REMARK    5  A    between atoms: C_5  and  C_7
REMARK    6  A    between atoms: C_20  and  C_21
REMARK    7  A    between atoms: C_21  and  N_22
REMARK    8  A    between atoms: C_23  and  C_25
REMARK                            x       y       z     vdW  Elec       q    Type
REMARK                         _______ _______ _______ _____ _____    ______ ____
ROOT
ATOM      1  C   UNL     1      48.269   6.883  14.499  0.00  0.00    +0.000 C 
ENDROOT
BRANCH   1   2
ATOM      2  C   UNL     1      47.244   5.993  13.782  0.00  0.00    +0.000 A 
ATOM      3  C   UNL     1      46.626   6.410  12.590  0.00  0.00    +0.000 A 
ATOM      4  C   UNL     1      45.785   5.560  11.859  0.00  0.00    +0.000 A 
ATOM      5  C   UNL     1      45.524   4.258  12.296  0.00  0.00    +0.000 A 
ATOM      6  C   UNL     1      46.122   3.828  13.484  0.00  0.00    +0.000 A 
ATOM      7  C   UNL     1      46.968   4.681  14.212  0.00  0.00    +0.000 A 
BRANCH   5   8
ATOM      8  C   UNL     1      44.645   3.339  11.485  0.00  0.00    +0.000 C 
BRANCH   8   9
ATOM      9  N   UNL     1      45.341   2.796  10.338  0.00  0.00    +0.000 N 
ATOM     10  C   UNL     1      45.099   3.304   9.075  0.00  0.00    +0.000 C 
ATOM     11  O   UNL     1      44.306   4.211   8.856  0.00  0.00    +0.000 OA
ATOM     12  H   UNL     1      46.171   2.245  10.505  0.00  0.00    +0.000 HD
BRANCH  10  13
ATOM     13  C   UNL     1      45.878   2.709   7.963  0.00  0.00    +0.000 A 
ATOM     14  C   UNL     1      46.188   3.414   6.799  0.00  0.00    +0.000 A 
ATOM     15  C   UNL     1      46.943   2.793   5.805  0.00  0.00    +0.000 A 
ATOM     16  C   UNL     1      47.364   1.488   6.011  0.00  0.00    +0.000 A 
ATOM     17  N   UNL     1      47.094   0.784   7.131  0.00  0.00    +0.000 NA
ATOM     18  C   UNL     1      46.368   1.414   8.090  0.00  0.00    +0.000 A 
ENDBRANCH  10  13
ENDBRANCH   8   9
ENDBRANCH   5   8
ENDBRANCH   1   2
BRANCH   1  19
ATOM     19  N   UNL     1      49.640   6.719  13.981  0.00  0.00    +0.000 NA
ATOM     20  H   UNL     1      49.922   7.549  13.468  0.00  0.00    +0.000 HD
ATOM     21  H   UNL     1      49.665   5.933  13.331  0.00  0.00    +0.000 HD
ENDBRANCH   1  19
BRANCH   1  22
ATOM     22  C   UNL     1      48.331   6.755  16.052  0.00  0.00    +0.000 C 
BRANCH  22  23
ATOM     23  N   UNL     1      49.515   6.057  16.521  0.00  0.00    +0.000 N 
ATOM     24  C   UNL     1      49.460   4.981  17.365  0.00  0.00    +0.000 C 
ATOM     25  O   UNL     1      48.389   4.499  17.728  0.00  0.00    +0.000 OA
ATOM     26  H   UNL     1      50.396   6.537  16.384  0.00  0.00    +0.000 HD
BRANCH  24  27
ATOM     27  C   UNL     1      50.748   4.399  17.778  0.00  0.00    +0.000 A 
ATOM     28  C   UNL     1      51.673   5.187  18.452  0.00  0.00    +0.000 A 
ATOM     29  S   UNL     1      53.054   4.333  18.974  0.00  0.00    +0.000 S 
ATOM     30  C   UNL     1      52.484   2.885  18.288  0.00  0.00    +0.000 A 
ATOM     31  N   UNL     1      53.193   1.731  18.410  0.00  0.00    +0.000 NA
ATOM     32  C   UNL     1      52.646   0.705  17.850  0.00  0.00    +0.000 A 
ATOM     33  N   UNL     1      51.462   0.733  17.159  0.00  0.00    +0.000 N 
ATOM     34  C   UNL     1      50.748   1.888  16.953  0.00  0.00    +0.000 A 
ATOM     35  O   UNL     1      49.762   1.896  16.220  0.00  0.00    +0.000 OA
ATOM     36  C   UNL     1      51.276   3.058  17.634  0.00  0.00    +0.000 A 
ATOM     37  H   UNL     1      51.111  -0.095  16.704  0.00  0.00    +0.000 HD
ENDBRANCH  24  27
ENDBRANCH  22  23
ENDBRANCH   1  22
TORSDOF 8
ENDMDL
MODEL 2
REMARK VINA RESULT:    -8.398      2.410      2.962
REMARK INTER + INTRA:         -13.120
REMARK INTER:                 -12.162
REMARK INTRA:                  -0.958
REMARK UNBOUND:                -1.039
REMARK  Name = 
REMARK  8 active torsions:
REMARK  status: ('A' for Active; 'I' for Inactive)
REMARK    1  A    between atoms: N_1  and  C_2
REMARK    2  A    between atoms: C_2  and  C_3
REMARK    3  A    between atoms: C_2  and  C_17
REMARK    4  A    between atoms: C_3  and  N_4
REMARK    5  A    between atoms: C_5  and  C_7
REMARK    6  A    between atoms: C_20  and  C_21
REMARK    7  A    between atoms: C_21  and  N_22
REMARK    8  A    between atoms: C_23  and  C_25
REMARK                            x       y       z     vdW  Elec       q    Type
REMARK                         _______ _______ _______ _____ _____    ______ ____
ROOT
ATOM      1  C   UNL     1      45.810   8.456  13.217  0.00  0.00    +0.000 C 
ENDROOT
BRANCH   1   2
ATOM      2  C   UNL     1      45.206   7.128  12.740  0.00  0.00    +0.000 A 
ATOM      3  C   UNL     1      44.254   7.092  11.706  0.00  0.00    +0.000 A 
ATOM      4  C   UNL     1      43.787   5.881  11.176  0.00  0.00    +0.000 A 
ATOM      5  C   UNL     1      44.253   4.656  11.662  0.00  0.00    +0.000 A 
ATOM      6  C   UNL     1      45.194   4.671  12.696  0.00  0.00    +0.000 A 
ATOM      7  C   UNL     1      45.662   5.886  13.223  0.00  0.00    +0.000 A 
BRANCH   5   8
ATOM      8  C   UNL     1      43.772   3.359  11.063  0.00  0.00    +0.000 C 
BRANCH   8   9
ATOM      9  N   UNL     1      44.744   2.787  10.156  0.00  0.00    +0.000 N 
ATOM     10  C   UNL     1      44.817   3.227   8.847  0.00  0.00    +0.000 C 
ATOM     11  O   UNL     1      44.086   4.096   8.389  0.00  0.00    +0.000 OA
ATOM     12  H   UNL     1      45.517   2.273  10.554  0.00  0.00    +0.000 HD
BRANCH  10  13
ATOM     13  C   UNL     1      45.862   2.608   7.999  0.00  0.00    +0.000 A 
ATOM     14  C   UNL     1      46.629   3.342   7.092  0.00  0.00    +0.000 A 
ATOM     15  C   UNL     1      47.609   2.692   6.343  0.00  0.00    +0.000 A 
ATOM     16  C   UNL     1      47.789   1.329   6.528  0.00  0.00    +0.000 A 
ATOM     17  N   UNL     1      47.074   0.593   7.407  0.00  0.00    +0.000 NA
ATOM     18  C   UNL     1      46.134   1.251   8.133  0.00  0.00    +0.000 A 
ENDBRANCH  10  13
ENDBRANCH   8   9
ENDBRANCH   5   8
ENDBRANCH   1   2
BRANCH   1  19
ATOM     19  N   UNL     1      45.408   9.606  12.386  0.00  0.00    +0.000 NA
ATOM     20  H   UNL     1      44.769  10.203  12.900  0.00  0.00    +0.000 HD
ATOM     21  H   UNL     1      44.916   9.270  11.558  0.00  0.00    +0.000 HD
ENDBRANCH   1  19
BRANCH   1  22
ATOM     22  C   UNL     1      47.362   8.497  13.364  0.00  0.00    +0.000 C 
BRANCH  22  23
ATOM     23  N   UNL     1      47.831   7.950  14.625  0.00  0.00    +0.000 N 
ATOM     24  C   UNL     1      48.686   6.884  14.702  0.00  0.00    +0.000 C 
ATOM     25  O   UNL     1      49.163   6.364  13.695  0.00  0.00    +0.000 OA
ATOM     26  H   UNL     1      47.320   8.239  15.451  0.00  0.00    +0.000 HD
BRANCH  24  27
ATOM     27  C   UNL     1      49.046   6.422  16.053  0.00  0.00    +0.000 A 
ATOM     28  C   UNL     1      49.844   7.223  16.862  0.00  0.00    +0.000 A 
ATOM     29  S   UNL     1      50.061   6.609  18.438  0.00  0.00    +0.000 S 
ATOM     30  C   UNL     1      49.126   5.232  18.089  0.00  0.00    +0.000 A 
ATOM     31  N   UNL     1      48.882   4.295  19.044  0.00  0.00    +0.000 NA
ATOM     32  C   UNL     1      48.154   3.306  18.649  0.00  0.00    +0.000 A 
ATOM     33  N   UNL     1      47.663   3.157  17.378  0.00  0.00    +0.000 N 
ATOM     34  C   UNL     1      47.940   4.043  16.366  0.00  0.00    +0.000 A 
ATOM     35  O   UNL     1      47.592   3.808  15.211  0.00  0.00    +0.000 OA
ATOM     36  C   UNL     1      48.687   5.219  16.775  0.00  0.00    +0.000 A 
ATOM     37  H   UNL     1      47.139   2.335  17.120  0.00  0.00    +0.000 HD
ENDBRANCH  24  27
ENDBRANCH  22  23
ENDBRANCH   1  22
TORSDOF 8
ENDMDL
MODEL 3
REMARK VINA RESULT:    -7.979      2.669      3.049
REMARK INTER + INTRA:         -12.517
REMARK INTER:                 -11.262
REMARK INTRA:                  -1.255
REMARK UNBOUND:                -1.039
REMARK  Name = 
REMARK  8 active torsions:
REMARK  status: ('A' for Active; 'I' for Inactive)
REMARK    1  A    between atoms: N_1  and  C_2
REMARK    2  A    between atoms: C_2  and  C_3
REMARK    3  A    between atoms: C_2  and  C_17
REMARK    4  A    between atoms: C_3  and  N_4
REMARK    5  A    between atoms: C_5  and  C_7
REMARK    6  A    between atoms: C_20  and  C_21
REMARK    7  A    between atoms: C_21  and  N_22
REMARK    8  A    between atoms: C_23  and  C_25
REMARK                            x       y       z     vdW  Elec       q    Type
REMARK                         _______ _______ _______ _____ _____    ______ ____
ROOT
ATOM      1  C   UNL     1      48.458   9.219  13.916  0.00  0.00    +0.000 C 
ENDROOT
BRANCH   1   2
ATOM      2  C   UNL     1      47.474   8.312  13.164  0.00  0.00    +0.000 A 
ATOM      3  C   UNL     1      46.087   8.531  13.228  0.00  0.00    +0.000 A 
ATOM      4  C   UNL     1      45.187   7.791  12.450  0.00  0.00    +0.000 A 
ATOM      5  C   UNL     1      45.639   6.797  11.577  0.00  0.00    +0.000 A 
ATOM      6  C   UNL     1      47.015   6.559  11.505  0.00  0.00    +0.000 A 
ATOM      7  C   UNL     1      47.915   7.304  12.283  0.00  0.00    +0.000 A 
BRANCH   5   8
ATOM      8  C   UNL     1      44.667   6.030  10.718  0.00  0.00    +0.000 C 
BRANCH   8   9
ATOM      9  N   UNL     1      45.342   5.143   9.795  0.00  0.00    +0.000 N 
ATOM     10  C   UNL     1      44.814   3.896   9.518  0.00  0.00    +0.000 C 
ATOM     11  O   UNL     1      43.779   3.477  10.021  0.00  0.00    +0.000 OA
ATOM     12  H   UNL     1      46.034   5.541   9.176  0.00  0.00    +0.000 HD
BRANCH  10  13
ATOM     13  C   UNL     1      45.555   3.066   8.538  0.00  0.00    +0.000 A 
ATOM     14  C   UNL     1      46.163   3.605   7.403  0.00  0.00    +0.000 A 
ATOM     15  C   UNL     1      46.861   2.763   6.538  0.00  0.00    +0.000 A 
ATOM     16  C   UNL     1      46.928   1.412   6.840  0.00  0.00    +0.000 A 
ATOM     17  N   UNL     1      46.364   0.861   7.937  0.00  0.00    +0.000 NA
ATOM     18  C   UNL     1      45.700   1.703   8.770  0.00  0.00    +0.000 A 
ENDBRANCH  10  13
ENDBRANCH   8   9
ENDBRANCH   5   8
ENDBRANCH   1   2
BRANCH   1  19
ATOM     19  N   UNL     1      49.858   8.768  13.812  0.00  0.00    +0.000 NA
ATOM     20  H   UNL     1      50.267   9.096  12.943  0.00  0.00    +0.000 HD
ATOM     21  H   UNL     1      49.884   7.748  13.798  0.00  0.00    +0.000 HD
ENDBRANCH   1  19
BRANCH   1  22
ATOM     22  C   UNL     1      48.152   9.469  15.425  0.00  0.00    +0.000 C 
BRANCH  22  23
ATOM     23  N   UNL     1      48.232   8.264  16.231  0.00  0.00    +0.000 N 
ATOM     24  C   UNL     1      49.382   7.857  16.852  0.00  0.00    +0.000 C 
ATOM     25  O   UNL     1      50.409   8.532  16.815  0.00  0.00    +0.000 OA
ATOM     26  H   UNL     1      47.464   7.610  16.129  0.00  0.00    +0.000 HD
BRANCH  24  27
ATOM     27  C   UNL     1      49.314   6.596  17.608  0.00  0.00    +0.000 A 
ATOM     28  C   UNL     1      49.936   6.504  18.848  0.00  0.00    +0.000 A 
ATOM     29  S   UNL     1      49.656   5.026  19.651  0.00  0.00    +0.000 S 
ATOM     30  C   UNL     1      48.721   4.438  18.357  0.00  0.00    +0.000 A 
ATOM     31  N   UNL     1      48.137   3.212  18.421  0.00  0.00    +0.000 NA
ATOM     32  C   UNL     1      47.451   2.891  17.376  0.00  0.00    +0.000 A 
ATOM     33  N   UNL     1      47.312   3.678  16.263  0.00  0.00    +0.000 N 
ATOM     34  C   UNL     1      47.939   4.893  16.127  0.00  0.00    +0.000 A 
ATOM     35  O   UNL     1      47.897   5.508  15.064  0.00  0.00    +0.000 OA
ATOM     36  C   UNL     1      48.657   5.340  17.308  0.00  0.00    +0.000 A 
ATOM     37  H   UNL     1      46.800   3.349  15.459  0.00  0.00    +0.000 HD
ENDBRANCH  24  27
ENDBRANCH  22  23
ENDBRANCH   1  22
TORSDOF 8
ENDMDL
MODEL 4
REMARK VINA RESULT:    -7.961      3.431      9.034
REMARK INTER + INTRA:         -12.491
REMARK INTER:                 -11.569
REMARK INTRA:                  -0.922
REMARK UNBOUND:                -1.039
REMARK  Name = 
REMARK  8 active torsions:
REMARK  status: ('A' for Active; 'I' for Inactive)
REMARK    1  A    between atoms: N_1  and  C_2
REMARK    2  A    between atoms: C_2  and  C_3
REMARK    3  A    between atoms: C_2  and  C_17
REMARK    4  A    between atoms: C_3  and  N_4
REMARK    5  A    between atoms: C_5  and  C_7
REMARK    6  A    between atoms: C_20  and  C_21
REMARK    7  A    between atoms: C_21  and  N_22
REMARK    8  A    between atoms: C_23  and  C_25
REMARK                            x       y       z     vdW  Elec       q    Type
REMARK                         _______ _______ _______ _____ _____    ______ ____
ROOT
ATOM      1  C   UNL     1      48.018   8.025  13.915  0.00  0.00    +0.000 C 
ENDROOT
BRANCH   1   2
ATOM      2  C   UNL     1      48.124   6.737  14.745  0.00  0.00    +0.000 A 
ATOM      3  C   UNL     1      48.940   6.674  15.888  0.00  0.00    +0.000 A 
ATOM      4  C   UNL     1      48.951   5.549  16.725  0.00  0.00    +0.000 A 
ATOM      5  C   UNL     1      48.148   4.439  16.448  0.00  0.00    +0.000 A 
ATOM      6  C   UNL     1      47.335   4.480  15.310  0.00  0.00    +0.000 A 
ATOM      7  C   UNL     1      47.324   5.610  14.476  0.00  0.00    +0.000 A 
BRANCH   5   8
ATOM      8  C   UNL     1      48.140   3.248  17.372  0.00  0.00    +0.000 C 
BRANCH   8   9
ATOM      9  N   UNL     1      49.466   2.928  17.854  0.00  0.00    +0.000 N 
ATOM     10  C   UNL     1      50.310   2.138  17.095  0.00  0.00    +0.000 C 
ATOM     11  O   UNL     1      49.997   1.674  16.007  0.00  0.00    +0.000 OA
ATOM     12  H   UNL     1      49.846   3.491  18.602  0.00  0.00    +0.000 HD
BRANCH  10  13
ATOM     13  C   UNL     1      51.659   1.886  17.653  0.00  0.00    +0.000 A 
ATOM     14  C   UNL     1      52.503   2.914  18.078  0.00  0.00    +0.000 A 
ATOM     15  C   UNL     1      53.751   2.598  18.611  0.00  0.00    +0.000 A 
ATOM     16  C   UNL     1      54.112   1.262  18.704  0.00  0.00    +0.000 A 
ATOM     17  N   UNL     1      53.315   0.243  18.316  0.00  0.00    +0.000 NA
ATOM     18  C   UNL     1      52.099   0.577  17.811  0.00  0.00    +0.000 A 
ENDBRANCH  10  13
ENDBRANCH   8   9
ENDBRANCH   5   8
ENDBRANCH   1   2
BRANCH   1  19
ATOM     19  N   UNL     1      46.719   8.705  14.067  0.00  0.00    +0.000 NA
ATOM     20  H   UNL     1      46.435   8.705  15.042  0.00  0.00    +0.000 HD
ATOM     21  H   UNL     1      46.007   8.198  13.540  0.00  0.00    +0.000 HD
ENDBRANCH   1  19
BRANCH   1  22
ATOM     22  C   UNL     1      48.307   7.889  12.389  0.00  0.00    +0.000 C 
BRANCH  22  23
ATOM     23  N   UNL     1      47.552   6.821  11.757  0.00  0.00    +0.000 N 
ATOM     24  C   UNL     1      46.252   6.966  11.353  0.00  0.00    +0.000 C 
ATOM     25  O   UNL     1      45.664   8.042  11.444  0.00  0.00    +0.000 OA
ATOM     26  H   UNL     1      47.948   5.892  11.836  0.00  0.00    +0.000 HD
BRANCH  24  27
ATOM     27  C   UNL     1      45.609   5.783  10.758  0.00  0.00    +0.000 A 
ATOM     28  C   UNL     1      45.839   5.476   9.422  0.00  0.00    +0.000 A 
ATOM     29  S   UNL     1      45.130   4.008   8.921  0.00  0.00    +0.000 S 
ATOM     30  C   UNL     1      44.460   3.743  10.462  0.00  0.00    +0.000 A 
ATOM     31  N   UNL     1      43.744   2.618  10.726  0.00  0.00    +0.000 NA
ATOM     32  C   UNL     1      43.298   2.539  11.934  0.00  0.00    +0.000 A 
ATOM     33  N   UNL     1      43.486   3.494  12.899  0.00  0.00    +0.000 N 
ATOM     34  C   UNL     1      44.143   4.676  12.657  0.00  0.00    +0.000 A 
ATOM     35  O   UNL     1      44.177   5.562  13.508  0.00  0.00    +0.000 OA
ATOM     36  C   UNL     1      44.738   4.781  11.337  0.00  0.00    +0.000 A 
ATOM     37  H   UNL     1      43.070   3.394  13.812  0.00  0.00    +0.000 HD
ENDBRANCH  24  27
ENDBRANCH  22  23
ENDBRANCH   1  22
TORSDOF 8
ENDMDL
MODEL 5
REMARK VINA RESULT:    -7.726      3.623     10.178
REMARK INTER + INTRA:         -12.152
REMARK INTER:                 -10.994
REMARK INTRA:                  -1.159
REMARK UNBOUND:                -1.039
REMARK  Name = 
REMARK  8 active torsions:
REMARK  status: ('A' for Active; 'I' for Inactive)
REMARK    1  A    between atoms: N_1  and  C_2
REMARK    2  A    between atoms: C_2  and  C_3
REMARK    3  A    between atoms: C_2  and  C_17
REMARK    4  A    between atoms: C_3  and  N_4
REMARK    5  A    between atoms: C_5  and  C_7
REMARK    6  A    between atoms: C_20  and  C_21
REMARK    7  A    between atoms: C_21  and  N_22
REMARK    8  A    between atoms: C_23  and  C_25
REMARK                            x       y       z     vdW  Elec       q    Type
REMARK                         _______ _______ _______ _____ _____    ______ ____
ROOT
ATOM      1  C   UNL     1      48.297   4.126  16.955  0.00  0.00    +0.000 C 
ENDROOT
BRANCH   1   2
ATOM      2  C   UNL     1      49.653   3.435  17.155  0.00  0.00    +0.000 A 
ATOM      3  C   UNL     1      50.775   4.153  17.605  0.00  0.00    +0.000 A 
ATOM      4  C   UNL     1      51.985   3.514  17.911  0.00  0.00    +0.000 A 
ATOM      5  C   UNL     1      52.121   2.129  17.775  0.00  0.00    +0.000 A 
ATOM      6  C   UNL     1      51.018   1.399  17.321  0.00  0.00    +0.000 A 
ATOM      7  C   UNL     1      49.807   2.042  17.018  0.00  0.00    +0.000 A 
BRANCH   5   8
ATOM      8  C   UNL     1      53.414   1.446  18.139  0.00  0.00    +0.000 C 
BRANCH   8   9
ATOM      9  N   UNL     1      53.264   0.009  18.221  0.00  0.00    +0.000 N 
ATOM     10  C   UNL     1      54.300  -0.772  18.698  0.00  0.00    +0.000 C 
ATOM     11  O   UNL     1      55.374  -0.313  19.066  0.00  0.00    +0.000 OA
ATOM     12  H   UNL     1      52.329  -0.372  18.177  0.00  0.00    +0.000 HD
BRANCH  10  13
ATOM     13  C   UNL     1      54.047  -2.231  18.775  0.00  0.00    +0.000 A 
ATOM     14  C   UNL     1      53.044  -2.780  19.576  0.00  0.00    +0.000 A 
ATOM     15  C   UNL     1      52.853  -4.161  19.580  0.00  0.00    +0.000 A 
ATOM     16  C   UNL     1      53.672  -4.945  18.781  0.00  0.00    +0.000 A 
ATOM     17  N   UNL     1      54.640  -4.444  17.984  0.00  0.00    +0.000 NA
ATOM     18  C   UNL     1      54.799  -3.096  17.988  0.00  0.00    +0.000 A 
ENDBRANCH  10  13
ENDBRANCH   8   9
ENDBRANCH   5   8
ENDBRANCH   1   2
BRANCH   1  19
ATOM     19  N   UNL     1      47.290   3.253  16.326  0.00  0.00    +0.000 NA
ATOM     20  H   UNL     1      47.283   2.343  16.778  0.00  0.00    +0.000 HD
ATOM     21  H   UNL     1      47.534   3.106  15.346  0.00  0.00    +0.000 HD
ENDBRANCH   1  19
BRANCH   1  22
ATOM     22  C   UNL     1      48.315   5.472  16.167  0.00  0.00    +0.000 C 
BRANCH  22  23
ATOM     23  N   UNL     1      47.282   5.552  15.150  0.00  0.00    +0.000 N 
ATOM     24  C   UNL     1      47.527   5.972  13.871  0.00  0.00    +0.000 C 
ATOM     25  O   UNL     1      48.663   6.245  13.487  0.00  0.00    +0.000 OA
ATOM     26  H   UNL     1      46.326   5.507  15.484  0.00  0.00    +0.000 HD
BRANCH  24  27
ATOM     27  C   UNL     1      46.371   6.030  12.961  0.00  0.00    +0.000 A 
ATOM     28  C   UNL     1      45.891   7.265  12.539  0.00  0.00    +0.000 A 
ATOM     29  S   UNL     1      44.635   7.159  11.390  0.00  0.00    +0.000 S 
ATOM     30  C   UNL     1      44.661   5.459  11.439  0.00  0.00    +0.000 A 
ATOM     31  N   UNL     1      43.834   4.727  10.645  0.00  0.00    +0.000 NA
ATOM     32  C   UNL     1      43.960   3.449  10.776  0.00  0.00    +0.000 A 
ATOM     33  N   UNL     1      44.824   2.836  11.646  0.00  0.00    +0.000 N 
ATOM     34  C   UNL     1      45.626   3.535  12.514  0.00  0.00    +0.000 A 
ATOM     35  O   UNL     1      46.290   2.950  13.367  0.00  0.00    +0.000 OA
ATOM     36  C   UNL     1      45.586   4.977  12.350  0.00  0.00    +0.000 A 
ATOM     37  H   UNL     1      44.840   1.831  11.734  0.00  0.00    +0.000 HD
ENDBRANCH  24  27
ENDBRANCH  22  23
ENDBRANCH   1  22
TORSDOF 8
ENDMDL
MODEL 6
REMARK VINA RESULT:    -7.581      2.697      3.393
REMARK INTER + INTRA:         -11.944
REMARK INTER:                 -10.577
REMARK INTRA:                  -1.368
REMARK UNBOUND:                -1.039
REMARK  Name = 
REMARK  8 active torsions:
REMARK  status: ('A' for Active; 'I' for Inactive)
REMARK    1  A    between atoms: N_1  and  C_2
REMARK    2  A    between atoms: C_2  and  C_3
REMARK    3  A    between atoms: C_2  and  C_17
REMARK    4  A    between atoms: C_3  and  N_4
REMARK    5  A    between atoms: C_5  and  C_7
REMARK    6  A    between atoms: C_20  and  C_21
REMARK    7  A    between atoms: C_21  and  N_22
REMARK    8  A    between atoms: C_23  and  C_25
REMARK                            x       y       z     vdW  Elec       q    Type
REMARK                         _______ _______ _______ _____ _____    ______ ____
ROOT
ATOM      1  C   UNL     1      48.578   7.727  13.808  0.00  0.00    +0.000 C 
ENDROOT
BRANCH   1   2
ATOM      2  C   UNL     1      47.507   6.778  13.250  0.00  0.00    +0.000 A 
ATOM      3  C   UNL     1      46.875   7.037  12.021  0.00  0.00    +0.000 A 
ATOM      4  C   UNL     1      45.988   6.120  11.441  0.00  0.00    +0.000 A 
ATOM      5  C   UNL     1      45.696   4.906  12.069  0.00  0.00    +0.000 A 
ATOM      6  C   UNL     1      46.308   4.634  13.297  0.00  0.00    +0.000 A 
ATOM      7  C   UNL     1      47.199   5.554  13.874  0.00  0.00    +0.000 A 
BRANCH   5   8
ATOM      8  C   UNL     1      44.768   3.910  11.421  0.00  0.00    +0.000 C 
BRANCH   8   9
ATOM      9  N   UNL     1      45.412   3.194  10.340  0.00  0.00    +0.000 N 
ATOM     10  C   UNL     1      45.133   3.522   9.026  0.00  0.00    +0.000 C 
ATOM     11  O   UNL     1      44.349   4.407   8.706  0.00  0.00    +0.000 OA
ATOM     12  H   UNL     1      46.238   2.654  10.556  0.00  0.00    +0.000 HD
BRANCH  10  13
ATOM     13  C   UNL     1      45.861   2.758   7.986  0.00  0.00    +0.000 A 
ATOM     14  C   UNL     1      46.250   3.323   6.770  0.00  0.00    +0.000 A 
ATOM     15  C   UNL     1      46.950   2.546   5.848  0.00  0.00    +0.000 A 
ATOM     16  C   UNL     1      47.238   1.229   6.176  0.00  0.00    +0.000 A 
ATOM     17  N   UNL     1      46.888   0.657   7.348  0.00  0.00    +0.000 NA
ATOM     18  C   UNL     1      46.218   1.438   8.234  0.00  0.00    +0.000 A 
ENDBRANCH  10  13
ENDBRANCH   8   9
ENDBRANCH   5   8
ENDBRANCH   1   2
BRANCH   1  19
ATOM     19  N   UNL     1      49.735   7.018  14.385  0.00  0.00    +0.000 NA
ATOM     20  H   UNL     1      50.556   7.159  13.806  0.00  0.00    +0.000 HD
ATOM     21  H   UNL     1      49.542   6.016  14.406  0.00  0.00    +0.000 HD
ENDBRANCH   1  19
BRANCH   1  22
ATOM     22  C   UNL     1      48.094   8.776  14.856  0.00  0.00    +0.000 C 
BRANCH  22  23
ATOM     23  N   UNL     1      47.996   8.237  16.201  0.00  0.00    +0.000 N 
ATOM     24  C   UNL     1      48.370   8.939  17.314  0.00  0.00    +0.000 C 
ATOM     25  O   UNL     1      48.754  10.104  17.243  0.00  0.00    +0.000 OA
ATOM     26  H   UNL     1      47.856   7.235  16.268  0.00  0.00    +0.000 HD
BRANCH  24  27
ATOM     27  C   UNL     1      48.242   8.246  18.607  0.00  0.00    +0.000 A 
ATOM     28  C   UNL     1      47.707   8.921  19.698  0.00  0.00    +0.000 A 
ATOM     29  S   UNL     1      47.505   7.943  21.080  0.00  0.00    +0.000 S 
ATOM     30  C   UNL     1      48.156   6.589  20.284  0.00  0.00    +0.000 A 
ATOM     31  N   UNL     1      48.238   5.385  20.912  0.00  0.00    +0.000 NA
ATOM     32  C   UNL     1      48.746   4.441  20.193  0.00  0.00    +0.000 A 
ATOM     33  N   UNL     1      49.199   4.596  18.909  0.00  0.00    +0.000 N 
ATOM     34  C   UNL     1      49.199   5.807  18.261  0.00  0.00    +0.000 A 
ATOM     35  O   UNL     1      49.733   5.933  17.162  0.00  0.00    +0.000 OA
ATOM     36  C   UNL     1      48.561   6.887  18.994  0.00  0.00    +0.000 A 
ATOM     37  H   UNL     1      49.630   3.827  18.418  0.00  0.00    +0.000 HD
ENDBRANCH  24  27
ENDBRANCH  22  23
ENDBRANCH   1  22
TORSDOF 8
ENDMDL
MODEL 7
REMARK VINA RESULT:    -7.360      1.496      2.073
REMARK INTER + INTRA:         -11.626
REMARK INTER:                 -10.450
REMARK INTRA:                  -1.176
REMARK UNBOUND:                -1.039
REMARK  Name = 
REMARK  8 active torsions:
REMARK  status: ('A' for Active; 'I' for Inactive)
REMARK    1  A    between atoms: N_1  and  C_2
REMARK    2  A    between atoms: C_2  and  C_3
REMARK    3  A    between atoms: C_2  and  C_17
REMARK    4  A    between atoms: C_3  and  N_4
REMARK    5  A    between atoms: C_5  and  C_7
REMARK    6  A    between atoms: C_20  and  C_21
REMARK    7  A    between atoms: C_21  and  N_22
REMARK    8  A    between atoms: C_23  and  C_25
REMARK                            x       y       z     vdW  Elec       q    Type
REMARK                         _______ _______ _______ _____ _____    ______ ____
ROOT
ATOM      1  C   UNL     1      47.640   4.921  15.285  0.00  0.00    +0.000 C 
ENDROOT
BRANCH   1   2
ATOM      2  C   UNL     1      46.834   4.783  13.985  0.00  0.00    +0.000 A 
ATOM      3  C   UNL     1      46.425   3.524  13.514  0.00  0.00    +0.000 A 
ATOM      4  C   UNL     1      45.585   3.391  12.399  0.00  0.00    +0.000 A 
ATOM      5  C   UNL     1      45.122   4.516  11.710  0.00  0.00    +0.000 A 
ATOM      6  C   UNL     1      45.525   5.777  12.159  0.00  0.00    +0.000 A 
ATOM      7  C   UNL     1      46.364   5.907  13.278  0.00  0.00    +0.000 A 
BRANCH   5   8
ATOM      8  C   UNL     1      44.191   4.365  10.534  0.00  0.00    +0.000 C 
BRANCH   8   9
ATOM      9  N   UNL     1      44.770   3.556   9.483  0.00  0.00    +0.000 N 
ATOM     10  C   UNL     1      45.665   4.114   8.590  0.00  0.00    +0.000 C 
ATOM     11  O   UNL     1      46.009   5.289   8.628  0.00  0.00    +0.000 OA
ATOM     12  H   UNL     1      44.717   2.551   9.576  0.00  0.00    +0.000 HD
BRANCH  10  13
ATOM     13  C   UNL     1      46.232   3.204   7.566  0.00  0.00    +0.000 A 
ATOM     14  C   UNL     1      46.551   3.629   6.275  0.00  0.00    +0.000 A 
ATOM     15  C   UNL     1      47.100   2.719   5.373  0.00  0.00    +0.000 A 
ATOM     16  C   UNL     1      47.313   1.415   5.795  0.00  0.00    +0.000 A 
ATOM     17  N   UNL     1      47.028   0.976   7.040  0.00  0.00    +0.000 NA
ATOM     18  C   UNL     1      46.506   1.884   7.904  0.00  0.00    +0.000 A 
ENDBRANCH  10  13
ENDBRANCH   8   9
ENDBRANCH   5   8
ENDBRANCH   1   2
BRANCH   1  19
ATOM     19  N   UNL     1      46.827   4.707  16.496  0.00  0.00    +0.000 NA
ATOM     20  H   UNL     1      47.399   4.824  17.327  0.00  0.00    +0.000 HD
ATOM     21  H   UNL     1      46.472   3.750  16.500  0.00  0.00    +0.000 HD
ENDBRANCH   1  19
BRANCH   1  22
ATOM     22  C   UNL     1      48.427   6.255  15.472  0.00  0.00    +0.000 C 
BRANCH  22  23
ATOM     23  N   UNL     1      49.576   6.121  16.351  0.00  0.00    +0.000 N 
ATOM     24  C   UNL     1      49.547   6.473  17.673  0.00  0.00    +0.000 C 
ATOM     25  O   UNL     1      48.515   6.864  18.215  0.00  0.00    +0.000 OA
ATOM     26  H   UNL     1      50.468   5.975  15.894  0.00  0.00    +0.000 HD
BRANCH  24  27
ATOM     27  C   UNL     1      50.801   6.309  18.428  0.00  0.00    +0.000 A 
ATOM     28  C   UNL     1      51.335   7.393  19.114  0.00  0.00    +0.000 A 
ATOM     29  S   UNL     1      52.714   7.009  20.041  0.00  0.00    +0.000 S 
ATOM     30  C   UNL     1      52.670   5.386  19.534  0.00  0.00    +0.000 A 
ATOM     31  N   UNL     1      53.576   4.486  19.999  0.00  0.00    +0.000 NA
ATOM     32  C   UNL     1      53.426   3.290  19.540  0.00  0.00    +0.000 A 
ATOM     33  N   UNL     1      52.463   2.915  18.639  0.00  0.00    +0.000 N 
ATOM     34  C   UNL     1      51.572   3.804  18.091  0.00  0.00    +0.000 A 
ATOM     35  O   UNL     1      50.810   3.458  17.191  0.00  0.00    +0.000 OA
ATOM     36  C   UNL     1      51.642   5.149  18.636  0.00  0.00    +0.000 A 
ATOM     37  H   UNL     1      52.429   1.972  18.283  0.00  0.00    +0.000 HD
ENDBRANCH  24  27
ENDBRANCH  22  23
ENDBRANCH   1  22
TORSDOF 8
ENDMDL
MODEL 8
REMARK VINA RESULT:    -7.331      2.880      9.199
REMARK INTER + INTRA:         -11.584
REMARK INTER:                 -11.539
REMARK INTRA:                  -0.045
REMARK UNBOUND:                -1.039
REMARK  Name = 
REMARK  8 active torsions:
REMARK  status: ('A' for Active; 'I' for Inactive)
REMARK    1  A    between atoms: N_1  and  C_2
REMARK    2  A    between atoms: C_2  and  C_3
REMARK    3  A    between atoms: C_2  and  C_17
REMARK    4  A    between atoms: C_3  and  N_4
REMARK    5  A    between atoms: C_5  and  C_7
REMARK    6  A    between atoms: C_20  and  C_21
REMARK    7  A    between atoms: C_21  and  N_22
REMARK    8  A    between atoms: C_23  and  C_25
REMARK                            x       y       z     vdW  Elec       q    Type
REMARK                         _______ _______ _______ _____ _____    ______ ____
ROOT
ATOM      1  C   UNL     1      47.886   8.188  13.185  0.00  0.00    +0.000 C 
ENDROOT
BRANCH   1   2
ATOM      2  C   UNL     1      47.979   6.976  14.122  0.00  0.00    +0.000 A 
ATOM      3  C   UNL     1      48.730   7.032  15.310  0.00  0.00    +0.000 A 
ATOM      4  C   UNL     1      48.724   5.979  16.235  0.00  0.00    +0.000 A 
ATOM      5  C   UNL     1      47.968   4.826  16.007  0.00  0.00    +0.000 A 
ATOM      6  C   UNL     1      47.222   4.748  14.828  0.00  0.00    +0.000 A 
ATOM      7  C   UNL     1      47.227   5.806  13.904  0.00  0.00    +0.000 A 
BRANCH   5   8
ATOM      8  C   UNL     1      47.940   3.714  17.025  0.00  0.00    +0.000 C 
BRANCH   8   9
ATOM      9  N   UNL     1      49.258   3.427  17.551  0.00  0.00    +0.000 N 
ATOM     10  C   UNL     1      50.027   2.424  16.992  0.00  0.00    +0.000 C 
ATOM     11  O   UNL     1      49.653   1.736  16.050  0.00  0.00    +0.000 OA
ATOM     12  H   UNL     1      49.695   4.124  18.137  0.00  0.00    +0.000 HD
BRANCH  10  13
ATOM     13  C   UNL     1      51.374   2.221  17.575  0.00  0.00    +0.000 A 
ATOM     14  C   UNL     1      52.132   3.267  18.103  0.00  0.00    +0.000 A 
ATOM     15  C   UNL     1      53.383   2.994  18.653  0.00  0.00    +0.000 A 
ATOM     16  C   UNL     1      53.833   1.682  18.658  0.00  0.00    +0.000 A 
ATOM     17  N   UNL     1      53.119   0.645  18.169  0.00  0.00    +0.000 NA
ATOM     18  C   UNL     1      51.898   0.935  17.649  0.00  0.00    +0.000 A 
ENDBRANCH  10  13
ENDBRANCH   8   9
ENDBRANCH   5   8
ENDBRANCH   1   2
BRANCH   1  19
ATOM     19  N   UNL     1      47.861   9.475  13.903  0.00  0.00    +0.000 NA
ATOM     20  H   UNL     1      48.031  10.240  13.257  0.00  0.00    +0.000 HD
ATOM     21  H   UNL     1      48.608   9.490  14.598  0.00  0.00    +0.000 HD
ENDBRANCH   1  19
BRANCH   1  22
ATOM     22  C   UNL     1      46.700   8.189  12.171  0.00  0.00    +0.000 C 
BRANCH  22  23
ATOM     23  N   UNL     1      46.207   6.857  11.869  0.00  0.00    +0.000 N 
ATOM     24  C   UNL     1      44.898   6.599  11.559  0.00  0.00    +0.000 C 
ATOM     25  O   UNL     1      44.070   7.501  11.455  0.00  0.00    +0.000 OA
ATOM     26  H   UNL     1      46.818   6.089  12.121  0.00  0.00    +0.000 HD
BRANCH  24  27
ATOM     27  C   UNL     1      44.543   5.192  11.309  0.00  0.00    +0.000 A 
ATOM     28  C   UNL     1      43.820   4.486  12.263  0.00  0.00    +0.000 A 
ATOM     29  S   UNL     1      43.378   2.915  11.767  0.00  0.00    +0.000 S 
ATOM     30  C   UNL     1      44.165   3.107  10.272  0.00  0.00    +0.000 A 
ATOM     31  N   UNL     1      44.138   2.118   9.338  0.00  0.00    +0.000 NA
ATOM     32  C   UNL     1      44.769   2.395   8.247  0.00  0.00    +0.000 A 
ATOM     33  N   UNL     1      45.444   3.564   8.012  0.00  0.00    +0.000 N 
ATOM     34  C   UNL     1      45.555   4.561   8.950  0.00  0.00    +0.000 A 
ATOM     35  O   UNL     1      46.276   5.535   8.751  0.00  0.00    +0.000 OA
ATOM     36  C   UNL     1      44.794   4.337  10.167  0.00  0.00    +0.000 A 
ATOM     37  H   UNL     1      45.957   3.700   7.154  0.00  0.00    +0.000 HD
ENDBRANCH  24  27
ENDBRANCH  22  23
ENDBRANCH   1  22
TORSDOF 8
ENDMDL
MODEL 9
REMARK VINA RESULT:    -7.024      3.883      8.706
REMARK INTER + INTRA:         -11.143
REMARK INTER:                  -9.714
REMARK INTRA:                  -1.428
REMARK UNBOUND:                -1.039
REMARK  Name = 
REMARK  8 active torsions:
REMARK  status: ('A' for Active; 'I' for Inactive)
REMARK    1  A    between atoms: N_1  and  C_2
REMARK    2  A    between atoms: C_2  and  C_3
REMARK    3  A    between atoms: C_2  and  C_17
REMARK    4  A    between atoms: C_3  and  N_4
REMARK    5  A    between atoms: C_5  and  C_7
REMARK    6  A    between atoms: C_20  and  C_21
REMARK    7  A    between atoms: C_21  and  N_22
REMARK    8  A    between atoms: C_23  and  C_25
REMARK                            x       y       z     vdW  Elec       q    Type
REMARK                         _______ _______ _______ _____ _____    ______ ____
ROOT
ATOM      1  C   UNL     1      48.651   9.214  16.780  0.00  0.00    +0.000 C 
ENDROOT
BRANCH   1   2
ATOM      2  C   UNL     1      48.782   7.748  17.215  0.00  0.00    +0.000 A 
ATOM      3  C   UNL     1      47.863   7.169  18.107  0.00  0.00    +0.000 A 
ATOM      4  C   UNL     1      47.897   5.802  18.416  0.00  0.00    +0.000 A 
ATOM      5  C   UNL     1      48.856   4.959  17.847  0.00  0.00    +0.000 A 
ATOM      6  C   UNL     1      49.785   5.519  16.964  0.00  0.00    +0.000 A 
ATOM      7  C   UNL     1      49.746   6.888  16.654  0.00  0.00    +0.000 A 
BRANCH   5   8
ATOM      8  C   UNL     1      48.863   3.484  18.158  0.00  0.00    +0.000 C 
BRANCH   8   9
ATOM      9  N   UNL     1      50.205   2.978  18.353  0.00  0.00    +0.000 N 
ATOM     10  C   UNL     1      50.773   2.137  17.415  0.00  0.00    +0.000 C 
ATOM     11  O   UNL     1      50.195   1.777  16.397  0.00  0.00    +0.000 OA
ATOM     12  H   UNL     1      50.794   3.447  19.027  0.00  0.00    +0.000 HD
BRANCH  10  13
ATOM     13  C   UNL     1      52.161   1.691  17.681  0.00  0.00    +0.000 A 
ATOM     14  C   UNL     1      52.517   0.344  17.764  0.00  0.00    +0.000 A 
ATOM     15  C   UNL     1      53.849   0.003  17.997  0.00  0.00    +0.000 A 
ATOM     16  C   UNL     1      54.779   1.022  18.137  0.00  0.00    +0.000 A 
ATOM     17  N   UNL     1      54.471   2.333  18.048  0.00  0.00    +0.000 NA
ATOM     18  C   UNL     1      53.169   2.640  17.809  0.00  0.00    +0.000 A 
ENDBRANCH  10  13
ENDBRANCH   8   9
ENDBRANCH   5   8
ENDBRANCH   1   2
BRANCH   1  19
ATOM     19  N   UNL     1      47.512   9.905  17.412  0.00  0.00    +0.000 NA
ATOM     20  H   UNL     1      47.234   9.420  18.259  0.00  0.00    +0.000 HD
ATOM     21  H   UNL     1      46.713   9.893  16.776  0.00  0.00    +0.000 HD
ENDBRANCH   1  19
BRANCH   1  22
ATOM     22  C   UNL     1      48.570   9.475  15.244  0.00  0.00    +0.000 C 
BRANCH  22  23
ATOM     23  N   UNL     1      47.502   8.735  14.594  0.00  0.00    +0.000 N 
ATOM     24  C   UNL     1      47.728   7.812  13.609  0.00  0.00    +0.000 C 
ATOM     25  O   UNL     1      48.866   7.507  13.259  0.00  0.00    +0.000 OA
ATOM     26  H   UNL     1      46.565   9.093  14.735  0.00  0.00    +0.000 HD
BRANCH  24  27
ATOM     27  C   UNL     1      46.541   7.167  13.024  0.00  0.00    +0.000 A 
ATOM     28  C   UNL     1      45.605   7.938  12.344  0.00  0.00    +0.000 A 
ATOM     29  S   UNL     1      44.361   7.027  11.616  0.00  0.00    +0.000 S 
ATOM     30  C   UNL     1      45.006   5.570  12.210  0.00  0.00    +0.000 A 
ATOM     31  N   UNL     1      44.424   4.378  11.913  0.00  0.00    +0.000 NA
ATOM     32  C   UNL     1      45.017   3.351  12.422  0.00  0.00    +0.000 A 
ATOM     33  N   UNL     1      46.130   3.409  13.219  0.00  0.00    +0.000 N 
ATOM     34  C   UNL     1      46.710   4.594  13.601  0.00  0.00    +0.000 A 
ATOM     35  O   UNL     1      47.626   4.611  14.421  0.00  0.00    +0.000 OA
ATOM     36  C   UNL     1      46.133   5.778  12.989  0.00  0.00    +0.000 A 
ATOM     37  H   UNL     1      46.519   2.571  13.625  0.00  0.00    +0.000 HD
ENDBRANCH  24  27
ENDBRANCH  22  23
ENDBRANCH   1  22
TORSDOF 8
ENDMDL
