MODEL 1
REMARK VINA RESULT:    -8.430      0.000      0.000
REMARK INTER + INTRA:         -13.470
REMARK INTER:                 -12.126
REMARK INTRA:                  -1.344
REMARK UNBOUND:                -1.344
REMARK  Name = 
REMARK  8 active torsions:
REMARK  status: ('A' for Active; 'I' for Inactive)
REMARK    1  A    between atoms: C_2  and  C_20
REMARK    2  A    between atoms: N_3  and  C_4
REMARK    3  A    between atoms: C_4  and  C_5
REMARK    4  A    between atoms: C_8  and  C_9
REMARK    5  A    between atoms: C_9  and  C_10
REMARK    6  A    between atoms: C_10  and  O_11
REMARK    7  A    between atoms: C_10  and  C_12
REMARK    8  A    between atoms: C_12  and  C_13
REMARK                            x       y       z     vdW  Elec       q    Type
REMARK                         _______ _______ _______ _____ _____    ______ ____
ROOT
ATOM      1  C   UNL     1      46.131   7.067  12.410  0.00  0.00    +0.000 A 
ATOM      2  C   UNL     1      46.584   6.634  11.156  0.00  0.00    +0.000 A 
ATOM      3  C   UNL     1      45.826   5.741  10.392  0.00  0.00    +0.000 A 
ATOM      4  C   UNL     1      44.590   5.280  10.857  0.00  0.00    +0.000 A 
ATOM      5  C   UNL     1      44.118   5.745  12.091  0.00  0.00    +0.000 A 
ATOM      6  C   UNL     1      44.878   6.635  12.857  0.00  0.00    +0.000 A 
ENDROOT
BRANCH   1   7
ATOM      7  C   UNL     1      46.973   7.992  13.249  0.00  0.00    +0.000 C 
BRANCH   7  10
ATOM      8  O   UNL     1      49.370   6.623  13.518  0.00  0.00    +0.000 OA
ATOM      9  C   UNL     1      48.657   6.747  14.510  0.00  0.00    +0.000 C 
ATOM     10  N   UNL     1      47.424   7.347  14.455  0.00  0.00    +0.000 N 
ATOM     11  H   UNL     1      46.964   7.618  15.316  0.00  0.00    +0.000 HD
BRANCH   9  12
ATOM     12  C   UNL     1      49.070   6.219  15.816  0.00  0.00    +0.000 A 
ATOM     13  C   UNL     1      50.078   6.851  16.532  0.00  0.00    +0.000 A 
ATOM     14  S   UNL     1      50.434   6.094  18.019  0.00  0.00    +0.000 S 
ATOM     15  C   UNL     1      49.220   4.926  17.779  0.00  0.00    +0.000 A 
ATOM     16  N   UNL     1      48.969   3.974  18.718  0.00  0.00    +0.000 NA
ATOM     17  C   UNL     1      47.997   3.177  18.422  0.00  0.00    +0.000 A 
ATOM     18  N   UNL     1      47.262   3.237  17.269  0.00  0.00    +0.000 N 
ATOM     19  C   UNL     1      47.500   4.160  16.279  0.00  0.00    +0.000 A 
ATOM     20  O   UNL     1      46.855   4.153  15.236  0.00  0.00    +0.000 OA
ATOM     21  C   UNL     1      48.568   5.095  16.572  0.00  0.00    +0.000 A 
ATOM     22  H   UNL     1      46.520   2.576  17.090  0.00  0.00    +0.000 HD
ENDBRANCH   9  12
ENDBRANCH   7  10
ENDBRANCH   1   7
BRANCH   4  23
ATOM     23  C   UNL     1      43.794   4.258  10.071  0.00  0.00    +0.000 C 
BRANCH  23  24
ATOM     24  C   UNL     1      44.226   2.812  10.378  0.00  0.00    +0.000 C 
BRANCH  24  25
ATOM     25  O   UNL     1      43.225   2.140  11.150  0.00  0.00    +0.000 OA
ATOM     26  H   UNL     1      42.519   1.857  10.544  0.00  0.00    +0.000 HD
ENDBRANCH  24  25
BRANCH  24  27
ATOM     27  C   UNL     1      44.466   2.003   9.093  0.00  0.00    +0.000 C 
BRANCH  27  28
ATOM     28  C   UNL     1      45.892   2.181   8.555  0.00  0.00    +0.000 C 
ATOM     29  C   UNL     1      45.993   3.124   7.367  0.00  0.00    +0.000 C 
ATOM     30  C   UNL     1      47.346   2.774   6.778  0.00  0.00    +0.000 C 
ATOM     31  C   UNL     1      47.557   1.310   7.145  0.00  0.00    +0.000 C 
ATOM     32  N   UNL     1      46.425   0.931   7.998  0.00  0.00    +0.000 NA
ATOM     33  H   UNL     1      46.735   0.305   8.740  0.00  0.00    +0.000 HD
ENDBRANCH  27  28
ENDBRANCH  24  27
ENDBRANCH  23  24
ENDBRANCH   4  23
TORSDOF 8
ENDMDL
MODEL 2
REMARK VINA RESULT:    -7.298      1.777      2.241
REMARK INTER + INTRA:         -11.841
REMARK INTER:                 -10.468
REMARK INTRA:                  -1.373
REMARK UNBOUND:                -1.344
REMARK  Name = 
REMARK  8 active torsions:
REMARK  status: ('A' for Active; 'I' for Inactive)
REMARK    1  A    between atoms: C_2  and  C_20
REMARK    2  A    between atoms: N_3  and  C_4
REMARK    3  A    between atoms: C_4  and  C_5
REMARK    4  A    between atoms: C_8  and  C_9
REMARK    5  A    between atoms: C_9  and  C_10
REMARK    6  A    between atoms: C_10  and  O_11
REMARK    7  A    between atoms: C_10  and  C_12
REMARK    8  A    between atoms: C_12  and  C_13
REMARK                            x       y       z     vdW  Elec       q    Type
REMARK                         _______ _______ _______ _____ _____    ______ ____
ROOT
ATOM      1  C   UNL     1      46.856   6.733  13.131  0.00  0.00    +0.000 A 
ATOM      2  C   UNL     1      45.577   7.198  12.800  0.00  0.00    +0.000 A 
ATOM      3  C   UNL     1      44.502   6.310  12.680  0.00  0.00    +0.000 A 
ATOM      4  C   UNL     1      44.683   4.942  12.908  0.00  0.00    +0.000 A 
ATOM      5  C   UNL     1      45.953   4.483  13.280  0.00  0.00    +0.000 A 
ATOM      6  C   UNL     1      47.028   5.370  13.397  0.00  0.00    +0.000 A 
ENDROOT
BRANCH   1   7
ATOM      7  C   UNL     1      48.019   7.687  13.213  0.00  0.00    +0.000 C 
BRANCH   7  10
ATOM      8  O   UNL     1      49.550   9.040  15.088  0.00  0.00    +0.000 OA
ATOM      9  C   UNL     1      49.778   7.849  14.903  0.00  0.00    +0.000 C 
ATOM     10  N   UNL     1      49.119   7.117  13.947  0.00  0.00    +0.000 N 
ATOM     11  H   UNL     1      49.179   6.106  13.965  0.00  0.00    +0.000 HD
BRANCH   9  12
ATOM     12  C   UNL     1      50.808   7.140  15.673  0.00  0.00    +0.000 A 
ATOM     13  C   UNL     1      52.141   7.511  15.552  0.00  0.00    +0.000 A 
ATOM     14  S   UNL     1      53.198   6.573  16.508  0.00  0.00    +0.000 S 
ATOM     15  C   UNL     1      51.905   5.673  17.153  0.00  0.00    +0.000 A 
ATOM     16  N   UNL     1      52.122   4.703  18.082  0.00  0.00    +0.000 NA
ATOM     17  C   UNL     1      51.049   4.127  18.511  0.00  0.00    +0.000 A 
ATOM     18  N   UNL     1      49.781   4.423  18.088  0.00  0.00    +0.000 N 
ATOM     19  C   UNL     1      49.517   5.371  17.128  0.00  0.00    +0.000 A 
ATOM     20  O   UNL     1      48.373   5.575  16.736  0.00  0.00    +0.000 OA
ATOM     21  C   UNL     1      50.687   6.065  16.630  0.00  0.00    +0.000 A 
ATOM     22  H   UNL     1      48.982   3.928  18.454  0.00  0.00    +0.000 HD
ENDBRANCH   9  12
ENDBRANCH   7  10
ENDBRANCH   1   7
BRANCH   4  23
ATOM     23  C   UNL     1      43.544   3.962  12.711  0.00  0.00    +0.000 C 
BRANCH  23  24
ATOM     24  C   UNL     1      43.839   2.931  11.606  0.00  0.00    +0.000 C 
BRANCH  24  25
ATOM     25  O   UNL     1      42.827   1.919  11.578  0.00  0.00    +0.000 OA
ATOM     26  H   UNL     1      42.030   2.304  11.177  0.00  0.00    +0.000 HD
ENDBRANCH  24  25
BRANCH  24  27
ATOM     27  C   UNL     1      43.903   3.586  10.216  0.00  0.00    +0.000 C 
BRANCH  27  28
ATOM     28  C   UNL     1      45.163   3.179   9.442  0.00  0.00    +0.000 C 
ATOM     29  C   UNL     1      45.204   3.691   8.011  0.00  0.00    +0.000 C 
ATOM     30  C   UNL     1      46.258   2.808   7.371  0.00  0.00    +0.000 C 
ATOM     31  C   UNL     1      46.196   1.504   8.158  0.00  0.00    +0.000 C 
ATOM     32  N   UNL     1      45.239   1.724   9.247  0.00  0.00    +0.000 NA
ATOM     33  H   UNL     1      45.556   1.261  10.097  0.00  0.00    +0.000 HD
ENDBRANCH  27  28
ENDBRANCH  24  27
ENDBRANCH  23  24
ENDBRANCH   4  23
TORSDOF 8
ENDMDL
MODEL 3
REMARK VINA RESULT:    -7.076      2.574      3.037
REMARK INTER + INTRA:         -11.523
REMARK INTER:                 -10.615
REMARK INTRA:                  -0.908
REMARK UNBOUND:                -1.344
REMARK  Name = 
REMARK  8 active torsions:
REMARK  status: ('A' for Active; 'I' for Inactive)
REMARK    1  A    between atoms: C_2  and  C_20
REMARK    2  A    between atoms: N_3  and  C_4
REMARK    3  A    between atoms: C_4  and  C_5
REMARK    4  A    between atoms: C_8  and  C_9
REMARK    5  A    between atoms: C_9  and  C_10
REMARK    6  A    between atoms: C_10  and  O_11
REMARK    7  A    between atoms: C_10  and  C_12
REMARK    8  A    between atoms: C_12  and  C_13
REMARK                            x       y       z     vdW  Elec       q    Type
REMARK                         _______ _______ _______ _____ _____    ______ ____
ROOT
ATOM      1  C   UNL     1      47.217   6.466  13.234  0.00  0.00    +0.000 A 
ATOM      2  C   UNL     1      46.550   7.266  12.296  0.00  0.00    +0.000 A 
ATOM      3  C   UNL     1      45.573   6.719  11.457  0.00  0.00    +0.000 A 
ATOM      4  C   UNL     1      45.230   5.366  11.555  0.00  0.00    +0.000 A 
ATOM      5  C   UNL     1      45.867   4.577  12.520  0.00  0.00    +0.000 A 
ATOM      6  C   UNL     1      46.846   5.123  13.357  0.00  0.00    +0.000 A 
ENDROOT
BRANCH   1   7
ATOM      7  C   UNL     1      48.301   7.049  14.102  0.00  0.00    +0.000 C 
BRANCH   7  10
ATOM      8  O   UNL     1      50.228   6.283  15.944  0.00  0.00    +0.000 OA
ATOM      9  C   UNL     1      49.086   6.483  16.347  0.00  0.00    +0.000 C 
ATOM     10  N   UNL     1      48.054   6.796  15.498  0.00  0.00    +0.000 N 
ATOM     11  H   UNL     1      47.187   7.157  15.879  0.00  0.00    +0.000 HD
BRANCH   9  12
ATOM     12  C   UNL     1      48.746   6.357  17.769  0.00  0.00    +0.000 A 
ATOM     13  C   UNL     1      48.983   5.161  18.435  0.00  0.00    +0.000 A 
ATOM     14  S   UNL     1      48.515   5.191  20.076  0.00  0.00    +0.000 S 
ATOM     15  C   UNL     1      48.026   6.818  19.965  0.00  0.00    +0.000 A 
ATOM     16  N   UNL     1      47.546   7.480  21.052  0.00  0.00    +0.000 NA
ATOM     17  C   UNL     1      47.248   8.718  20.832  0.00  0.00    +0.000 A 
ATOM     18  N   UNL     1      47.374   9.349  19.624  0.00  0.00    +0.000 N 
ATOM     19  C   UNL     1      47.823   8.711  18.492  0.00  0.00    +0.000 A 
ATOM     20  O   UNL     1      47.875   9.294  17.414  0.00  0.00    +0.000 OA
ATOM     21  C   UNL     1      48.194   7.324  18.689  0.00  0.00    +0.000 A 
ATOM     22  H   UNL     1      47.113  10.317  19.513  0.00  0.00    +0.000 HD
ENDBRANCH   9  12
ENDBRANCH   7  10
ENDBRANCH   1   7
BRANCH   4  23
ATOM     23  C   UNL     1      44.225   4.748  10.604  0.00  0.00    +0.000 C 
BRANCH  23  24
ATOM     24  C   UNL     1      44.864   3.701   9.672  0.00  0.00    +0.000 C 
BRANCH  24  25
ATOM     25  O   UNL     1      43.879   2.773   9.208  0.00  0.00    +0.000 OA
ATOM     26  H   UNL     1      44.330   2.104   8.664  0.00  0.00    +0.000 HD
ENDBRANCH  24  25
BRANCH  24  27
ATOM     27  C   UNL     1      45.523   4.356   8.447  0.00  0.00    +0.000 C 
BRANCH  27  28
ATOM     28  C   UNL     1      45.840   3.336   7.346  0.00  0.00    +0.000 C 
ATOM     29  C   UNL     1      46.663   2.148   7.819  0.00  0.00    +0.000 C 
ATOM     30  C   UNL     1      47.199   1.575   6.520  0.00  0.00    +0.000 C 
ATOM     31  C   UNL     1      47.282   2.771   5.579  0.00  0.00    +0.000 C 
ATOM     32  N   UNL     1      46.702   3.908   6.303  0.00  0.00    +0.000 NA
ATOM     33  H   UNL     1      46.163   4.494   5.667  0.00  0.00    +0.000 HD
ENDBRANCH  27  28
ENDBRANCH  24  27
ENDBRANCH  23  24
ENDBRANCH   4  23
TORSDOF 8
ENDMDL
MODEL 4
REMARK VINA RESULT:    -6.972      2.624      3.230
REMARK INTER + INTRA:         -11.374
REMARK INTER:                 -10.284
REMARK INTRA:                  -1.089
REMARK UNBOUND:                -1.344
REMARK  Name = 
REMARK  8 active torsions:
REMARK  status: ('A' for Active; 'I' for Inactive)
REMARK    1  A    between atoms: C_2  and  C_20
REMARK    2  A    between atoms: N_3  and  C_4
REMARK    3  A    between atoms: C_4  and  C_5
REMARK    4  A    between atoms: C_8  and  C_9
REMARK    5  A    between atoms: C_9  and  C_10
REMARK    6  A    between atoms: C_10  and  O_11
REMARK    7  A    between atoms: C_10  and  C_12
REMARK    8  A    between atoms: C_12  and  C_13
REMARK                            x       y       z     vdW  Elec       q    Type
REMARK                         _______ _______ _______ _____ _____    ______ ____
ROOT
ATOM      1  C   UNL     1      46.762   4.604  14.147  0.00  0.00    +0.000 A 
ATOM      2  C   UNL     1      47.065   5.829  13.539  0.00  0.00    +0.000 A 
ATOM      3  C   UNL     1      46.684   6.085  12.217  0.00  0.00    +0.000 A 
ATOM      4  C   UNL     1      45.973   5.127  11.486  0.00  0.00    +0.000 A 
ATOM      5  C   UNL     1      45.634   3.919  12.107  0.00  0.00    +0.000 A 
ATOM      6  C   UNL     1      46.018   3.662  13.428  0.00  0.00    +0.000 A 
ENDROOT
BRANCH   1   7
ATOM      7  C   UNL     1      47.216   4.316  15.555  0.00  0.00    +0.000 C 
BRANCH   7  10
ATOM      8  O   UNL     1      49.718   4.658  16.699  0.00  0.00    +0.000 OA
ATOM      9  C   UNL     1      48.943   5.610  16.702  0.00  0.00    +0.000 C 
ATOM     10  N   UNL     1      47.662   5.511  16.221  0.00  0.00    +0.000 N 
ATOM     11  H   UNL     1      47.129   6.356  16.046  0.00  0.00    +0.000 HD
BRANCH   9  12
ATOM     12  C   UNL     1      49.333   6.910  17.261  0.00  0.00    +0.000 A 
ATOM     13  C   UNL     1      50.344   7.649  16.660  0.00  0.00    +0.000 A 
ATOM     14  S   UNL     1      50.672   9.124  17.451  0.00  0.00    +0.000 S 
ATOM     15  C   UNL     1      49.442   8.849  18.594  0.00  0.00    +0.000 A 
ATOM     16  N   UNL     1      49.167   9.766  19.561  0.00  0.00    +0.000 NA
ATOM     17  C   UNL     1      48.186   9.444  20.336  0.00  0.00    +0.000 A 
ATOM     18  N   UNL     1      47.464   8.285  20.242  0.00  0.00    +0.000 N 
ATOM     19  C   UNL     1      47.727   7.316  19.304  0.00  0.00    +0.000 A 
ATOM     20  O   UNL     1      47.093   6.266  19.280  0.00  0.00    +0.000 OA
ATOM     21  C   UNL     1      48.806   7.639  18.391  0.00  0.00    +0.000 A 
ATOM     22  H   UNL     1      46.714   8.085  20.887  0.00  0.00    +0.000 HD
ENDBRANCH   9  12
ENDBRANCH   7  10
ENDBRANCH   1   7
BRANCH   4  23
ATOM     23  C   UNL     1      45.618   5.365  10.032  0.00  0.00    +0.000 C 
BRANCH  23  24
ATOM     24  C   UNL     1      44.613   4.328   9.495  0.00  0.00    +0.000 C 
BRANCH  24  25
ATOM     25  O   UNL     1      43.274   4.823   9.599  0.00  0.00    +0.000 OA
ATOM     26  H   UNL     1      43.244   5.698   9.175  0.00  0.00    +0.000 HD
ENDBRANCH  24  25
BRANCH  24  27
ATOM     27  C   UNL     1      44.885   3.980   8.022  0.00  0.00    +0.000 C 
BRANCH  27  28
ATOM     28  C   UNL     1      46.193   3.200   7.844  0.00  0.00    +0.000 C 
ATOM     29  C   UNL     1      46.713   3.181   6.415  0.00  0.00    +0.000 C 
ATOM     30  C   UNL     1      47.695   2.024   6.433  0.00  0.00    +0.000 C 
ATOM     31  C   UNL     1      47.161   1.085   7.509  0.00  0.00    +0.000 C 
ATOM     32  N   UNL     1      46.017   1.768   8.122  0.00  0.00    +0.000 NA
ATOM     33  H   UNL     1      45.997   1.593   9.126  0.00  0.00    +0.000 HD
ENDBRANCH  27  28
ENDBRANCH  24  27
ENDBRANCH  23  24
ENDBRANCH   4  23
TORSDOF 8
ENDMDL
MODEL 5
REMARK VINA RESULT:    -6.798      1.789      2.512
REMARK INTER + INTRA:         -11.123
REMARK INTER:                  -9.825
REMARK INTRA:                  -1.298
REMARK UNBOUND:                -1.344
REMARK  Name = 
REMARK  8 active torsions:
REMARK  status: ('A' for Active; 'I' for Inactive)
REMARK    1  A    between atoms: C_2  and  C_20
REMARK    2  A    between atoms: N_3  and  C_4
REMARK    3  A    between atoms: C_4  and  C_5
REMARK    4  A    between atoms: C_8  and  C_9
REMARK    5  A    between atoms: C_9  and  C_10
REMARK    6  A    between atoms: C_10  and  O_11
REMARK    7  A    between atoms: C_10  and  C_12
REMARK    8  A    between atoms: C_12  and  C_13
REMARK                            x       y       z     vdW  Elec       q    Type
REMARK                         _______ _______ _______ _____ _____    ______ ____
ROOT
ATOM      1  C   UNL     1      47.891   7.987  13.330  0.00  0.00    +0.000 A 
ATOM      2  C   UNL     1      46.680   8.691  13.368  0.00  0.00    +0.000 A 
ATOM      3  C   UNL     1      45.544   8.196  12.717  0.00  0.00    +0.000 A 
ATOM      4  C   UNL     1      45.593   6.977  12.033  0.00  0.00    +0.000 A 
ATOM      5  C   UNL     1      46.792   6.254  12.029  0.00  0.00    +0.000 A 
ATOM      6  C   UNL     1      47.928   6.750  12.677  0.00  0.00    +0.000 A 
ENDROOT
BRANCH   1   7
ATOM      7  C   UNL     1      49.122   8.547  13.992  0.00  0.00    +0.000 C 
BRANCH   7  10
ATOM      8  O   UNL     1      48.127   9.322  16.461  0.00  0.00    +0.000 OA
ATOM      9  C   UNL     1      48.809   8.303  16.404  0.00  0.00    +0.000 C 
ATOM     10  N   UNL     1      49.400   7.883  15.239  0.00  0.00    +0.000 N 
ATOM     11  H   UNL     1      49.773   6.943  15.180  0.00  0.00    +0.000 HD
BRANCH   9  12
ATOM     12  C   UNL     1      49.068   7.490  17.598  0.00  0.00    +0.000 A 
ATOM     13  C   UNL     1      49.526   8.093  18.762  0.00  0.00    +0.000 A 
ATOM     14  S   UNL     1      49.785   6.996  20.042  0.00  0.00    +0.000 S 
ATOM     15  C   UNL     1      49.246   5.684  19.100  0.00  0.00    +0.000 A 
ATOM     16  N   UNL     1      49.183   4.428  19.620  0.00  0.00    +0.000 NA
ATOM     17  C   UNL     1      48.722   3.538  18.806  0.00  0.00    +0.000 A 
ATOM     18  N   UNL     1      48.331   3.785  17.517  0.00  0.00    +0.000 N 
ATOM     19  C   UNL     1      48.408   5.030  16.940  0.00  0.00    +0.000 A 
ATOM     20  O   UNL     1      48.096   5.206  15.767  0.00  0.00    +0.000 OA
ATOM     21  C   UNL     1      48.897   6.072  17.820  0.00  0.00    +0.000 A 
ATOM     22  H   UNL     1      47.989   3.043  16.926  0.00  0.00    +0.000 HD
ENDBRANCH   9  12
ENDBRANCH   7  10
ENDBRANCH   1   7
BRANCH   4  23
ATOM     23  C   UNL     1      44.391   6.467  11.265  0.00  0.00    +0.000 C 
BRANCH  23  24
ATOM     24  C   UNL     1      43.750   5.232  11.926  0.00  0.00    +0.000 C 
BRANCH  24  25
ATOM     25  O   UNL     1      42.581   5.604  12.662  0.00  0.00    +0.000 OA
ATOM     26  H   UNL     1      41.913   5.914  12.028  0.00  0.00    +0.000 HD
ENDBRANCH  24  25
BRANCH  24  27
ATOM     27  C   UNL     1      43.348   4.173  10.888  0.00  0.00    +0.000 C 
BRANCH  27  28
ATOM     28  C   UNL     1      44.554   3.653  10.094  0.00  0.00    +0.000 C 
ATOM     29  C   UNL     1      44.592   4.119   8.648  0.00  0.00    +0.000 C 
ATOM     30  C   UNL     1      45.562   3.143   8.009  0.00  0.00    +0.000 C 
ATOM     31  C   UNL     1      45.427   1.871   8.837  0.00  0.00    +0.000 C 
ATOM     32  N   UNL     1      44.518   2.191   9.942  0.00  0.00    +0.000 NA
ATOM     33  H   UNL     1      44.825   1.730  10.797  0.00  0.00    +0.000 HD
ENDBRANCH  27  28
ENDBRANCH  24  27
ENDBRANCH  23  24
ENDBRANCH   4  23
TORSDOF 8
ENDMDL
MODEL 6
REMARK VINA RESULT:    -6.759      3.514      8.220
REMARK INTER + INTRA:         -11.066
REMARK INTER:                  -9.071
REMARK INTRA:                  -1.996
REMARK UNBOUND:                -1.344
REMARK  Name = 
REMARK  8 active torsions:
REMARK  status: ('A' for Active; 'I' for Inactive)
REMARK    1  A    between atoms: C_2  and  C_20
REMARK    2  A    between atoms: N_3  and  C_4
REMARK    3  A    between atoms: C_4  and  C_5
REMARK    4  A    between atoms: C_8  and  C_9
REMARK    5  A    between atoms: C_9  and  C_10
REMARK    6  A    between atoms: C_10  and  O_11
REMARK    7  A    between atoms: C_10  and  C_12
REMARK    8  A    between atoms: C_12  and  C_13
REMARK                            x       y       z     vdW  Elec       q    Type
REMARK                         _______ _______ _______ _____ _____    ______ ____
ROOT
ATOM      1  C   UNL     1      48.974   7.920  15.899  0.00  0.00    +0.000 A 
ATOM      2  C   UNL     1      48.374   8.360  17.087  0.00  0.00    +0.000 A 
ATOM      3  C   UNL     1      48.828   7.902  18.328  0.00  0.00    +0.000 A 
ATOM      4  C   UNL     1      49.903   7.011  18.407  0.00  0.00    +0.000 A 
ATOM      5  C   UNL     1      50.529   6.604  17.222  0.00  0.00    +0.000 A 
ATOM      6  C   UNL     1      50.074   7.059  15.980  0.00  0.00    +0.000 A 
ENDROOT
BRANCH   1   7
ATOM      7  C   UNL     1      48.451   8.379  14.563  0.00  0.00    +0.000 C 
BRANCH   7  10
ATOM      8  O   UNL     1      48.806   6.269  12.800  0.00  0.00    +0.000 OA
ATOM      9  C   UNL     1      47.684   6.459  13.260  0.00  0.00    +0.000 C 
ATOM     10  N   UNL     1      47.401   7.520  14.083  0.00  0.00    +0.000 N 
ATOM     11  H   UNL     1      46.532   7.526  14.605  0.00  0.00    +0.000 HD
BRANCH   9  12
ATOM     12  C   UNL     1      46.561   5.577  12.919  0.00  0.00    +0.000 A 
ATOM     13  C   UNL     1      46.628   4.222  13.216  0.00  0.00    +0.000 A 
ATOM     14  S   UNL     1      45.242   3.351  12.739  0.00  0.00    +0.000 S 
ATOM     15  C   UNL     1      44.484   4.762  12.165  0.00  0.00    +0.000 A 
ATOM     16  N   UNL     1      43.227   4.720  11.644  0.00  0.00    +0.000 NA
ATOM     17  C   UNL     1      42.762   5.869  11.281  0.00  0.00    +0.000 A 
ATOM     18  N   UNL     1      43.443   7.053  11.380  0.00  0.00    +0.000 N 
ATOM     19  C   UNL     1      44.725   7.139  11.868  0.00  0.00    +0.000 A 
ATOM     20  O   UNL     1      45.323   8.209  11.895  0.00  0.00    +0.000 OA
ATOM     21  C   UNL     1      45.285   5.879  12.312  0.00  0.00    +0.000 A 
ATOM     22  H   UNL     1      43.028   7.918  11.067  0.00  0.00    +0.000 HD
ENDBRANCH   9  12
ENDBRANCH   7  10
ENDBRANCH   1   7
BRANCH   4  23
ATOM     23  C   UNL     1      50.357   6.454  19.741  0.00  0.00    +0.000 C 
BRANCH  23  24
ATOM     24  C   UNL     1      50.296   4.915  19.787  0.00  0.00    +0.000 C 
BRANCH  24  25
ATOM     25  O   UNL     1      51.178   4.407  20.793  0.00  0.00    +0.000 OA
ATOM     26  H   UNL     1      51.038   4.924  21.604  0.00  0.00    +0.000 HD
ENDBRANCH  24  25
BRANCH  24  27
ATOM     27  C   UNL     1      48.877   4.408  20.091  0.00  0.00    +0.000 C 
BRANCH  27  28
ATOM     28  C   UNL     1      48.271   3.642  18.909  0.00  0.00    +0.000 C 
ATOM     29  C   UNL     1      49.275   3.275  17.827  0.00  0.00    +0.000 C 
ATOM     30  C   UNL     1      48.385   2.963  16.639  0.00  0.00    +0.000 C 
ATOM     31  C   UNL     1      47.141   3.817  16.856  0.00  0.00    +0.000 C 
ATOM     32  N   UNL     1      47.306   4.462  18.163  0.00  0.00    +0.000 NA
ATOM     33  H   UNL     1      46.413   4.505  18.652  0.00  0.00    +0.000 HD
ENDBRANCH  27  28
ENDBRANCH  24  27
ENDBRANCH  23  24
ENDBRANCH   4  23
TORSDOF 8
ENDMDL
MODEL 7
REMARK VINA RESULT:    -6.607      2.359      3.384
REMARK INTER + INTRA:         -10.847
REMARK INTER:                  -9.603
REMARK INTRA:                  -1.244
REMARK UNBOUND:                -1.344
REMARK  Name = 
REMARK  8 active torsions:
REMARK  status: ('A' for Active; 'I' for Inactive)
REMARK    1  A    between atoms: C_2  and  C_20
REMARK    2  A    between atoms: N_3  and  C_4
REMARK    3  A    between atoms: C_4  and  C_5
REMARK    4  A    between atoms: C_8  and  C_9
REMARK    5  A    between atoms: C_9  and  C_10
REMARK    6  A    between atoms: C_10  and  O_11
REMARK    7  A    between atoms: C_10  and  C_12
REMARK    8  A    between atoms: C_12  and  C_13
REMARK                            x       y       z     vdW  Elec       q    Type
REMARK                         _______ _______ _______ _____ _____    ______ ____
ROOT
ATOM      1  C   UNL     1      47.932   7.678  13.104  0.00  0.00    +0.000 A 
ATOM      2  C   UNL     1      47.728   6.348  12.715  0.00  0.00    +0.000 A 
ATOM      3  C   UNL     1      46.477   5.921  12.256  0.00  0.00    +0.000 A 
ATOM      4  C   UNL     1      45.412   6.823  12.157  0.00  0.00    +0.000 A 
ATOM      5  C   UNL     1      45.627   8.161  12.506  0.00  0.00    +0.000 A 
ATOM      6  C   UNL     1      46.877   8.587  12.968  0.00  0.00    +0.000 A 
ENDROOT
BRANCH   1   7
ATOM      7  C   UNL     1      49.268   8.122  13.642  0.00  0.00    +0.000 C 
BRANCH   7  10
ATOM      8  O   UNL     1      48.893   8.050  16.389  0.00  0.00    +0.000 OA
ATOM      9  C   UNL     1      49.540   7.146  15.867  0.00  0.00    +0.000 C 
ATOM     10  N   UNL     1      49.834   7.137  14.526  0.00  0.00    +0.000 N 
ATOM     11  H   UNL     1      50.179   6.286  14.098  0.00  0.00    +0.000 HD
BRANCH   9  12
ATOM     12  C   UNL     1      50.075   6.034  16.661  0.00  0.00    +0.000 A 
ATOM     13  C   UNL     1      49.207   5.129  17.259  0.00  0.00    +0.000 A 
ATOM     14  S   UNL     1      50.002   3.912  18.152  0.00  0.00    +0.000 S 
ATOM     15  C   UNL     1      51.533   4.524  17.729  0.00  0.00    +0.000 A 
ATOM     16  N   UNL     1      52.673   3.910  18.148  0.00  0.00    +0.000 NA
ATOM     17  C   UNL     1      53.761   4.459  17.723  0.00  0.00    +0.000 A 
ATOM     18  N   UNL     1      53.815   5.573  16.928  0.00  0.00    +0.000 N 
ATOM     19  C   UNL     1      52.692   6.244  16.507  0.00  0.00    +0.000 A 
ATOM     20  O   UNL     1      52.778   7.268  15.837  0.00  0.00    +0.000 OA
ATOM     21  C   UNL     1      51.441   5.654  16.938  0.00  0.00    +0.000 A 
ATOM     22  H   UNL     1      54.699   5.962  16.637  0.00  0.00    +0.000 HD
ENDBRANCH   9  12
ENDBRANCH   7  10
ENDBRANCH   1   7
BRANCH   4  23
ATOM     23  C   UNL     1      44.035   6.357  11.729  0.00  0.00    +0.000 C 
BRANCH  23  24
ATOM     24  C   UNL     1      43.683   4.967  12.291  0.00  0.00    +0.000 C 
BRANCH  24  25
ATOM     25  O   UNL     1      42.604   5.060  13.227  0.00  0.00    +0.000 OA
ATOM     26  H   UNL     1      42.322   4.157  13.451  0.00  0.00    +0.000 HD
ENDBRANCH  24  25
BRANCH  24  27
ATOM     27  C   UNL     1      43.272   3.989  11.179  0.00  0.00    +0.000 C 
BRANCH  27  28
ATOM     28  C   UNL     1      44.461   3.575  10.303  0.00  0.00    +0.000 C 
ATOM     29  C   UNL     1      44.433   4.164   8.901  0.00  0.00    +0.000 C 
ATOM     30  C   UNL     1      45.405   3.276   8.147  0.00  0.00    +0.000 C 
ATOM     31  C   UNL     1      45.336   1.934   8.866  0.00  0.00    +0.000 C 
ATOM     32  N   UNL     1      44.460   2.132  10.026  0.00  0.00    +0.000 NA
ATOM     33  H   UNL     1      44.810   1.609  10.827  0.00  0.00    +0.000 HD
ENDBRANCH  27  28
ENDBRANCH  24  27
ENDBRANCH  23  24
ENDBRANCH   4  23
TORSDOF 8
ENDMDL
MODEL 8
REMARK VINA RESULT:    -6.603      2.865      8.122
REMARK INTER + INTRA:         -10.842
REMARK INTER:                  -9.587
REMARK INTRA:                  -1.256
REMARK UNBOUND:                -1.344
REMARK  Name = 
REMARK  8 active torsions:
REMARK  status: ('A' for Active; 'I' for Inactive)
REMARK    1  A    between atoms: C_2  and  C_20
REMARK    2  A    between atoms: N_3  and  C_4
REMARK    3  A    between atoms: C_4  and  C_5
REMARK    4  A    between atoms: C_8  and  C_9
REMARK    5  A    between atoms: C_9  and  C_10
REMARK    6  A    between atoms: C_10  and  O_11
REMARK    7  A    between atoms: C_10  and  C_12
REMARK    8  A    between atoms: C_12  and  C_13
REMARK                            x       y       z     vdW  Elec       q    Type
REMARK                         _______ _______ _______ _____ _____    ______ ____
ROOT
ATOM      1  C   UNL     1      48.170   8.043  13.088  0.00  0.00    +0.000 A 
ATOM      2  C   UNL     1      47.723   8.987  14.022  0.00  0.00    +0.000 A 
ATOM      3  C   UNL     1      48.344   9.107  15.270  0.00  0.00    +0.000 A 
ATOM      4  C   UNL     1      49.437   8.299  15.600  0.00  0.00    +0.000 A 
ATOM      5  C   UNL     1      49.909   7.384  14.651  0.00  0.00    +0.000 A 
ATOM      6  C   UNL     1      49.287   7.262  13.404  0.00  0.00    +0.000 A 
ENDROOT
BRANCH   1   7
ATOM      7  C   UNL     1      47.468   7.885  11.764  0.00  0.00    +0.000 C 
BRANCH   7  10
ATOM      8  O   UNL     1      44.728   7.491  11.913  0.00  0.00    +0.000 OA
ATOM      9  C   UNL     1      45.443   6.520  11.684  0.00  0.00    +0.000 C 
ATOM     10  N   UNL     1      46.812   6.608  11.663  0.00  0.00    +0.000 N 
ATOM     11  H   UNL     1      47.354   5.848  11.268  0.00  0.00    +0.000 HD
BRANCH   9  12
ATOM     12  C   UNL     1      44.870   5.187  11.459  0.00  0.00    +0.000 A 
ATOM     13  C   UNL     1      44.113   4.581  12.453  0.00  0.00    +0.000 A 
ATOM     14  S   UNL     1      43.540   3.032  12.024  0.00  0.00    +0.000 S 
ATOM     15  C   UNL     1      44.242   3.140  10.477  0.00  0.00    +0.000 A 
ATOM     16  N   UNL     1      44.096   2.136   9.571  0.00  0.00    +0.000 NA
ATOM     17  C   UNL     1      44.649   2.367   8.427  0.00  0.00    +0.000 A 
ATOM     18  N   UNL     1      45.346   3.503   8.111  0.00  0.00    +0.000 N 
ATOM     19  C   UNL     1      45.547   4.527   9.005  0.00  0.00    +0.000 A 
ATOM     20  O   UNL     1      46.219   5.508   8.704  0.00  0.00    +0.000 OA
ATOM     21  C   UNL     1      44.925   4.329  10.298  0.00  0.00    +0.000 A 
ATOM     22  H   UNL     1      45.766   3.619   7.201  0.00  0.00    +0.000 HD
ENDBRANCH   9  12
ENDBRANCH   7  10
ENDBRANCH   1   7
BRANCH   4  23
ATOM     23  C   UNL     1      50.071   8.370  16.974  0.00  0.00    +0.000 C 
BRANCH  23  24
ATOM     24  C   UNL     1      49.332   7.503  18.010  0.00  0.00    +0.000 C 
BRANCH  24  25
ATOM     25  O   UNL     1      47.916   7.590  17.821  0.00  0.00    +0.000 OA
ATOM     26  H   UNL     1      47.619   6.767  17.397  0.00  0.00    +0.000 HD
ENDBRANCH  24  25
BRANCH  24  27
ATOM     27  C   UNL     1      49.740   6.024  17.913  0.00  0.00    +0.000 C 
BRANCH  27  28
ATOM     28  C   UNL     1      48.532   5.102  17.705  0.00  0.00    +0.000 C 
ATOM     29  C   UNL     1      48.734   3.689  18.228  0.00  0.00    +0.000 C 
ATOM     30  C   UNL     1      47.642   2.912  17.518  0.00  0.00    +0.000 C 
ATOM     31  C   UNL     1      47.418   3.669  16.214  0.00  0.00    +0.000 C 
ATOM     32  N   UNL     1      48.265   4.864  16.280  0.00  0.00    +0.000 NA
ATOM     33  H   UNL     1      47.785   5.661  15.863  0.00  0.00    +0.000 HD
ENDBRANCH  27  28
ENDBRANCH  24  27
ENDBRANCH  23  24
ENDBRANCH   4  23
TORSDOF 8
ENDMDL
MODEL 9
REMARK VINA RESULT:    -6.556      3.596      8.695
REMARK INTER + INTRA:         -10.774
REMARK INTER:                  -9.416
REMARK INTRA:                  -1.358
REMARK UNBOUND:                -1.344
REMARK  Name = 
REMARK  8 active torsions:
REMARK  status: ('A' for Active; 'I' for Inactive)
REMARK    1  A    between atoms: C_2  and  C_20
REMARK    2  A    between atoms: N_3  and  C_4
REMARK    3  A    between atoms: C_4  and  C_5
REMARK    4  A    between atoms: C_8  and  C_9
REMARK    5  A    between atoms: C_9  and  C_10
REMARK    6  A    between atoms: C_10  and  O_11
REMARK    7  A    between atoms: C_10  and  C_12
REMARK    8  A    between atoms: C_12  and  C_13
REMARK                            x       y       z     vdW  Elec       q    Type
REMARK                         _______ _______ _______ _____ _____    ______ ____
ROOT
ATOM      1  C   UNL     1      48.622   3.444  17.252  0.00  0.00    +0.000 A 
ATOM      2  C   UNL     1      49.555   2.430  16.999  0.00  0.00    +0.000 A 
ATOM      3  C   UNL     1      50.892   2.578  17.383  0.00  0.00    +0.000 A 
ATOM      4  C   UNL     1      51.317   3.735  18.045  0.00  0.00    +0.000 A 
ATOM      5  C   UNL     1      50.376   4.730  18.334  0.00  0.00    +0.000 A 
ATOM      6  C   UNL     1      49.039   4.584  17.948  0.00  0.00    +0.000 A 
ENDROOT
BRANCH   1   7
ATOM      7  C   UNL     1      47.193   3.300  16.794  0.00  0.00    +0.000 C 
BRANCH   7  10
ATOM      8  O   UNL     1      47.206   3.053  14.032  0.00  0.00    +0.000 OA
ATOM      9  C   UNL     1      46.802   4.105  14.520  0.00  0.00    +0.000 C 
ATOM     10  N   UNL     1      46.826   4.342  15.871  0.00  0.00    +0.000 N 
ATOM     11  H   UNL     1      46.299   5.120  16.250  0.00  0.00    +0.000 HD
BRANCH   9  12
ATOM     12  C   UNL     1      46.305   5.197  13.674  0.00  0.00    +0.000 A 
ATOM     13  C   UNL     1      47.071   6.342  13.498  0.00  0.00    +0.000 A 
ATOM     14  S   UNL     1      46.332   7.509  12.497  0.00  0.00    +0.000 S 
ATOM     15  C   UNL     1      44.986   6.503  12.224  0.00  0.00    +0.000 A 
ATOM     16  N   UNL     1      43.972   6.897  11.406  0.00  0.00    +0.000 NA
ATOM     17  C   UNL     1      43.034   6.021  11.261  0.00  0.00    +0.000 A 
ATOM     18  N   UNL     1      43.012   4.794  11.868  0.00  0.00    +0.000 N 
ATOM     19  C   UNL     1      43.997   4.367  12.726  0.00  0.00    +0.000 A 
ATOM     20  O   UNL     1      43.919   3.282  13.292  0.00  0.00    +0.000 OA
ATOM     21  C   UNL     1      45.086   5.305  12.905  0.00  0.00    +0.000 A 
ATOM     22  H   UNL     1      42.243   4.157  11.723  0.00  0.00    +0.000 HD
ENDBRANCH   9  12
ENDBRANCH   7  10
ENDBRANCH   1   7
BRANCH   4  23
ATOM     23  C   UNL     1      52.776   3.936  18.401  0.00  0.00    +0.000 C 
BRANCH  23  24
ATOM     24  C   UNL     1      53.244   5.385  18.171  0.00  0.00    +0.000 C 
BRANCH  24  25
ATOM     25  O   UNL     1      54.295   5.726  19.080  0.00  0.00    +0.000 OA
ATOM     26  H   UNL     1      53.962   6.417  19.678  0.00  0.00    +0.000 HD
ENDBRANCH  24  25
BRANCH  24  27
ATOM     27  C   UNL     1      53.759   5.598  16.738  0.00  0.00    +0.000 C 
BRANCH  27  28
ATOM     28  C   UNL     1      53.274   6.924  16.139  0.00  0.00    +0.000 C 
ATOM     29  C   UNL     1      51.764   7.023  15.994  0.00  0.00    +0.000 C 
ATOM     30  C   UNL     1      51.598   8.164  15.007  0.00  0.00    +0.000 C 
ATOM     31  C   UNL     1      52.866   8.127  14.162  0.00  0.00    +0.000 C 
ATOM     32  N   UNL     1      53.725   7.093  14.751  0.00  0.00    +0.000 NA
ATOM     33  H   UNL     1      54.701   7.384  14.719  0.00  0.00    +0.000 HD
ENDBRANCH  27  28
ENDBRANCH  24  27
ENDBRANCH  23  24
ENDBRANCH   4  23
TORSDOF 8
ENDMDL
