MODEL 1
REMARK VINA RESULT:    -7.493      0.000      0.000
REMARK INTER + INTRA:          -9.870
REMARK INTER:                  -9.465
REMARK INTRA:                  -0.406
REMARK UNBOUND:                -0.406
REMARK  Name = 
REMARK  5 active torsions:
REMARK  status: ('A' for Active; 'I' for Inactive)
REMARK    1  A    between atoms: N_1  and  C_2
REMARK    2  A    between atoms: C_2  and  C_3
REMARK    3  A    between atoms: C_3  and  C_4
REMARK    4  A    between atoms: N_6  and  C_7
REMARK    5  A    between atoms: C_7  and  C_8
REMARK                            x       y       z     vdW  Elec       q    Type
REMARK                         _______ _______ _______ _____ _____    ______ ____
ROOT
ATOM      1  C   UNL     1      43.957   3.590  11.076  0.00  0.00    +0.000 C 
ENDROOT
BRANCH   1   2
ATOM      2  C   UNL     1      44.985   4.163  12.019  0.00  0.00    +0.000 A 
ATOM      3  N   UNL     1      45.670   3.227  12.737  0.00  0.00    +0.000 NA
ATOM      4  C   UNL     1      46.640   3.658  13.565  0.00  0.00    +0.000 A 
ATOM      5  C   UNL     1      46.976   4.988  13.722  0.00  0.00    +0.000 A 
ATOM      6  C   UNL     1      46.271   5.952  12.997  0.00  0.00    +0.000 A 
ATOM      7  C   UNL     1      46.592   7.313  13.135  0.00  0.00    +0.000 A 
ATOM      8  C   UNL     1      45.891   8.288  12.428  0.00  0.00    +0.000 A 
ATOM      9  C   UNL     1      44.857   7.917  11.579  0.00  0.00    +0.000 A 
ATOM     10  C   UNL     1      44.532   6.566  11.424  0.00  0.00    +0.000 A 
ATOM     11  C   UNL     1      45.235   5.553  12.122  0.00  0.00    +0.000 A 
ENDBRANCH   1   2
BRANCH   1  14
ATOM     12  C   UNL     1      45.761   2.417   8.193  0.00  0.00    +0.000 A 
ATOM     13  C   UNL     1      45.270   2.170   9.459  0.00  0.00    +0.000 A 
ATOM     14  N   UNL     1      44.528   3.275   9.777  0.00  0.00    +0.000 N 
ATOM     15  C   UNL     1      44.551   4.112   8.696  0.00  0.00    +0.000 A 
ATOM     16  N   UNL     1      45.294   3.624   7.727  0.00  0.00    +0.000 NA
BRANCH  12  17
ATOM     17  C   UNL     1      46.705   1.604   7.376  0.00  0.00    +0.000 C 
BRANCH  17  18
ATOM     18  C   UNL     1      47.844   2.468   6.822  0.00  0.00    +0.000 C 
BRANCH  18  19
ATOM     19  N   UNL     1      48.519   1.831   5.690  0.00  0.00    +0.000 NA
ATOM     20  H   UNL     1      49.333   2.390   5.434  0.00  0.00    +0.000 HD
ATOM     21  H   UNL     1      47.902   1.858   4.877  0.00  0.00    +0.000 HD
ENDBRANCH  18  19
ENDBRANCH  17  18
ENDBRANCH  12  17
ENDBRANCH   1  14
TORSDOF 5
ENDMDL
MODEL 2
REMARK VINA RESULT:    -6.926      1.260      2.634
REMARK INTER + INTRA:          -9.154
REMARK INTER:                  -8.891
REMARK INTRA:                  -0.264
REMARK UNBOUND:                -0.406
REMARK  Name = 
REMARK  5 active torsions:
REMARK  status: ('A' for Active; 'I' for Inactive)
REMARK    1  A    between atoms: N_1  and  C_2
REMARK    2  A    between atoms: C_2  and  C_3
REMARK    3  A    between atoms: C_3  and  C_4
REMARK    4  A    between atoms: N_6  and  C_7
REMARK    5  A    between atoms: C_7  and  C_8
REMARK                            x       y       z     vdW  Elec       q    Type
REMARK                         _______ _______ _______ _____ _____    ______ ____
ROOT
ATOM      1  C   UNL     1      43.756   4.729  10.637  0.00  0.00    +0.000 C 
ENDROOT
BRANCH   1   2
ATOM      2  C   UNL     1      44.627   5.685  11.412  0.00  0.00    +0.000 A 
ATOM      3  N   UNL     1      44.432   6.999  11.101  0.00  0.00    +0.000 NA
ATOM      4  C   UNL     1      45.138   7.917  11.785  0.00  0.00    +0.000 A 
ATOM      5  C   UNL     1      46.041   7.601  12.781  0.00  0.00    +0.000 A 
ATOM      6  C   UNL     1      46.253   6.258  13.097  0.00  0.00    +0.000 A 
ATOM      7  C   UNL     1      47.165   5.906  14.107  0.00  0.00    +0.000 A 
ATOM      8  C   UNL     1      47.397   4.569  14.427  0.00  0.00    +0.000 A 
ATOM      9  C   UNL     1      46.726   3.568  13.738  0.00  0.00    +0.000 A 
ATOM     10  C   UNL     1      45.809   3.902  12.738  0.00  0.00    +0.000 A 
ATOM     11  C   UNL     1      45.546   5.252  12.399  0.00  0.00    +0.000 A 
ENDBRANCH   1   2
BRANCH   1  14
ATOM     12  C   UNL     1      45.699   3.139   8.059  0.00  0.00    +0.000 A 
ATOM     13  C   UNL     1      45.350   4.291   8.733  0.00  0.00    +0.000 A 
ATOM     14  N   UNL     1      44.537   3.878   9.754  0.00  0.00    +0.000 N 
ATOM     15  C   UNL     1      44.466   2.514   9.696  0.00  0.00    +0.000 A 
ATOM     16  N   UNL     1      45.150   2.039   8.680  0.00  0.00    +0.000 NA
BRANCH  12  17
ATOM     17  C   UNL     1      46.493   2.984   6.809  0.00  0.00    +0.000 C 
BRANCH  17  18
ATOM     18  C   UNL     1      47.575   1.909   6.969  0.00  0.00    +0.000 C 
BRANCH  18  19
ATOM     19  N   UNL     1      48.423   1.800   5.780  0.00  0.00    +0.000 NA
ATOM     20  H   UNL     1      48.555   2.730   5.383  0.00  0.00    +0.000 HD
ATOM     21  H   UNL     1      47.928   1.264   5.067  0.00  0.00    +0.000 HD
ENDBRANCH  18  19
ENDBRANCH  17  18
ENDBRANCH  12  17
ENDBRANCH   1  14
TORSDOF 5
ENDMDL
MODEL 3
REMARK VINA RESULT:    -6.418      2.915      5.992
REMARK INTER + INTRA:          -8.512
REMARK INTER:                  -7.768
REMARK INTRA:                  -0.744
REMARK UNBOUND:                -0.406
REMARK  Name = 
REMARK  5 active torsions:
REMARK  status: ('A' for Active; 'I' for Inactive)
REMARK    1  A    between atoms: N_1  and  C_2
REMARK    2  A    between atoms: C_2  and  C_3
REMARK    3  A    between atoms: C_3  and  C_4
REMARK    4  A    between atoms: N_6  and  C_7
REMARK    5  A    between atoms: C_7  and  C_8
REMARK                            x       y       z     vdW  Elec       q    Type
REMARK                         _______ _______ _______ _____ _____    ______ ____
ROOT
ATOM      1  C   UNL     1      44.775   6.961  11.021  0.00  0.00    +0.000 C 
ENDROOT
BRANCH   1   2
ATOM      2  C   UNL     1      44.460   5.493  11.158  0.00  0.00    +0.000 A 
ATOM      3  N   UNL     1      43.790   5.167  12.301  0.00  0.00    +0.000 NA
ATOM      4  C   UNL     1      43.429   3.882  12.472  0.00  0.00    +0.000 A 
ATOM      5  C   UNL     1      43.698   2.884  11.557  0.00  0.00    +0.000 A 
ATOM      6  C   UNL     1      44.392   3.208  10.390  0.00  0.00    +0.000 A 
ATOM      7  C   UNL     1      44.678   2.214   9.439  0.00  0.00    +0.000 A 
ATOM      8  C   UNL     1      45.380   2.518   8.274  0.00  0.00    +0.000 A 
ATOM      9  C   UNL     1      45.811   3.819   8.048  0.00  0.00    +0.000 A 
ATOM     10  C   UNL     1      45.525   4.821   8.979  0.00  0.00    +0.000 A 
ATOM     11  C   UNL     1      44.805   4.542  10.166  0.00  0.00    +0.000 A 
ENDBRANCH   1   2
BRANCH   1  14
ATOM     12  C   UNL     1      47.717   7.374  13.051  0.00  0.00    +0.000 A 
ATOM     13  C   UNL     1      47.117   6.813  11.941  0.00  0.00    +0.000 A 
ATOM     14  N   UNL     1      45.866   7.364  11.893  0.00  0.00    +0.000 N 
ATOM     15  C   UNL     1      45.771   8.261  12.921  0.00  0.00    +0.000 A 
ATOM     16  N   UNL     1      46.870   8.283  13.642  0.00  0.00    +0.000 NA
BRANCH  12  17
ATOM     17  C   UNL     1      49.049   7.080  13.649  0.00  0.00    +0.000 C 
BRANCH  17  18
ATOM     18  C   UNL     1      48.916   6.654  15.116  0.00  0.00    +0.000 C 
BRANCH  18  19
ATOM     19  N   UNL     1      47.894   5.621  15.300  0.00  0.00    +0.000 NA
ATOM     20  H   UNL     1      47.425   5.460  14.409  0.00  0.00    +0.000 HD
ATOM     21  H   UNL     1      47.173   5.977  15.929  0.00  0.00    +0.000 HD
ENDBRANCH  18  19
ENDBRANCH  17  18
ENDBRANCH  12  17
ENDBRANCH   1  14
TORSDOF 5
ENDMDL
MODEL 4
REMARK VINA RESULT:    -6.212      1.578      2.173
REMARK INTER + INTRA:          -8.252
REMARK INTER:                  -7.597
REMARK INTRA:                  -0.655
REMARK UNBOUND:                -0.406
REMARK  Name = 
REMARK  5 active torsions:
REMARK  status: ('A' for Active; 'I' for Inactive)
REMARK    1  A    between atoms: N_1  and  C_2
REMARK    2  A    between atoms: C_2  and  C_3
REMARK    3  A    between atoms: C_3  and  C_4
REMARK    4  A    between atoms: N_6  and  C_7
REMARK    5  A    between atoms: C_7  and  C_8
REMARK                            x       y       z     vdW  Elec       q    Type
REMARK                         _______ _______ _______ _____ _____    ______ ____
ROOT
ATOM      1  C   UNL     1      44.142   4.850  12.833  0.00  0.00    +0.000 C 
ENDROOT
BRANCH   1   2
ATOM      2  C   UNL     1      45.445   5.483  13.254  0.00  0.00    +0.000 A 
ATOM      3  N   UNL     1      46.273   4.651  13.949  0.00  0.00    +0.000 NA
ATOM      4  C   UNL     1      47.476   5.128  14.317  0.00  0.00    +0.000 A 
ATOM      5  C   UNL     1      47.914   6.405  14.027  0.00  0.00    +0.000 A 
ATOM      6  C   UNL     1      47.067   7.265  13.325  0.00  0.00    +0.000 A 
ATOM      7  C   UNL     1      47.485   8.570  13.014  0.00  0.00    +0.000 A 
ATOM      8  C   UNL     1      46.648   9.445  12.324  0.00  0.00    +0.000 A 
ATOM      9  C   UNL     1      45.379   9.028  11.942  0.00  0.00    +0.000 A 
ATOM     10  C   UNL     1      44.952   7.730  12.234  0.00  0.00    +0.000 A 
ATOM     11  C   UNL     1      45.787   6.817  12.925  0.00  0.00    +0.000 A 
ENDBRANCH   1   2
BRANCH   1  14
ATOM     12  C   UNL     1      44.603   3.496   9.532  0.00  0.00    +0.000 A 
ATOM     13  C   UNL     1      44.905   4.471  10.461  0.00  0.00    +0.000 A 
ATOM     14  N   UNL     1      44.286   4.072  11.614  0.00  0.00    +0.000 N 
ATOM     15  C   UNL     1      43.688   2.868  11.365  0.00  0.00    +0.000 A 
ATOM     16  N   UNL     1      43.855   2.498  10.115  0.00  0.00    +0.000 NA
BRANCH  12  17
ATOM     17  C   UNL     1      44.930   3.447   8.080  0.00  0.00    +0.000 C 
BRANCH  17  18
ATOM     18  C   UNL     1      46.161   2.570   7.819  0.00  0.00    +0.000 C 
BRANCH  18  19
ATOM     19  N   UNL     1      46.027   1.239   8.415  0.00  0.00    +0.000 NA
ATOM     20  H   UNL     1      45.864   0.560   7.671  0.00  0.00    +0.000 HD
ATOM     21  H   UNL     1      45.186   1.218   8.994  0.00  0.00    +0.000 HD
ENDBRANCH  18  19
ENDBRANCH  17  18
ENDBRANCH  12  17
ENDBRANCH   1  14
TORSDOF 5
ENDMDL
MODEL 5
REMARK VINA RESULT:    -5.994      1.813      3.084
REMARK INTER + INTRA:          -7.977
REMARK INTER:                  -7.537
REMARK INTRA:                  -0.440
REMARK UNBOUND:                -0.406
REMARK  Name = 
REMARK  5 active torsions:
REMARK  status: ('A' for Active; 'I' for Inactive)
REMARK    1  A    between atoms: N_1  and  C_2
REMARK    2  A    between atoms: C_2  and  C_3
REMARK    3  A    between atoms: C_3  and  C_4
REMARK    4  A    between atoms: N_6  and  C_7
REMARK    5  A    between atoms: C_7  and  C_8
REMARK                            x       y       z     vdW  Elec       q    Type
REMARK                         _______ _______ _______ _____ _____    ______ ____
ROOT
ATOM      1  C   UNL     1      45.651   5.634  13.049  0.00  0.00    +0.000 C 
ENDROOT
BRANCH   1   2
ATOM      2  C   UNL     1      46.796   6.601  12.879  0.00  0.00    +0.000 A 
ATOM      3  N   UNL     1      48.029   6.046  13.055  0.00  0.00    +0.000 NA
ATOM      4  C   UNL     1      49.104   6.835  12.871  0.00  0.00    +0.000 A 
ATOM      5  C   UNL     1      49.023   8.166  12.514  0.00  0.00    +0.000 A 
ATOM      6  C   UNL     1      47.763   8.743  12.343  0.00  0.00    +0.000 A 
ATOM      7  C   UNL     1      47.649  10.095  11.978  0.00  0.00    +0.000 A 
ATOM      8  C   UNL     1      46.399  10.690  11.814  0.00  0.00    +0.000 A 
ATOM      9  C   UNL     1      45.247   9.942  12.019  0.00  0.00    +0.000 A 
ATOM     10  C   UNL     1      45.344   8.593  12.372  0.00  0.00    +0.000 A 
ATOM     11  C   UNL     1      46.601   7.961  12.535  0.00  0.00    +0.000 A 
ENDBRANCH   1   2
BRANCH   1  14
ATOM     12  C   UNL     1      45.079   4.105   9.842  0.00  0.00    +0.000 A 
ATOM     13  C   UNL     1      45.505   5.198  10.570  0.00  0.00    +0.000 A 
ATOM     14  N   UNL     1      45.474   4.792  11.877  0.00  0.00    +0.000 N 
ATOM     15  C   UNL     1      45.088   3.481  11.891  0.00  0.00    +0.000 A 
ATOM     16  N   UNL     1      44.836   3.040  10.679  0.00  0.00    +0.000 NA
BRANCH  12  17
ATOM     17  C   UNL     1      44.827   3.991   8.379  0.00  0.00    +0.000 C 
BRANCH  17  18
ATOM     18  C   UNL     1      45.967   3.246   7.676  0.00  0.00    +0.000 C 
BRANCH  18  19
ATOM     19  N   UNL     1      46.570   4.042   6.605  0.00  0.00    +0.000 NA
ATOM     20  H   UNL     1      45.855   4.250   5.907  0.00  0.00    +0.000 HD
ATOM     21  H   UNL     1      47.268   3.475   6.122  0.00  0.00    +0.000 HD
ENDBRANCH  18  19
ENDBRANCH  17  18
ENDBRANCH  12  17
ENDBRANCH   1  14
TORSDOF 5
ENDMDL
MODEL 6
REMARK VINA RESULT:    -5.888      2.254      3.958
REMARK INTER + INTRA:          -7.842
REMARK INTER:                  -7.473
REMARK INTRA:                  -0.370
REMARK UNBOUND:                -0.406
REMARK  Name = 
REMARK  5 active torsions:
REMARK  status: ('A' for Active; 'I' for Inactive)
REMARK    1  A    between atoms: N_1  and  C_2
REMARK    2  A    between atoms: C_2  and  C_3
REMARK    3  A    between atoms: C_3  and  C_4
REMARK    4  A    between atoms: N_6  and  C_7
REMARK    5  A    between atoms: C_7  and  C_8
REMARK                            x       y       z     vdW  Elec       q    Type
REMARK                         _______ _______ _______ _____ _____    ______ ____
ROOT
ATOM      1  C   UNL     1      46.090   5.893  13.101  0.00  0.00    +0.000 C 
ENDROOT
BRANCH   1   2
ATOM      2  C   UNL     1      46.284   7.327  12.677  0.00  0.00    +0.000 A 
ATOM      3  N   UNL     1      45.151   8.086  12.730  0.00  0.00    +0.000 NA
ATOM      4  C   UNL     1      45.253   9.389  12.414  0.00  0.00    +0.000 A 
ATOM      5  C   UNL     1      46.437   9.995  12.043  0.00  0.00    +0.000 A 
ATOM      6  C   UNL     1      47.598   9.223  11.976  0.00  0.00    +0.000 A 
ATOM      7  C   UNL     1      48.818   9.812  11.603  0.00  0.00    +0.000 A 
ATOM      8  C   UNL     1      49.984   9.054  11.521  0.00  0.00    +0.000 A 
ATOM      9  C   UNL     1      49.944   7.694  11.803  0.00  0.00    +0.000 A 
ATOM     10  C   UNL     1      48.741   7.095  12.185  0.00  0.00    +0.000 A 
ATOM     11  C   UNL     1      47.543   7.845  12.287  0.00  0.00    +0.000 A 
ENDBRANCH   1   2
BRANCH   1  14
ATOM     12  C   UNL     1      45.050   4.343  10.025  0.00  0.00    +0.000 A 
ATOM     13  C   UNL     1      45.635   5.415  10.669  0.00  0.00    +0.000 A 
ATOM     14  N   UNL     1      45.721   5.043  11.982  0.00  0.00    +0.000 N 
ATOM     15  C   UNL     1      45.244   3.765  12.079  0.00  0.00    +0.000 A 
ATOM     16  N   UNL     1      44.824   3.319  10.916  0.00  0.00    +0.000 NA
BRANCH  12  17
ATOM     17  C   UNL     1      44.627   4.217   8.603  0.00  0.00    +0.000 C 
BRANCH  17  18
ATOM     18  C   UNL     1      45.682   3.473   7.775  0.00  0.00    +0.000 C 
BRANCH  18  19
ATOM     19  N   UNL     1      46.743   4.365   7.303  0.00  0.00    +0.000 NA
ATOM     20  H   UNL     1      46.430   4.826   6.449  0.00  0.00    +0.000 HD
ATOM     21  H   UNL     1      47.551   3.804   7.031  0.00  0.00    +0.000 HD
ENDBRANCH  18  19
ENDBRANCH  17  18
ENDBRANCH  12  17
ENDBRANCH   1  14
TORSDOF 5
ENDMDL
MODEL 7
REMARK VINA RESULT:    -5.478      4.174      7.389
REMARK INTER + INTRA:          -7.325
REMARK INTER:                  -6.857
REMARK INTRA:                  -0.468
REMARK UNBOUND:                -0.406
REMARK  Name = 
REMARK  5 active torsions:
REMARK  status: ('A' for Active; 'I' for Inactive)
REMARK    1  A    between atoms: N_1  and  C_2
REMARK    2  A    between atoms: C_2  and  C_3
REMARK    3  A    between atoms: C_3  and  C_4
REMARK    4  A    between atoms: N_6  and  C_7
REMARK    5  A    between atoms: C_7  and  C_8
REMARK                            x       y       z     vdW  Elec       q    Type
REMARK                         _______ _______ _______ _____ _____    ______ ____
ROOT
ATOM      1  C   UNL     1      47.154   3.408  14.295  0.00  0.00    +0.000 C 
ENDROOT
BRANCH   1   2
ATOM      2  C   UNL     1      46.956   4.723  13.586  0.00  0.00    +0.000 A 
ATOM      3  N   UNL     1      48.073   5.506  13.534  0.00  0.00    +0.000 NA
ATOM      4  C   UNL     1      47.989   6.675  12.874  0.00  0.00    +0.000 A 
ATOM      5  C   UNL     1      46.842   7.120  12.249  0.00  0.00    +0.000 A 
ATOM      6  C   UNL     1      45.692   6.329  12.306  0.00  0.00    +0.000 A 
ATOM      7  C   UNL     1      44.510   6.755  11.678  0.00  0.00    +0.000 A 
ATOM      8  C   UNL     1      43.351   5.983  11.735  0.00  0.00    +0.000 A 
ATOM      9  C   UNL     1      43.357   4.779  12.428  0.00  0.00    +0.000 A 
ATOM     10  C   UNL     1      44.528   4.337  13.049  0.00  0.00    +0.000 A 
ATOM     11  C   UNL     1      45.723   5.097  12.998  0.00  0.00    +0.000 A 
ENDBRANCH   1   2
BRANCH   1  14
ATOM     12  C   UNL     1      47.806   4.488  17.664  0.00  0.00    +0.000 A 
ATOM     13  C   UNL     1      47.105   4.652  16.487  0.00  0.00    +0.000 A 
ATOM     14  N   UNL     1      47.470   3.592  15.701  0.00  0.00    +0.000 N 
ATOM     15  C   UNL     1      48.321   2.812  16.434  0.00  0.00    +0.000 A 
ATOM     16  N   UNL     1      48.549   3.331  17.620  0.00  0.00    +0.000 NA
BRANCH  12  17
ATOM     17  C   UNL     1      47.875   5.387  18.850  0.00  0.00    +0.000 C 
BRANCH  17  18
ATOM     18  C   UNL     1      48.927   4.900  19.854  0.00  0.00    +0.000 C 
BRANCH  18  19
ATOM     19  N   UNL     1      48.424   3.814  20.697  0.00  0.00    +0.000 NA
ATOM     20  H   UNL     1      47.672   4.174  21.284  0.00  0.00    +0.000 HD
ATOM     21  H   UNL     1      49.161   3.526  21.342  0.00  0.00    +0.000 HD
ENDBRANCH  18  19
ENDBRANCH  17  18
ENDBRANCH  12  17
ENDBRANCH   1  14
TORSDOF 5
ENDMDL
MODEL 8
REMARK VINA RESULT:    -5.241      3.634      6.076
REMARK INTER + INTRA:          -7.025
REMARK INTER:                  -6.617
REMARK INTRA:                  -0.408
REMARK UNBOUND:                -0.406
REMARK  Name = 
REMARK  5 active torsions:
REMARK  status: ('A' for Active; 'I' for Inactive)
REMARK    1  A    between atoms: N_1  and  C_2
REMARK    2  A    between atoms: C_2  and  C_3
REMARK    3  A    between atoms: C_3  and  C_4
REMARK    4  A    between atoms: N_6  and  C_7
REMARK    5  A    between atoms: C_7  and  C_8
REMARK                            x       y       z     vdW  Elec       q    Type
REMARK                         _______ _______ _______ _____ _____    ______ ____
ROOT
ATOM      1  C   UNL     1      47.933   5.810  13.644  0.00  0.00    +0.000 C 
ENDROOT
BRANCH   1   2
ATOM      2  C   UNL     1      48.263   6.164  15.072  0.00  0.00    +0.000 A 
ATOM      3  N   UNL     1      48.597   7.473  15.263  0.00  0.00    +0.000 NA
ATOM      4  C   UNL     1      48.857   7.877  16.520  0.00  0.00    +0.000 A 
ATOM      5  C   UNL     1      48.801   7.043  17.618  0.00  0.00    +0.000 A 
ATOM      6  C   UNL     1      48.471   5.699  17.429  0.00  0.00    +0.000 A 
ATOM      7  C   UNL     1      48.405   4.826  18.528  0.00  0.00    +0.000 A 
ATOM      8  C   UNL     1      48.088   3.480  18.355  0.00  0.00    +0.000 A 
ATOM      9  C   UNL     1      47.839   2.988  17.081  0.00  0.00    +0.000 A 
ATOM     10  C   UNL     1      47.890   3.846  15.978  0.00  0.00    +0.000 A 
ATOM     11  C   UNL     1      48.200   5.220  16.127  0.00  0.00    +0.000 A 
ENDBRANCH   1   2
BRANCH   1  14
ATOM     12  C   UNL     1      44.415   5.522  12.948  0.00  0.00    +0.000 A 
ATOM     13  C   UNL     1      45.546   5.006  13.548  0.00  0.00    +0.000 A 
ATOM     14  N   UNL     1      46.514   5.955  13.364  0.00  0.00    +0.000 N 
ATOM     15  C   UNL     1      45.935   7.013  12.720  0.00  0.00    +0.000 A 
ATOM     16  N   UNL     1      44.671   6.778  12.449  0.00  0.00    +0.000 NA
BRANCH  12  17
ATOM     17  C   UNL     1      43.080   4.889  12.758  0.00  0.00    +0.000 C 
BRANCH  17  18
ATOM     18  C   UNL     1      43.006   4.141  11.422  0.00  0.00    +0.000 C 
BRANCH  18  19
ATOM     19  N   UNL     1      42.958   2.689  11.605  0.00  0.00    +0.000 NA
ATOM     20  H   UNL     1      43.869   2.368  11.932  0.00  0.00    +0.000 HD
ATOM     21  H   UNL     1      42.821   2.245  10.696  0.00  0.00    +0.000 HD
ENDBRANCH  18  19
ENDBRANCH  17  18
ENDBRANCH  12  17
ENDBRANCH   1  14
TORSDOF 5
ENDMDL
MODEL 9
REMARK VINA RESULT:    -5.219      3.284      5.549
REMARK INTER + INTRA:          -6.997
REMARK INTER:                  -6.416
REMARK INTRA:                  -0.581
REMARK UNBOUND:                -0.406
REMARK  Name = 
REMARK  5 active torsions:
REMARK  status: ('A' for Active; 'I' for Inactive)
REMARK    1  A    between atoms: N_1  and  C_2
REMARK    2  A    between atoms: C_2  and  C_3
REMARK    3  A    between atoms: C_3  and  C_4
REMARK    4  A    between atoms: N_6  and  C_7
REMARK    5  A    between atoms: C_7  and  C_8
REMARK                            x       y       z     vdW  Elec       q    Type
REMARK                         _______ _______ _______ _____ _____    ______ ____
ROOT
ATOM      1  C   UNL     1      45.705   7.984  13.062  0.00  0.00    +0.000 C 
ENDROOT
BRANCH   1   2
ATOM      2  C   UNL     1      46.145   9.196  12.280  0.00  0.00    +0.000 A 
ATOM      3  N   UNL     1      45.129  10.035  11.927  0.00  0.00    +0.000 NA
ATOM      4  C   UNL     1      45.449  11.164  11.268  0.00  0.00    +0.000 A 
ATOM      5  C   UNL     1      46.741  11.516  10.936  0.00  0.00    +0.000 A 
ATOM      6  C   UNL     1      47.785  10.656  11.285  0.00  0.00    +0.000 A 
ATOM      7  C   UNL     1      49.112  10.988  10.961  0.00  0.00    +0.000 A 
ATOM      8  C   UNL     1      50.164  10.136  11.292  0.00  0.00    +0.000 A 
ATOM      9  C   UNL     1      49.903   8.938  11.944  0.00  0.00    +0.000 A 
ATOM     10  C   UNL     1      48.590   8.599  12.282  0.00  0.00    +0.000 A 
ATOM     11  C   UNL     1      47.503   9.451  11.967  0.00  0.00    +0.000 A 
ENDBRANCH   1   2
BRANCH   1  14
ATOM     12  C   UNL     1      44.214   5.143  11.434  0.00  0.00    +0.000 A 
ATOM     13  C   UNL     1      44.133   6.130  12.395  0.00  0.00    +0.000 A 
ATOM     14  N   UNL     1      45.232   6.920  12.193  0.00  0.00    +0.000 N 
ATOM     15  C   UNL     1      45.898   6.426  11.106  0.00  0.00    +0.000 A 
ATOM     16  N   UNL     1      45.312   5.350  10.631  0.00  0.00    +0.000 NA
BRANCH  12  17
ATOM     17  C   UNL     1      43.341   3.955  11.230  0.00  0.00    +0.000 C 
BRANCH  17  18
ATOM     18  C   UNL     1      43.667   2.848  12.240  0.00  0.00    +0.000 C 
BRANCH  18  19
ATOM     19  N   UNL     1      45.099   2.777  12.537  0.00  0.00    +0.000 NA
ATOM     20  H   UNL     1      45.228   2.824  13.548  0.00  0.00    +0.000 HD
ATOM     21  H   UNL     1      45.557   3.609  12.164  0.00  0.00    +0.000 HD
ENDBRANCH  18  19
ENDBRANCH  17  18
ENDBRANCH  12  17
ENDBRANCH   1  14
TORSDOF 5
ENDMDL
