MODEL 1
REMARK VINA RESULT:    -8.138      0.000      0.000
REMARK INTER + INTRA:         -10.865
REMARK INTER:                 -10.042
REMARK INTRA:                  -0.823
REMARK UNBOUND:                -0.823
REMARK  Name = 
REMARK  6 active torsions:
REMARK  status: ('A' for Active; 'I' for Inactive)
REMARK    1  A    between atoms: C_1  and  C_2
REMARK    2  A    between atoms: C_2  and  C_3
REMARK    3  A    between atoms: C_2  and  C_4
REMARK    4  A    between atoms: C_2  and  C_18
REMARK    5  A    between atoms: C_5  and  C_6
REMARK    6  A    between atoms: C_8  and  N_9
REMARK                            x       y       z     vdW  Elec       q    Type
REMARK                         _______ _______ _______ _____ _____    ______ ____
ROOT
ATOM      1  C   UNL     1      45.209   4.192  12.043  0.00  0.00    +0.000 C 
ATOM      2  C   UNL     1      45.964   5.300  12.179  0.00  0.00    +0.000 C 
ENDROOT
BRANCH   2   3
ATOM      3  C   UNL     1      46.865   5.523  13.323  0.00  0.00    +0.000 A 
ATOM      4  C   UNL     1      46.745   4.748  14.462  0.00  0.00    +0.000 A 
ATOM      5  C   UNL     1      47.613   4.997  15.512  0.00  0.00    +0.000 A 
ATOM      6  N   UNL     1      48.547   5.957  15.401  0.00  0.00    +0.000 NA
ATOM      7  C   UNL     1      48.586   6.658  14.261  0.00  0.00    +0.000 A 
ATOM      8  N   UNL     1      47.785   6.495  13.208  0.00  0.00    +0.000 NA
BRANCH   5   9
ATOM      9  N   UNL     1      47.580   4.238  16.666  0.00  0.00    +0.000 N 
ATOM     10  C   UNL     1      47.248   4.795  17.983  0.00  0.00    +0.000 C 
ATOM     11  C   UNL     1      48.453   4.695  18.935  0.00  0.00    +0.000 C 
ATOM     12  O   UNL     1      48.968   3.357  19.007  0.00  0.00    +0.000 OA
ATOM     13  C   UNL     1      49.406   2.928  17.706  0.00  0.00    +0.000 C 
ATOM     14  C   UNL     1      48.247   2.927  16.701  0.00  0.00    +0.000 C 
ENDBRANCH   5   9
ENDBRANCH   2   3
BRANCH   1  16
ATOM     15  C   UNL     1      43.380   2.693  11.398  0.00  0.00    +0.000 C 
ATOM     16  C   UNL     1      44.294   3.827  10.881  0.00  0.00    +0.000 C 
ATOM     17  C   UNL     1      43.380   5.043  10.582  0.00  0.00    +0.000 C 
BRANCH  16  18
ATOM     18  C   UNL     1      45.053   3.469   9.585  0.00  0.00    +0.000 A 
ATOM     19  C   UNL     1      45.531   4.443   8.692  0.00  0.00    +0.000 A 
ATOM     20  C   UNL     1      46.260   4.089   7.551  0.00  0.00    +0.000 A 
ATOM     21  C   UNL     1      46.520   2.750   7.280  0.00  0.00    +0.000 A 
ATOM     22 CL   UNL     1      47.433   2.319   5.888  0.00  0.00    +0.000 Cl
ATOM     23  C   UNL     1      46.047   1.761   8.135  0.00  0.00    +0.000 A 
ATOM     24  C   UNL     1      45.318   2.118   9.274  0.00  0.00    +0.000 A 
ENDBRANCH  16  18
ENDBRANCH   1  16
TORSDOF 4
ENDMDL
MODEL 2
REMARK VINA RESULT:    -7.864      2.121      3.421
REMARK INTER + INTRA:         -10.526
REMARK INTER:                  -9.633
REMARK INTRA:                  -0.893
REMARK UNBOUND:                -0.823
REMARK  Name = 
REMARK  6 active torsions:
REMARK  status: ('A' for Active; 'I' for Inactive)
REMARK    1  A    between atoms: C_1  and  C_2
REMARK    2  A    between atoms: C_2  and  C_3
REMARK    3  A    between atoms: C_2  and  C_4
REMARK    4  A    between atoms: C_2  and  C_18
REMARK    5  A    between atoms: C_5  and  C_6
REMARK    6  A    between atoms: C_8  and  N_9
REMARK                            x       y       z     vdW  Elec       q    Type
REMARK                         _______ _______ _______ _____ _____    ______ ____
ROOT
ATOM      1  C   UNL     1      45.165   4.506  12.116  0.00  0.00    +0.000 C 
ATOM      2  C   UNL     1      45.984   3.785  12.906  0.00  0.00    +0.000 C 
ENDROOT
BRANCH   2   3
ATOM      3  C   UNL     1      46.808   4.384  13.969  0.00  0.00    +0.000 A 
ATOM      4  C   UNL     1      47.364   5.638  13.793  0.00  0.00    +0.000 A 
ATOM      5  C   UNL     1      48.134   6.158  14.820  0.00  0.00    +0.000 A 
ATOM      6  N   UNL     1      48.309   5.457  15.952  0.00  0.00    +0.000 NA
ATOM      7  C   UNL     1      47.733   4.250  16.032  0.00  0.00    +0.000 A 
ATOM      8  N   UNL     1      46.990   3.668  15.091  0.00  0.00    +0.000 NA
BRANCH   5   9
ATOM      9  N   UNL     1      48.689   7.421  14.732  0.00  0.00    +0.000 N 
ATOM     10  C   UNL     1      47.919   8.611  14.357  0.00  0.00    +0.000 C 
ATOM     11  C   UNL     1      48.430   9.193  13.027  0.00  0.00    +0.000 C 
ATOM     12  O   UNL     1      49.845   9.429  13.055  0.00  0.00    +0.000 OA
ATOM     13  C   UNL     1      50.545   8.194  13.287  0.00  0.00    +0.000 C 
ATOM     14  C   UNL     1      50.149   7.573  14.633  0.00  0.00    +0.000 C 
ENDBRANCH   5   9
ENDBRANCH   2   3
BRANCH   1  16
ATOM     15  C   UNL     1      43.400   2.860  11.688  0.00  0.00    +0.000 C 
ATOM     16  C   UNL     1      44.226   3.990  11.032  0.00  0.00    +0.000 C 
ATOM     17  C   UNL     1      43.233   5.124  10.672  0.00  0.00    +0.000 C 
BRANCH  16  18
ATOM     18  C   UNL     1      44.950   3.558   9.739  0.00  0.00    +0.000 A 
ATOM     19  C   UNL     1      45.480   4.482   8.821  0.00  0.00    +0.000 A 
ATOM     20  C   UNL     1      46.176   4.059   7.683  0.00  0.00    +0.000 A 
ATOM     21  C   UNL     1      46.351   2.701   7.440  0.00  0.00    +0.000 A 
ATOM     22 CL   UNL     1      47.224   2.185   6.052  0.00  0.00    +0.000 Cl
ATOM     23  C   UNL     1      45.825   1.761   8.319  0.00  0.00    +0.000 A 
ATOM     24  C   UNL     1      45.130   2.187   9.456  0.00  0.00    +0.000 A 
ENDBRANCH  16  18
ENDBRANCH   1  16
TORSDOF 4
ENDMDL
MODEL 3
REMARK VINA RESULT:    -7.441      1.929      2.959
REMARK INTER + INTRA:         -10.004
REMARK INTER:                  -9.241
REMARK INTRA:                  -0.763
REMARK UNBOUND:                -0.823
REMARK  Name = 
REMARK  6 active torsions:
REMARK  status: ('A' for Active; 'I' for Inactive)
REMARK    1  A    between atoms: C_1  and  C_2
REMARK    2  A    between atoms: C_2  and  C_3
REMARK    3  A    between atoms: C_2  and  C_4
REMARK    4  A    between atoms: C_2  and  C_18
REMARK    5  A    between atoms: C_5  and  C_6
REMARK    6  A    between atoms: C_8  and  N_9
REMARK                            x       y       z     vdW  Elec       q    Type
REMARK                         _______ _______ _______ _____ _____    ______ ____
ROOT
ATOM      1  C   UNL     1      45.035   4.082  12.283  0.00  0.00    +0.000 C 
ATOM      2  C   UNL     1      45.972   5.030  12.483  0.00  0.00    +0.000 C 
ENDROOT
BRANCH   2   3
ATOM      3  C   UNL     1      46.790   5.105  13.705  0.00  0.00    +0.000 A 
ATOM      4  C   UNL     1      47.652   6.169  13.898  0.00  0.00    +0.000 A 
ATOM      5  C   UNL     1      48.402   6.194  15.062  0.00  0.00    +0.000 A 
ATOM      6  N   UNL     1      48.270   5.214  15.971  0.00  0.00    +0.000 NA
ATOM      7  C   UNL     1      47.412   4.223  15.697  0.00  0.00    +0.000 A 
ATOM      8  N   UNL     1      46.661   4.112  14.601  0.00  0.00    +0.000 NA
BRANCH   5   9
ATOM      9  N   UNL     1      49.256   7.244  15.343  0.00  0.00    +0.000 N 
ATOM     10  C   UNL     1      50.612   7.056  15.872  0.00  0.00    +0.000 C 
ATOM     11  C   UNL     1      50.735   7.660  17.282  0.00  0.00    +0.000 C 
ATOM     12  O   UNL     1      50.306   9.029  17.317  0.00  0.00    +0.000 OA
ATOM     13  C   UNL     1      48.926   9.122  16.924  0.00  0.00    +0.000 C 
ATOM     14  C   UNL     1      48.718   8.606  15.494  0.00  0.00    +0.000 C 
ENDBRANCH   5   9
ENDBRANCH   2   3
BRANCH   1  16
ATOM     15  C   UNL     1      43.131   2.798  11.425  0.00  0.00    +0.000 C 
ATOM     16  C   UNL     1      44.177   3.870  11.041  0.00  0.00    +0.000 C 
ATOM     17  C   UNL     1      43.399   5.179  10.759  0.00  0.00    +0.000 C 
BRANCH  16  18
ATOM     18  C   UNL     1      44.994   3.515   9.779  0.00  0.00    +0.000 A 
ATOM     19  C   UNL     1      45.228   2.190   9.374  0.00  0.00    +0.000 A 
ATOM     20  C   UNL     1      45.929   1.902   8.198  0.00  0.00    +0.000 A 
ATOM     21  C   UNL     1      46.413   2.937   7.406  0.00  0.00    +0.000 A 
ATOM     22 CL   UNL     1      47.256   2.580   5.951  0.00  0.00    +0.000 Cl
ATOM     23  C   UNL     1      46.213   4.259   7.787  0.00  0.00    +0.000 A 
ATOM     24  C   UNL     1      45.512   4.544   8.963  0.00  0.00    +0.000 A 
ENDBRANCH  16  18
ENDBRANCH   1  16
TORSDOF 4
ENDMDL
MODEL 4
REMARK VINA RESULT:    -7.149      3.854      7.918
REMARK INTER + INTRA:          -9.644
REMARK INTER:                  -8.761
REMARK INTRA:                  -0.883
REMARK UNBOUND:                -0.823
REMARK  Name = 
REMARK  6 active torsions:
REMARK  status: ('A' for Active; 'I' for Inactive)
REMARK    1  A    between atoms: C_1  and  C_2
REMARK    2  A    between atoms: C_2  and  C_3
REMARK    3  A    between atoms: C_2  and  C_4
REMARK    4  A    between atoms: C_2  and  C_18
REMARK    5  A    between atoms: C_5  and  C_6
REMARK    6  A    between atoms: C_8  and  N_9
REMARK                            x       y       z     vdW  Elec       q    Type
REMARK                         _______ _______ _______ _____ _____    ______ ____
ROOT
ATOM      1  C   UNL     1      47.573   4.369  15.893  0.00  0.00    +0.000 C 
ATOM      2  C   UNL     1      47.935   5.475  15.214  0.00  0.00    +0.000 C 
ENDROOT
BRANCH   2   3
ATOM      3  C   UNL     1      47.415   5.803  13.876  0.00  0.00    +0.000 A 
ATOM      4  C   UNL     1      46.293   5.156  13.390  0.00  0.00    +0.000 A 
ATOM      5  C   UNL     1      45.844   5.497  12.125  0.00  0.00    +0.000 A 
ATOM      6  N   UNL     1      46.483   6.441  11.414  0.00  0.00    +0.000 NA
ATOM      7  C   UNL     1      47.562   7.012  11.966  0.00  0.00    +0.000 A 
ATOM      8  N   UNL     1      48.070   6.738  13.168  0.00  0.00    +0.000 NA
BRANCH   5   9
ATOM      9  N   UNL     1      44.707   4.923  11.588  0.00  0.00    +0.000 N 
ATOM     10  C   UNL     1      43.619   4.380  12.409  0.00  0.00    +0.000 C 
ATOM     11  C   UNL     1      43.486   2.861  12.202  0.00  0.00    +0.000 C 
ATOM     12  O   UNL     1      43.362   2.519  10.813  0.00  0.00    +0.000 OA
ATOM     13  C   UNL     1      44.529   2.956  10.095  0.00  0.00    +0.000 C 
ATOM     14  C   UNL     1      44.704   4.477  10.186  0.00  0.00    +0.000 C 
ENDBRANCH   5   9
ENDBRANCH   2   3
BRANCH   1  16
ATOM     15  C   UNL     1      47.633   5.152  18.215  0.00  0.00    +0.000 C 
ATOM     16  C   UNL     1      47.995   3.960  17.299  0.00  0.00    +0.000 C 
ATOM     17  C   UNL     1      47.113   2.766  17.743  0.00  0.00    +0.000 C 
BRANCH  16  18
ATOM     18  C   UNL     1      49.474   3.527  17.400  0.00  0.00    +0.000 A 
ATOM     19  C   UNL     1      50.505   4.423  17.733  0.00  0.00    +0.000 A 
ATOM     20  C   UNL     1      51.829   3.989  17.866  0.00  0.00    +0.000 A 
ATOM     21  C   UNL     1      52.147   2.650  17.664  0.00  0.00    +0.000 A 
ATOM     22 CL   UNL     1      53.771   2.118  17.848  0.00  0.00    +0.000 Cl
ATOM     23  C   UNL     1      51.152   1.743  17.317  0.00  0.00    +0.000 A 
ATOM     24  C   UNL     1      49.830   2.179  17.184  0.00  0.00    +0.000 A 
ENDBRANCH  16  18
ENDBRANCH   1  16
TORSDOF 4
ENDMDL
MODEL 5
REMARK VINA RESULT:    -7.089      1.240      1.433
REMARK INTER + INTRA:          -9.570
REMARK INTER:                  -8.873
REMARK INTRA:                  -0.697
REMARK UNBOUND:                -0.823
REMARK  Name = 
REMARK  6 active torsions:
REMARK  status: ('A' for Active; 'I' for Inactive)
REMARK    1  A    between atoms: C_1  and  C_2
REMARK    2  A    between atoms: C_2  and  C_3
REMARK    3  A    between atoms: C_2  and  C_4
REMARK    4  A    between atoms: C_2  and  C_18
REMARK    5  A    between atoms: C_5  and  C_6
REMARK    6  A    between atoms: C_8  and  N_9
REMARK                            x       y       z     vdW  Elec       q    Type
REMARK                         _______ _______ _______ _____ _____    ______ ____
ROOT
ATOM      1  C   UNL     1      45.321   5.103  12.585  0.00  0.00    +0.000 C 
ATOM      2  C   UNL     1      46.496   5.692  12.291  0.00  0.00    +0.000 C 
ENDROOT
BRANCH   2   3
ATOM      3  C   UNL     1      47.502   6.034  13.311  0.00  0.00    +0.000 A 
ATOM      4  C   UNL     1      47.469   5.421  14.550  0.00  0.00    +0.000 A 
ATOM      5  C   UNL     1      48.434   5.778  15.477  0.00  0.00    +0.000 A 
ATOM      6  N   UNL     1      49.374   6.682  15.157  0.00  0.00    +0.000 NA
ATOM      7  C   UNL     1      49.325   7.225  13.934  0.00  0.00    +0.000 A 
ATOM      8  N   UNL     1      48.428   6.951  12.986  0.00  0.00    +0.000 NA
BRANCH   5   9
ATOM      9  N   UNL     1      48.490   5.179  16.722  0.00  0.00    +0.000 N 
ATOM     10  C   UNL     1      47.315   4.609  17.390  0.00  0.00    +0.000 C 
ATOM     11  C   UNL     1      46.999   5.377  18.685  0.00  0.00    +0.000 C 
ATOM     12  O   UNL     1      48.143   5.467  19.547  0.00  0.00    +0.000 OA
ATOM     13  C   UNL     1      49.209   6.163  18.877  0.00  0.00    +0.000 C 
ATOM     14  C   UNL     1      49.642   5.427  17.603  0.00  0.00    +0.000 C 
ENDBRANCH   5   9
ENDBRANCH   2   3
BRANCH   1  16
ATOM     15  C   UNL     1      43.364   3.639  12.391  0.00  0.00    +0.000 C 
ATOM     16  C   UNL     1      44.238   4.649  11.613  0.00  0.00    +0.000 C 
ATOM     17  C   UNL     1      43.337   5.868  11.288  0.00  0.00    +0.000 C 
BRANCH  16  18
ATOM     18  C   UNL     1      44.793   4.095  10.284  0.00  0.00    +0.000 A 
ATOM     19  C   UNL     1      45.341   4.921   9.287  0.00  0.00    +0.000 A 
ATOM     20  C   UNL     1      45.882   4.383   8.114  0.00  0.00    +0.000 A 
ATOM     21  C   UNL     1      45.881   3.007   7.914  0.00  0.00    +0.000 A 
ATOM     22 CL   UNL     1      46.565   2.349   6.481  0.00  0.00    +0.000 Cl
ATOM     23  C   UNL     1      45.332   2.164   8.873  0.00  0.00    +0.000 A 
ATOM     24  C   UNL     1      44.791   2.704  10.045  0.00  0.00    +0.000 A 
ENDBRANCH  16  18
ENDBRANCH   1  16
TORSDOF 4
ENDMDL
MODEL 6
REMARK VINA RESULT:    -6.930      1.687      2.376
REMARK INTER + INTRA:          -9.373
REMARK INTER:                  -8.642
REMARK INTRA:                  -0.731
REMARK UNBOUND:                -0.823
REMARK  Name = 
REMARK  6 active torsions:
REMARK  status: ('A' for Active; 'I' for Inactive)
REMARK    1  A    between atoms: C_1  and  C_2
REMARK    2  A    between atoms: C_2  and  C_3
REMARK    3  A    between atoms: C_2  and  C_4
REMARK    4  A    between atoms: C_2  and  C_18
REMARK    5  A    between atoms: C_5  and  C_6
REMARK    6  A    between atoms: C_8  and  N_9
REMARK                            x       y       z     vdW  Elec       q    Type
REMARK                         _______ _______ _______ _____ _____    ______ ____
ROOT
ATOM      1  C   UNL     1      45.711   4.200  12.784  0.00  0.00    +0.000 C 
ATOM      2  C   UNL     1      46.008   4.872  13.914  0.00  0.00    +0.000 C 
ENDROOT
BRANCH   2   3
ATOM      3  C   UNL     1      47.021   4.413  14.878  0.00  0.00    +0.000 A 
ATOM      4  C   UNL     1      47.581   5.305  15.774  0.00  0.00    +0.000 A 
ATOM      5  C   UNL     1      48.532   4.827  16.660  0.00  0.00    +0.000 A 
ATOM      6  N   UNL     1      48.876   3.528  16.644  0.00  0.00    +0.000 NA
ATOM      7  C   UNL     1      48.282   2.739  15.739  0.00  0.00    +0.000 A 
ATOM      8  N   UNL     1      47.369   3.116  14.844  0.00  0.00    +0.000 NA
BRANCH   5   9
ATOM      9  N   UNL     1      49.106   5.650  17.610  0.00  0.00    +0.000 N 
ATOM     10  C   UNL     1      49.916   5.145  18.725  0.00  0.00    +0.000 C 
ATOM     11  C   UNL     1      49.234   5.444  20.072  0.00  0.00    +0.000 C 
ATOM     12  O   UNL     1      48.903   6.834  20.207  0.00  0.00    +0.000 OA
ATOM     13  C   UNL     1      47.994   7.225  19.163  0.00  0.00    +0.000 C 
ATOM     14  C   UNL     1      48.620   7.028  17.776  0.00  0.00    +0.000 C 
ENDBRANCH   5   9
ENDBRANCH   2   3
BRANCH   1  16
ATOM     15  C   UNL     1      43.353   4.066  12.127  0.00  0.00    +0.000 C 
ATOM     16  C   UNL     1      44.733   4.609  11.689  0.00  0.00    +0.000 C 
ATOM     17  C   UNL     1      44.628   6.155  11.683  0.00  0.00    +0.000 C 
BRANCH  16  18
ATOM     18  C   UNL     1      45.158   4.151  10.277  0.00  0.00    +0.000 A 
ATOM     19  C   UNL     1      45.683   5.036   9.319  0.00  0.00    +0.000 A 
ATOM     20  C   UNL     1      46.107   4.583   8.065  0.00  0.00    +0.000 A 
ATOM     21  C   UNL     1      46.009   3.233   7.744  0.00  0.00    +0.000 A 
ATOM     22 CL   UNL     1      46.548   2.676   6.210  0.00  0.00    +0.000 Cl
ATOM     23  C   UNL     1      45.478   2.334   8.662  0.00  0.00    +0.000 A 
ATOM     24  C   UNL     1      45.055   2.791   9.915  0.00  0.00    +0.000 A 
ENDBRANCH  16  18
ENDBRANCH   1  16
TORSDOF 4
ENDMDL
MODEL 7
REMARK VINA RESULT:    -6.587      4.416      8.336
REMARK INTER + INTRA:          -8.950
REMARK INTER:                  -8.223
REMARK INTRA:                  -0.727
REMARK UNBOUND:                -0.823
REMARK  Name = 
REMARK  6 active torsions:
REMARK  status: ('A' for Active; 'I' for Inactive)
REMARK    1  A    between atoms: C_1  and  C_2
REMARK    2  A    between atoms: C_2  and  C_3
REMARK    3  A    between atoms: C_2  and  C_4
REMARK    4  A    between atoms: C_2  and  C_18
REMARK    5  A    between atoms: C_5  and  C_6
REMARK    6  A    between atoms: C_8  and  N_9
REMARK                            x       y       z     vdW  Elec       q    Type
REMARK                         _______ _______ _______ _____ _____    ______ ____
ROOT
ATOM      1  C   UNL     1      47.209   6.343  13.077  0.00  0.00    +0.000 C 
ATOM      2  C   UNL     1      46.045   6.548  12.430  0.00  0.00    +0.000 C 
ENDROOT
BRANCH   2   3
ATOM      3  C   UNL     1      45.151   5.452  12.018  0.00  0.00    +0.000 A 
ATOM      4  C   UNL     1      45.276   4.891  10.760  0.00  0.00    +0.000 A 
ATOM      5  C   UNL     1      44.411   3.866  10.417  0.00  0.00    +0.000 A 
ATOM      6  N   UNL     1      43.496   3.432  11.300  0.00  0.00    +0.000 NA
ATOM      7  C   UNL     1      43.449   4.037  12.494  0.00  0.00    +0.000 A 
ATOM      8  N   UNL     1      44.231   5.036  12.903  0.00  0.00    +0.000 NA
BRANCH   5   9
ATOM      9  N   UNL     1      44.500   3.230   9.193  0.00  0.00    +0.000 N 
ATOM     10  C   UNL     1      44.680   1.780   9.054  0.00  0.00    +0.000 C 
ATOM     11  C   UNL     1      46.031   1.461   8.391  0.00  0.00    +0.000 C 
ATOM     12  O   UNL     1      46.200   2.166   7.153  0.00  0.00    +0.000 OA
ATOM     13  C   UNL     1      46.155   3.585   7.386  0.00  0.00    +0.000 C 
ATOM     14  C   UNL     1      44.807   4.009   7.984  0.00  0.00    +0.000 C 
ENDBRANCH   5   9
ENDBRANCH   2   3
BRANCH   1  16
ATOM     15  C   UNL     1      49.054   7.808  12.400  0.00  0.00    +0.000 C 
ATOM     16  C   UNL     1      48.177   7.396  13.604  0.00  0.00    +0.000 C 
ATOM     17  C   UNL     1      47.359   8.645  14.016  0.00  0.00    +0.000 C 
BRANCH  16  18
ATOM     18  C   UNL     1      48.990   6.929  14.832  0.00  0.00    +0.000 A 
ATOM     19  C   UNL     1      48.466   6.056  15.801  0.00  0.00    +0.000 A 
ATOM     20  C   UNL     1      49.245   5.611  16.875  0.00  0.00    +0.000 A 
ATOM     21  C   UNL     1      50.563   6.036  17.002  0.00  0.00    +0.000 A 
ATOM     22 CL   UNL     1      51.523   5.472  18.312  0.00  0.00    +0.000 Cl
ATOM     23  C   UNL     1      51.106   6.913  16.070  0.00  0.00    +0.000 A 
ATOM     24  C   UNL     1      50.325   7.356  14.997  0.00  0.00    +0.000 A 
ENDBRANCH  16  18
ENDBRANCH   1  16
TORSDOF 4
ENDMDL
MODEL 8
REMARK VINA RESULT:    -6.340      4.357      7.021
REMARK INTER + INTRA:          -8.646
REMARK INTER:                  -7.933
REMARK INTRA:                  -0.713
REMARK UNBOUND:                -0.823
REMARK  Name = 
REMARK  6 active torsions:
REMARK  status: ('A' for Active; 'I' for Inactive)
REMARK    1  A    between atoms: C_1  and  C_2
REMARK    2  A    between atoms: C_2  and  C_3
REMARK    3  A    between atoms: C_2  and  C_4
REMARK    4  A    between atoms: C_2  and  C_18
REMARK    5  A    between atoms: C_5  and  C_6
REMARK    6  A    between atoms: C_8  and  N_9
REMARK                            x       y       z     vdW  Elec       q    Type
REMARK                         _______ _______ _______ _____ _____    ______ ____
ROOT
ATOM      1  C   UNL     1      48.566   8.307  12.503  0.00  0.00    +0.000 C 
ATOM      2  C   UNL     1      48.719   7.418  13.504  0.00  0.00    +0.000 C 
ENDROOT
BRANCH   2   3
ATOM      3  C   UNL     1      47.788   6.301  13.736  0.00  0.00    +0.000 A 
ATOM      4  C   UNL     1      46.698   6.122  12.903  0.00  0.00    +0.000 A 
ATOM      5  C   UNL     1      45.850   5.059  13.163  0.00  0.00    +0.000 A 
ATOM      6  N   UNL     1      46.103   4.229  14.188  0.00  0.00    +0.000 NA
ATOM      7  C   UNL     1      47.181   4.483  14.942  0.00  0.00    +0.000 A 
ATOM      8  N   UNL     1      48.042   5.486  14.773  0.00  0.00    +0.000 NA
BRANCH   5   9
ATOM      9  N   UNL     1      44.763   4.793  12.351  0.00  0.00    +0.000 N 
ATOM     10  C   UNL     1      43.591   4.035  12.803  0.00  0.00    +0.000 C 
ATOM     11  C   UNL     1      43.457   2.720  12.016  0.00  0.00    +0.000 C 
ATOM     12  O   UNL     1      43.466   2.941  10.598  0.00  0.00    +0.000 OA
ATOM     13  C   UNL     1      44.705   3.558  10.206  0.00  0.00    +0.000 C 
ATOM     14  C   UNL     1      44.892   4.918  10.891  0.00  0.00    +0.000 C 
ENDBRANCH   5   9
ENDBRANCH   2   3
BRANCH   1  16
ATOM     15  C   UNL     1      48.591  10.548  11.509  0.00  0.00    +0.000 C 
ATOM     16  C   UNL     1      49.494   9.458  12.131  0.00  0.00    +0.000 C 
ATOM     17  C   UNL     1      50.080  10.049  13.438  0.00  0.00    +0.000 C 
BRANCH  16  18
ATOM     18  C   UNL     1      50.671   9.036  11.225  0.00  0.00    +0.000 A 
ATOM     19  C   UNL     1      51.577   9.962  10.679  0.00  0.00    +0.000 A 
ATOM     20  C   UNL     1      52.663   9.544   9.902  0.00  0.00    +0.000 A 
ATOM     21  C   UNL     1      52.861   8.190   9.654  0.00  0.00    +0.000 A 
ATOM     22 CL   UNL     1      54.209   7.679   8.717  0.00  0.00    +0.000 Cl
ATOM     23  C   UNL     1      51.974   7.250  10.166  0.00  0.00    +0.000 A 
ATOM     24  C   UNL     1      50.889   7.671  10.942  0.00  0.00    +0.000 A 
ENDBRANCH  16  18
ENDBRANCH   1  16
TORSDOF 4
ENDMDL
MODEL 9
REMARK VINA RESULT:    -6.036      2.132      3.605
REMARK INTER + INTRA:          -8.270
REMARK INTER:                  -7.738
REMARK INTRA:                  -0.532
REMARK UNBOUND:                -0.823
REMARK  Name = 
REMARK  6 active torsions:
REMARK  status: ('A' for Active; 'I' for Inactive)
REMARK    1  A    between atoms: C_1  and  C_2
REMARK    2  A    between atoms: C_2  and  C_3
REMARK    3  A    between atoms: C_2  and  C_4
REMARK    4  A    between atoms: C_2  and  C_18
REMARK    5  A    between atoms: C_5  and  C_6
REMARK    6  A    between atoms: C_8  and  N_9
REMARK                            x       y       z     vdW  Elec       q    Type
REMARK                         _______ _______ _______ _____ _____    ______ ____
ROOT
ATOM      1  C   UNL     1      46.621   6.082  13.692  0.00  0.00    +0.000 C 
ATOM      2  C   UNL     1      47.410   5.033  13.999  0.00  0.00    +0.000 C 
ENDROOT
BRANCH   2   3
ATOM      3  C   UNL     1      47.676   4.606  15.383  0.00  0.00    +0.000 A 
ATOM      4  C   UNL     1      48.013   5.541  16.345  0.00  0.00    +0.000 A 
ATOM      5  C   UNL     1      48.256   5.090  17.631  0.00  0.00    +0.000 A 
ATOM      6  N   UNL     1      48.147   3.782  17.920  0.00  0.00    +0.000 NA
ATOM      7  C   UNL     1      47.818   2.951  16.923  0.00  0.00    +0.000 A 
ATOM      8  N   UNL     1      47.578   3.295  15.657  0.00  0.00    +0.000 NA
BRANCH   5   9
ATOM      9  N   UNL     1      48.560   5.968  18.655  0.00  0.00    +0.000 N 
ATOM     10  C   UNL     1      48.502   5.598  20.073  0.00  0.00    +0.000 C 
ATOM     11  C   UNL     1      47.420   6.412  20.805  0.00  0.00    +0.000 C 
ATOM     12  O   UNL     1      47.584   7.823  20.602  0.00  0.00    +0.000 OA
ATOM     13  C   UNL     1      47.487   8.132  19.201  0.00  0.00    +0.000 C 
ATOM     14  C   UNL     1      48.579   7.416  18.395  0.00  0.00    +0.000 C 
ENDBRANCH   5   9
ENDBRANCH   2   3
BRANCH   1  16
ATOM     15  C   UNL     1      45.197   7.704  12.531  0.00  0.00    +0.000 C 
ATOM     16  C   UNL     1      46.226   6.574  12.304  0.00  0.00    +0.000 C 
ATOM     17  C   UNL     1      47.471   7.223  11.648  0.00  0.00    +0.000 C 
BRANCH  16  18
ATOM     18  C   UNL     1      45.721   5.453  11.371  0.00  0.00    +0.000 A 
ATOM     19  C   UNL     1      45.801   5.540   9.970  0.00  0.00    +0.000 A 
ATOM     20  C   UNL     1      45.380   4.486   9.151  0.00  0.00    +0.000 A 
ATOM     21  C   UNL     1      44.867   3.325   9.720  0.00  0.00    +0.000 A 
ATOM     22 CL   UNL     1      44.370   2.024   8.712  0.00  0.00    +0.000 Cl
ATOM     23  C   UNL     1      44.760   3.214  11.102  0.00  0.00    +0.000 A 
ATOM     24  C   UNL     1      45.180   4.270  11.918  0.00  0.00    +0.000 A 
ENDBRANCH  16  18
ENDBRANCH   1  16
TORSDOF 4
ENDMDL
