MODEL 1
REMARK VINA RESULT:    -7.904      0.000      0.000
REMARK INTER + INTRA:         -10.270
REMARK INTER:                  -9.752
REMARK INTRA:                  -0.518
REMARK UNBOUND:                -0.518
REMARK  Name = 
REMARK  5 active torsions:
REMARK  status: ('A' for Active; 'I' for Inactive)
REMARK    1  A    between atoms: C_1  and  C_2
REMARK    2  A    between atoms: C_2  and  O_3
REMARK    3  A    between atoms: C_2  and  C_13
REMARK    4  A    between atoms: O_3  and  C_4
REMARK    5  A    between atoms: C_7  and  C_8
REMARK                            x       y       z     vdW  Elec       q    Type
REMARK                         _______ _______ _______ _____ _____    ______ ____
ROOT
ATOM      1  C   UNL     1      44.631   3.999   9.111  0.00  0.00    +0.000 A 
ATOM      2  C   UNL     1      45.614   4.358   8.188  0.00  0.00    +0.000 A 
ATOM      3  C   UNL     1      46.416   3.373   7.614  0.00  0.00    +0.000 A 
ATOM      4  C   UNL     1      46.217   2.053   7.996  0.00  0.00    +0.000 A 
ATOM      5  N   UNL     1      45.281   1.660   8.907  0.00  0.00    +0.000 NA
ATOM      6  C   UNL     1      44.518   2.650   9.441  0.00  0.00    +0.000 A 
ENDROOT
BRANCH   4   7
ATOM      7  C   UNL     1      47.072   0.981   7.392  0.00  0.00    +0.000 C 
ATOM      8  N   UNL     1      46.714  -0.305   7.697  0.00  0.00    +0.000 N 
ATOM      9  O   UNL     1      48.032   1.228   6.669  0.00  0.00    +0.000 OA
ATOM     10  H   UNL     1      45.920  -0.476   8.303  0.00  0.00    +0.000 HD
ATOM     11  H   UNL     1      47.256  -1.074   7.326  0.00  0.00    +0.000 HD
ENDBRANCH   4   7
BRANCH   1  12
ATOM     12  O   UNL     1      43.803   4.889   9.753  0.00  0.00    +0.000 OA
BRANCH  12  14
ATOM     13  C   UNL     1      42.669   4.562  11.933  0.00  0.00    +0.000 C 
ATOM     14  C   UNL     1      43.868   4.943  11.135  0.00  0.00    +0.000 C 
BRANCH  14  15
ATOM     15  C   UNL     1      45.129   5.357  11.755  0.00  0.00    +0.000 A 
ATOM     16  C   UNL     1      45.933   6.352  11.182  0.00  0.00    +0.000 A 
ATOM     17  C   UNL     1      47.144   6.719  11.779  0.00  0.00    +0.000 A 
ATOM     18  C   UNL     1      47.551   6.110  12.965  0.00  0.00    +0.000 A 
ATOM     19  C   UNL     1      46.749   5.135  13.549  0.00  0.00    +0.000 A 
ATOM     20 CL   UNL     1      47.233   4.393  15.023  0.00  0.00    +0.000 Cl
ATOM     21  C   UNL     1      45.549   4.755  12.949  0.00  0.00    +0.000 A 
ENDBRANCH  14  15
ENDBRANCH  12  14
ENDBRANCH   1  12
TORSDOF 4
ENDMDL
MODEL 2
REMARK VINA RESULT:    -7.803      2.080      2.446
REMARK INTER + INTRA:         -10.146
REMARK INTER:                  -9.514
REMARK INTRA:                  -0.632
REMARK UNBOUND:                -0.518
REMARK  Name = 
REMARK  5 active torsions:
REMARK  status: ('A' for Active; 'I' for Inactive)
REMARK    1  A    between atoms: C_1  and  C_2
REMARK    2  A    between atoms: C_2  and  O_3
REMARK    3  A    between atoms: C_2  and  C_13
REMARK    4  A    between atoms: O_3  and  C_4
REMARK    5  A    between atoms: C_7  and  C_8
REMARK                            x       y       z     vdW  Elec       q    Type
REMARK                         _______ _______ _______ _____ _____    ______ ____
ROOT
ATOM      1  C   UNL     1      44.597   3.493   9.375  0.00  0.00    +0.000 A 
ATOM      2  C   UNL     1      44.971   2.153   9.285  0.00  0.00    +0.000 A 
ATOM      3  C   UNL     1      45.924   1.762   8.346  0.00  0.00    +0.000 A 
ATOM      4  C   UNL     1      46.465   2.730   7.511  0.00  0.00    +0.000 A 
ATOM      5  N   UNL     1      46.115   4.048   7.551  0.00  0.00    +0.000 NA
ATOM      6  C   UNL     1      45.185   4.388   8.483  0.00  0.00    +0.000 A 
ENDROOT
BRANCH   4   7
ATOM      7  C   UNL     1      47.488   2.328   6.493  0.00  0.00    +0.000 C 
ATOM      8  N   UNL     1      47.498   3.066   5.340  0.00  0.00    +0.000 N 
ATOM      9  O   UNL     1      48.271   1.401   6.671  0.00  0.00    +0.000 OA
ATOM     10  H   UNL     1      46.833   3.821   5.219  0.00  0.00    +0.000 HD
ATOM     11  H   UNL     1      48.160   2.840   4.610  0.00  0.00    +0.000 HD
ENDBRANCH   4   7
BRANCH   1  12
ATOM     12  O   UNL     1      43.653   3.982  10.246  0.00  0.00    +0.000 OA
BRANCH  12  14
ATOM     13  C   UNL     1      43.491   3.032  12.530  0.00  0.00    +0.000 C 
ATOM     14  C   UNL     1      43.998   4.066  11.585  0.00  0.00    +0.000 C 
BRANCH  14  15
ATOM     15  C   UNL     1      44.869   5.164  12.010  0.00  0.00    +0.000 A 
ATOM     16  C   UNL     1      46.052   4.924  12.722  0.00  0.00    +0.000 A 
ATOM     17  C   UNL     1      46.860   5.989  13.138  0.00  0.00    +0.000 A 
ATOM     18  C   UNL     1      46.502   7.300  12.828  0.00  0.00    +0.000 A 
ATOM     19  C   UNL     1      45.339   7.543  12.106  0.00  0.00    +0.000 A 
ATOM     20 CL   UNL     1      44.900   9.157  11.701  0.00  0.00    +0.000 Cl
ATOM     21  C   UNL     1      44.523   6.487  11.703  0.00  0.00    +0.000 A 
ENDBRANCH  14  15
ENDBRANCH  12  14
ENDBRANCH   1  12
TORSDOF 4
ENDMDL
MODEL 3
REMARK VINA RESULT:    -7.192      3.743      6.140
REMARK INTER + INTRA:          -9.391
REMARK INTER:                  -8.934
REMARK INTRA:                  -0.457
REMARK UNBOUND:                -0.518
REMARK  Name = 
REMARK  5 active torsions:
REMARK  status: ('A' for Active; 'I' for Inactive)
REMARK    1  A    between atoms: C_1  and  C_2
REMARK    2  A    between atoms: C_2  and  O_3
REMARK    3  A    between atoms: C_2  and  C_13
REMARK    4  A    between atoms: O_3  and  C_4
REMARK    5  A    between atoms: C_7  and  C_8
REMARK                            x       y       z     vdW  Elec       q    Type
REMARK                         _______ _______ _______ _____ _____    ______ ____
ROOT
ATOM      1  C   UNL     1      45.311   5.419  11.720  0.00  0.00    +0.000 A 
ATOM      2  C   UNL     1      45.615   4.758  12.910  0.00  0.00    +0.000 A 
ATOM      3  C   UNL     1      46.650   5.227  13.717  0.00  0.00    +0.000 A 
ATOM      4  C   UNL     1      47.362   6.342  13.297  0.00  0.00    +0.000 A 
ATOM      5  N   UNL     1      47.112   7.008  12.134  0.00  0.00    +0.000 NA
ATOM      6  C   UNL     1      46.093   6.521  11.377  0.00  0.00    +0.000 A 
ENDROOT
BRANCH   4   7
ATOM      7  C   UNL     1      48.480   6.858  14.150  0.00  0.00    +0.000 C 
ATOM      8  N   UNL     1      48.124   7.281  15.403  0.00  0.00    +0.000 N 
ATOM      9  O   UNL     1      49.643   6.902  13.763  0.00  0.00    +0.000 OA
ATOM     10  H   UNL     1      47.153   7.239  15.691  0.00  0.00    +0.000 HD
ATOM     11  H   UNL     1      48.831   7.648  16.025  0.00  0.00    +0.000 HD
ENDBRANCH   4   7
BRANCH   1  12
ATOM     12  O   UNL     1      44.329   5.030  10.841  0.00  0.00    +0.000 OA
BRANCH  12  14
ATOM     13  C   UNL     1      43.464   2.726  11.144  0.00  0.00    +0.000 C 
ATOM     14  C   UNL     1      44.327   3.708  10.427  0.00  0.00    +0.000 C 
BRANCH  14  15
ATOM     15  C   UNL     1      45.163   3.336   9.284  0.00  0.00    +0.000 A 
ATOM     16  C   UNL     1      45.665   4.303   8.401  0.00  0.00    +0.000 A 
ATOM     17  C   UNL     1      46.445   3.925   7.303  0.00  0.00    +0.000 A 
ATOM     18  C   UNL     1      46.746   2.581   7.088  0.00  0.00    +0.000 A 
ATOM     19  C   UNL     1      46.266   1.619   7.970  0.00  0.00    +0.000 A 
ATOM     20 CL   UNL     1      46.650  -0.040   7.726  0.00  0.00    +0.000 Cl
ATOM     21  C   UNL     1      45.476   1.989   9.058  0.00  0.00    +0.000 A 
ENDBRANCH  14  15
ENDBRANCH  12  14
ENDBRANCH   1  12
TORSDOF 4
ENDMDL
MODEL 4
REMARK VINA RESULT:    -6.794      3.790      6.229
REMARK INTER + INTRA:          -8.901
REMARK INTER:                  -8.740
REMARK INTRA:                  -0.161
REMARK UNBOUND:                -0.518
REMARK  Name = 
REMARK  5 active torsions:
REMARK  status: ('A' for Active; 'I' for Inactive)
REMARK    1  A    between atoms: C_1  and  C_2
REMARK    2  A    between atoms: C_2  and  O_3
REMARK    3  A    between atoms: C_2  and  C_13
REMARK    4  A    between atoms: O_3  and  C_4
REMARK    5  A    between atoms: C_7  and  C_8
REMARK                            x       y       z     vdW  Elec       q    Type
REMARK                         _______ _______ _______ _____ _____    ______ ____
ROOT
ATOM      1  C   UNL     1      46.170   5.656  12.333  0.00  0.00    +0.000 A 
ATOM      2  C   UNL     1      47.218   6.351  12.937  0.00  0.00    +0.000 A 
ATOM      3  C   UNL     1      47.734   5.904  14.152  0.00  0.00    +0.000 A 
ATOM      4  C   UNL     1      47.172   4.777  14.734  0.00  0.00    +0.000 A 
ATOM      5  N   UNL     1      46.135   4.078  14.188  0.00  0.00    +0.000 NA
ATOM      6  C   UNL     1      45.662   4.545  13.002  0.00  0.00    +0.000 A 
ENDROOT
BRANCH   4   7
ATOM      7  C   UNL     1      47.711   4.283  16.042  0.00  0.00    +0.000 C 
ATOM      8  N   UNL     1      46.848   3.532  16.794  0.00  0.00    +0.000 N 
ATOM      9  O   UNL     1      48.851   4.528  16.423  0.00  0.00    +0.000 OA
ATOM     10  H   UNL     1      45.910   3.353  16.455  0.00  0.00    +0.000 HD
ATOM     11  H   UNL     1      47.149   3.176  17.691  0.00  0.00    +0.000 HD
ENDBRANCH   4   7
BRANCH   1  12
ATOM     12  O   UNL     1      45.573   6.022  11.150  0.00  0.00    +0.000 OA
BRANCH  12  14
ATOM     13  C   UNL     1      43.150   5.500  11.084  0.00  0.00    +0.000 C 
ATOM     14  C   UNL     1      44.554   5.217  10.670  0.00  0.00    +0.000 C 
BRANCH  14  15
ATOM     15  C   UNL     1      44.901   4.127   9.756  0.00  0.00    +0.000 A 
ATOM     16  C   UNL     1      44.511   2.806  10.013  0.00  0.00    +0.000 A 
ATOM     17  C   UNL     1      44.870   1.775   9.138  0.00  0.00    +0.000 A 
ATOM     18  C   UNL     1      45.606   2.059   7.988  0.00  0.00    +0.000 A 
ATOM     19  C   UNL     1      45.981   3.371   7.719  0.00  0.00    +0.000 A 
ATOM     20 CL   UNL     1      46.871   3.734   6.292  0.00  0.00    +0.000 Cl
ATOM     21  C   UNL     1      45.638   4.399   8.595  0.00  0.00    +0.000 A 
ENDBRANCH  14  15
ENDBRANCH  12  14
ENDBRANCH   1  12
TORSDOF 4
ENDMDL
MODEL 5
REMARK VINA RESULT:    -6.225      4.449      6.838
REMARK INTER + INTRA:          -8.199
REMARK INTER:                  -7.609
REMARK INTRA:                  -0.590
REMARK UNBOUND:                -0.518
REMARK  Name = 
REMARK  5 active torsions:
REMARK  status: ('A' for Active; 'I' for Inactive)
REMARK    1  A    between atoms: C_1  and  C_2
REMARK    2  A    between atoms: C_2  and  O_3
REMARK    3  A    between atoms: C_2  and  C_13
REMARK    4  A    between atoms: O_3  and  C_4
REMARK    5  A    between atoms: C_7  and  C_8
REMARK                            x       y       z     vdW  Elec       q    Type
REMARK                         _______ _______ _______ _____ _____    ______ ____
ROOT
ATOM      1  C   UNL     1      47.177   6.286  12.558  0.00  0.00    +0.000 A 
ATOM      2  C   UNL     1      46.850   5.152  13.301  0.00  0.00    +0.000 A 
ATOM      3  C   UNL     1      47.357   5.000  14.591  0.00  0.00    +0.000 A 
ATOM      4  C   UNL     1      48.191   5.989  15.094  0.00  0.00    +0.000 A 
ATOM      5  N   UNL     1      48.550   7.105  14.397  0.00  0.00    +0.000 NA
ATOM      6  C   UNL     1      48.033   7.216  13.144  0.00  0.00    +0.000 A 
ENDROOT
BRANCH   4   7
ATOM      7  C   UNL     1      48.747   5.842  16.477  0.00  0.00    +0.000 C 
ATOM      8  N   UNL     1      48.166   6.628  17.436  0.00  0.00    +0.000 N 
ATOM      9  O   UNL     1      49.661   5.070  16.745  0.00  0.00    +0.000 OA
ATOM     10  H   UNL     1      47.417   7.261  17.183  0.00  0.00    +0.000 HD
ATOM     11  H   UNL     1      48.501   6.581  18.389  0.00  0.00    +0.000 HD
ENDBRANCH   4   7
BRANCH   1  12
ATOM     12  O   UNL     1      46.753   6.524  11.273  0.00  0.00    +0.000 OA
BRANCH  12  14
ATOM     13  C   UNL     1      44.350   7.124  11.382  0.00  0.00    +0.000 C 
ATOM     14  C   UNL     1      45.443   6.203  10.960  0.00  0.00    +0.000 C 
BRANCH  14  15
ATOM     15  C   UNL     1      45.190   4.974  10.205  0.00  0.00    +0.000 A 
ATOM     16  C   UNL     1      44.376   3.955  10.719  0.00  0.00    +0.000 A 
ATOM     17  C   UNL     1      44.163   2.780   9.991  0.00  0.00    +0.000 A 
ATOM     18  C   UNL     1      44.746   2.620   8.734  0.00  0.00    +0.000 A 
ATOM     19  C   UNL     1      45.540   3.635   8.211  0.00  0.00    +0.000 A 
ATOM     20 CL   UNL     1      46.246   3.457   6.652  0.00  0.00    +0.000 Cl
ATOM     21  C   UNL     1      45.767   4.802   8.939  0.00  0.00    +0.000 A 
ENDBRANCH  14  15
ENDBRANCH  12  14
ENDBRANCH   1  12
TORSDOF 4
ENDMDL
MODEL 6
REMARK VINA RESULT:    -6.031      4.263      6.692
REMARK INTER + INTRA:          -7.959
REMARK INTER:                  -7.609
REMARK INTRA:                  -0.350
REMARK UNBOUND:                -0.518
REMARK  Name = 
REMARK  5 active torsions:
REMARK  status: ('A' for Active; 'I' for Inactive)
REMARK    1  A    between atoms: C_1  and  C_2
REMARK    2  A    between atoms: C_2  and  O_3
REMARK    3  A    between atoms: C_2  and  C_13
REMARK    4  A    between atoms: O_3  and  C_4
REMARK    5  A    between atoms: C_7  and  C_8
REMARK                            x       y       z     vdW  Elec       q    Type
REMARK                         _______ _______ _______ _____ _____    ______ ____
ROOT
ATOM      1  C   UNL     1      47.582   5.800  13.963  0.00  0.00    +0.000 A 
ATOM      2  C   UNL     1      48.109   6.235  15.179  0.00  0.00    +0.000 A 
ATOM      3  C   UNL     1      48.170   5.357  16.259  0.00  0.00    +0.000 A 
ATOM      4  C   UNL     1      47.685   4.067  16.091  0.00  0.00    +0.000 A 
ATOM      5  N   UNL     1      47.146   3.605  14.927  0.00  0.00    +0.000 NA
ATOM      6  C   UNL     1      47.107   4.492  13.896  0.00  0.00    +0.000 A 
ENDROOT
BRANCH   4   7
ATOM      7  C   UNL     1      47.740   3.110  17.243  0.00  0.00    +0.000 C 
ATOM      8  N   UNL     1      48.984   2.882  17.766  0.00  0.00    +0.000 N 
ATOM      9  O   UNL     1      46.741   2.562  17.696  0.00  0.00    +0.000 OA
ATOM     10  H   UNL     1      49.792   3.345  17.365  0.00  0.00    +0.000 HD
ATOM     11  H   UNL     1      49.089   2.241  18.541  0.00  0.00    +0.000 HD
ENDBRANCH   4   7
BRANCH   1  12
ATOM     12  O   UNL     1      47.454   6.587  12.843  0.00  0.00    +0.000 OA
BRANCH  12  14
ATOM     13  C   UNL     1      45.881   8.503  12.904  0.00  0.00    +0.000 C 
ATOM     14  C   UNL     1      46.197   7.089  12.553  0.00  0.00    +0.000 C 
BRANCH  14  15
ATOM     15  C   UNL     1      45.232   6.207  11.892  0.00  0.00    +0.000 A 
ATOM     16  C   UNL     1      43.986   5.925  12.468  0.00  0.00    +0.000 A 
ATOM     17  C   UNL     1      43.087   5.063  11.830  0.00  0.00    +0.000 A 
ATOM     18  C   UNL     1      43.417   4.493  10.602  0.00  0.00    +0.000 A 
ATOM     19  C   UNL     1      44.645   4.783  10.016  0.00  0.00    +0.000 A 
ATOM     20 CL   UNL     1      45.052   4.101   8.491  0.00  0.00    +0.000 Cl
ATOM     21  C   UNL     1      45.550   5.629  10.655  0.00  0.00    +0.000 A 
ENDBRANCH  14  15
ENDBRANCH  12  14
ENDBRANCH   1  12
TORSDOF 4
ENDMDL
MODEL 7
REMARK VINA RESULT:    -5.911      4.419      6.814
REMARK INTER + INTRA:          -7.811
REMARK INTER:                  -7.454
REMARK INTRA:                  -0.358
REMARK UNBOUND:                -0.518
REMARK  Name = 
REMARK  5 active torsions:
REMARK  status: ('A' for Active; 'I' for Inactive)
REMARK    1  A    between atoms: C_1  and  C_2
REMARK    2  A    between atoms: C_2  and  O_3
REMARK    3  A    between atoms: C_2  and  C_13
REMARK    4  A    between atoms: O_3  and  C_4
REMARK    5  A    between atoms: C_7  and  C_8
REMARK                            x       y       z     vdW  Elec       q    Type
REMARK                         _______ _______ _______ _____ _____    ______ ____
ROOT
ATOM      1  C   UNL     1      47.531   5.916  13.472  0.00  0.00    +0.000 A 
ATOM      2  C   UNL     1      46.917   4.773  13.984  0.00  0.00    +0.000 A 
ATOM      3  C   UNL     1      47.158   4.389  15.302  0.00  0.00    +0.000 A 
ATOM      4  C   UNL     1      48.024   5.159  16.066  0.00  0.00    +0.000 A 
ATOM      5  N   UNL     1      48.660   6.272  15.602  0.00  0.00    +0.000 NA
ATOM      6  C   UNL     1      48.396   6.614  14.312  0.00  0.00    +0.000 A 
ENDROOT
BRANCH   4   7
ATOM      7  C   UNL     1      48.299   4.759  17.484  0.00  0.00    +0.000 C 
ATOM      8  N   UNL     1      47.266   4.139  18.135  0.00  0.00    +0.000 N 
ATOM      9  O   UNL     1      49.374   4.968  18.035  0.00  0.00    +0.000 OA
ATOM     10  H   UNL     1      46.387   3.987  17.656  0.00  0.00    +0.000 HD
ATOM     11  H   UNL     1      47.386   3.851  19.097  0.00  0.00    +0.000 HD
ENDBRANCH   4   7
BRANCH   1  12
ATOM     12  O   UNL     1      47.381   6.370  12.184  0.00  0.00    +0.000 OA
BRANCH  12  14
ATOM     13  C   UNL     1      45.355   7.786  11.997  0.00  0.00    +0.000 C 
ATOM     14  C   UNL     1      46.092   6.524  11.704  0.00  0.00    +0.000 C 
BRANCH  14  15
ATOM     15  C   UNL     1      45.513   5.439  10.908  0.00  0.00    +0.000 A 
ATOM     16  C   UNL     1      45.752   5.336   9.531  0.00  0.00    +0.000 A 
ATOM     17  C   UNL     1      45.173   4.304   8.784  0.00  0.00    +0.000 A 
ATOM     18  C   UNL     1      44.366   3.355   9.411  0.00  0.00    +0.000 A 
ATOM     19  C   UNL     1      44.140   3.442  10.780  0.00  0.00    +0.000 A 
ATOM     20 CL   UNL     1      43.163   2.264  11.566  0.00  0.00    +0.000 Cl
ATOM     21  C   UNL     1      44.702   4.477  11.526  0.00  0.00    +0.000 A 
ENDBRANCH  14  15
ENDBRANCH  12  14
ENDBRANCH   1  12
TORSDOF 4
ENDMDL
MODEL 8
REMARK VINA RESULT:    -5.872      3.302      4.937
REMARK INTER + INTRA:          -7.762
REMARK INTER:                  -7.291
REMARK INTRA:                  -0.472
REMARK UNBOUND:                -0.518
REMARK  Name = 
REMARK  5 active torsions:
REMARK  status: ('A' for Active; 'I' for Inactive)
REMARK    1  A    between atoms: C_1  and  C_2
REMARK    2  A    between atoms: C_2  and  O_3
REMARK    3  A    between atoms: C_2  and  C_13
REMARK    4  A    between atoms: O_3  and  C_4
REMARK    5  A    between atoms: C_7  and  C_8
REMARK                            x       y       z     vdW  Elec       q    Type
REMARK                         _______ _______ _______ _____ _____    ______ ____
ROOT
ATOM      1  C   UNL     1      46.227   5.930  12.585  0.00  0.00    +0.000 A 
ATOM      2  C   UNL     1      45.872   5.948  11.237  0.00  0.00    +0.000 A 
ATOM      3  C   UNL     1      45.123   4.901  10.705  0.00  0.00    +0.000 A 
ATOM      4  C   UNL     1      44.763   3.854  11.543  0.00  0.00    +0.000 A 
ATOM      5  N   UNL     1      45.103   3.787  12.862  0.00  0.00    +0.000 NA
ATOM      6  C   UNL     1      45.832   4.830  13.342  0.00  0.00    +0.000 A 
ENDROOT
BRANCH   4   7
ATOM      7  C   UNL     1      43.960   2.717  10.988  0.00  0.00    +0.000 C 
ATOM      8  N   UNL     1      44.476   2.118   9.870  0.00  0.00    +0.000 N 
ATOM      9  O   UNL     1      42.910   2.338  11.495  0.00  0.00    +0.000 OA
ATOM     10  H   UNL     1      45.342   2.458   9.470  0.00  0.00    +0.000 HD
ATOM     11  H   UNL     1      43.977   1.349   9.442  0.00  0.00    +0.000 HD
ENDBRANCH   4   7
BRANCH   1  12
ATOM     12  O   UNL     1      46.982   6.898  13.205  0.00  0.00    +0.000 OA
BRANCH  12  14
ATOM     13  C   UNL     1      45.544   8.891  12.874  0.00  0.00    +0.000 C 
ATOM     14  C   UNL     1      46.858   8.199  12.747  0.00  0.00    +0.000 C 
BRANCH  14  15
ATOM     15  C   UNL     1      48.038   8.848  12.172  0.00  0.00    +0.000 A 
ATOM     16  C   UNL     1      48.040  10.214  11.856  0.00  0.00    +0.000 A 
ATOM     17  C   UNL     1      49.171  10.811  11.289  0.00  0.00    +0.000 A 
ATOM     18  C   UNL     1      50.316  10.053  11.051  0.00  0.00    +0.000 A 
ATOM     19  C   UNL     1      50.327   8.702  11.379  0.00  0.00    +0.000 A 
ATOM     20 CL   UNL     1      51.744   7.763  11.109  0.00  0.00    +0.000 Cl
ATOM     21  C   UNL     1      49.198   8.099  11.930  0.00  0.00    +0.000 A 
ENDBRANCH  14  15
ENDBRANCH  12  14
ENDBRANCH   1  12
TORSDOF 4
ENDMDL
MODEL 9
REMARK VINA RESULT:    -5.685      2.673      3.915
REMARK INTER + INTRA:          -7.532
REMARK INTER:                  -6.925
REMARK INTRA:                  -0.607
REMARK UNBOUND:                -0.518
REMARK  Name = 
REMARK  5 active torsions:
REMARK  status: ('A' for Active; 'I' for Inactive)
REMARK    1  A    between atoms: C_1  and  C_2
REMARK    2  A    between atoms: C_2  and  O_3
REMARK    3  A    between atoms: C_2  and  C_13
REMARK    4  A    between atoms: O_3  and  C_4
REMARK    5  A    between atoms: C_7  and  C_8
REMARK                            x       y       z     vdW  Elec       q    Type
REMARK                         _______ _______ _______ _____ _____    ______ ____
ROOT
ATOM      1  C   UNL     1      45.366   5.274  12.115  0.00  0.00    +0.000 A 
ATOM      2  C   UNL     1      45.441   5.770  10.814  0.00  0.00    +0.000 A 
ATOM      3  C   UNL     1      45.192   4.924   9.736  0.00  0.00    +0.000 A 
ATOM      4  C   UNL     1      44.887   3.594   9.995  0.00  0.00    +0.000 A 
ATOM      5  N   UNL     1      44.821   3.063  11.250  0.00  0.00    +0.000 NA
ATOM      6  C   UNL     1      45.068   3.922  12.274  0.00  0.00    +0.000 A 
ENDROOT
BRANCH   4   7
ATOM      7  C   UNL     1      44.620   2.668   8.848  0.00  0.00    +0.000 C 
ATOM      8  N   UNL     1      44.451   3.268   7.629  0.00  0.00    +0.000 N 
ATOM      9  O   UNL     1      44.556   1.451   8.981  0.00  0.00    +0.000 OA
ATOM     10  H   UNL     1      44.502   4.277   7.553  0.00  0.00    +0.000 HD
ATOM     11  H   UNL     1      44.260   2.699   6.816  0.00  0.00    +0.000 HD
ENDBRANCH   4   7
BRANCH   1  12
ATOM     12  O   UNL     1      45.614   6.014  13.247  0.00  0.00    +0.000 OA
BRANCH  12  14
ATOM     13  C   UNL     1      47.583   5.390  14.619  0.00  0.00    +0.000 C 
ATOM     14  C   UNL     1      46.937   6.246  13.583  0.00  0.00    +0.000 C 
BRANCH  14  15
ATOM     15  C   UNL     1      47.654   7.316  12.887  0.00  0.00    +0.000 A 
ATOM     16  C   UNL     1      47.130   8.614  12.806  0.00  0.00    +0.000 A 
ATOM     17  C   UNL     1      47.821   9.618  12.119  0.00  0.00    +0.000 A 
ATOM     18  C   UNL     1      49.050   9.339  11.523  0.00  0.00    +0.000 A 
ATOM     19  C   UNL     1      49.584   8.058  11.616  0.00  0.00    +0.000 A 
ATOM     20 CL   UNL     1      51.110   7.709  10.903  0.00  0.00    +0.000 Cl
ATOM     21  C   UNL     1      48.893   7.050  12.287  0.00  0.00    +0.000 A 
ENDBRANCH  14  15
ENDBRANCH  12  14
ENDBRANCH   1  12
TORSDOF 4
ENDMDL
