MODEL 1
REMARK VINA RESULT:    -7.595      0.000      0.000
REMARK INTER + INTRA:         -10.776
REMARK INTER:                  -9.815
REMARK INTRA:                  -0.961
REMARK UNBOUND:                -0.961
REMARK  Name = 
REMARK  5 active torsions:
REMARK  status: ('A' for Active; 'I' for Inactive)
REMARK    1  A    between atoms: C_2  and  C_5
REMARK    2  A    between atoms: C_7  and  N_8
REMARK    3  A    between atoms: N_8  and  C_9
REMARK    4  A    between atoms: C_9  and  C_10
REMARK    5  A    between atoms: C_17  and  C_18
REMARK                            x       y       z     vdW  Elec       q    Type
REMARK                         _______ _______ _______ _____ _____    ______ ____
ROOT
ATOM      1  C   UNL     1      46.616   4.523  13.975  0.00  0.00    +0.000 A 
ATOM      2  C   UNL     1      46.019   3.540  13.174  0.00  0.00    +0.000 A 
ATOM      3  C   UNL     1      45.314   3.883  12.020  0.00  0.00    +0.000 A 
ATOM      4  C   UNL     1      45.305   5.226  11.622  0.00  0.00    +0.000 A 
ATOM      5  C   UNL     1      45.864   6.252  12.408  0.00  0.00    +0.000 A 
ATOM      6  C   UNL     1      46.534   5.870  13.579  0.00  0.00    +0.000 A 
ENDROOT
BRANCH   5   7
ATOM      7  C   UNL     1      45.669   7.675  12.049  0.00  0.00    +0.000 A 
ATOM      8  C   UNL     1      44.508   8.091  11.378  0.00  0.00    +0.000 A 
ATOM      9  C   UNL     1      44.324   9.437  11.094  0.00  0.00    +0.000 A 
ATOM     10  N   UNL     1      45.201  10.397  11.433  0.00  0.00    +0.000 NA
ATOM     11  C   UNL     1      46.314   9.993  12.081  0.00  0.00    +0.000 A 
ATOM     12  C   UNL     1      46.589   8.671  12.397  0.00  0.00    +0.000 A 
ENDBRANCH   5   7
BRANCH   1  14
ATOM     13  F   UNL     1      48.290   5.020  15.632  0.00  0.00    +0.000 F 
ATOM     14  C   UNL     1      47.282   4.174  15.282  0.00  0.00    +0.000 C 
ATOM     15  F   UNL     1      47.832   2.927  15.261  0.00  0.00    +0.000 F 
ATOM     16  F   UNL     1      46.409   4.176  16.328  0.00  0.00    +0.000 F 
ENDBRANCH   1  14
BRANCH   3  17
ATOM     17  N   UNL     1      44.687   2.859  11.291  0.00  0.00    +0.000 N 
ATOM     18  H   UNL     1      45.298   2.043  11.236  0.00  0.00    +0.000 HD
BRANCH  17  19
ATOM     19  C   UNL     1      44.172   3.219   9.968  0.00  0.00    +0.000 C 
BRANCH  19  20
ATOM     20  C   UNL     1      45.178   2.931   8.878  0.00  0.00    +0.000 A 
ATOM     21  C   UNL     1      45.720   3.943   8.081  0.00  0.00    +0.000 A 
ATOM     22  C   UNL     1      46.688   3.613   7.147  0.00  0.00    +0.000 A 
ATOM     23  N   UNL     1      47.164   2.362   6.967  0.00  0.00    +0.000 NA
ATOM     24  C   UNL     1      46.652   1.401   7.763  0.00  0.00    +0.000 A 
ATOM     25  C   UNL     1      45.678   1.632   8.721  0.00  0.00    +0.000 A 
ENDBRANCH  19  20
ENDBRANCH  17  19
ENDBRANCH   3  17
TORSDOF 5
ENDMDL
MODEL 2
REMARK VINA RESULT:    -7.298      1.106      1.549
REMARK INTER + INTRA:         -10.392
REMARK INTER:                  -9.419
REMARK INTRA:                  -0.973
REMARK UNBOUND:                -0.961
REMARK  Name = 
REMARK  5 active torsions:
REMARK  status: ('A' for Active; 'I' for Inactive)
REMARK    1  A    between atoms: C_2  and  C_5
REMARK    2  A    between atoms: C_7  and  N_8
REMARK    3  A    between atoms: N_8  and  C_9
REMARK    4  A    between atoms: C_9  and  C_10
REMARK    5  A    between atoms: C_17  and  C_18
REMARK                            x       y       z     vdW  Elec       q    Type
REMARK                         _______ _______ _______ _____ _____    ______ ____
ROOT
ATOM      1  C   UNL     1      46.890   4.722  14.077  0.00  0.00    +0.000 A 
ATOM      2  C   UNL     1      45.974   4.048  13.257  0.00  0.00    +0.000 A 
ATOM      3  C   UNL     1      45.485   4.635  12.090  0.00  0.00    +0.000 A 
ATOM      4  C   UNL     1      46.009   5.874  11.700  0.00  0.00    +0.000 A 
ATOM      5  C   UNL     1      46.908   6.603  12.504  0.00  0.00    +0.000 A 
ATOM      6  C   UNL     1      47.350   5.993  13.687  0.00  0.00    +0.000 A 
ENDROOT
BRANCH   5   7
ATOM      7  C   UNL     1      47.292   7.988  12.149  0.00  0.00    +0.000 A 
ATOM      8  C   UNL     1      46.356   9.032  12.227  0.00  0.00    +0.000 A 
ATOM      9  C   UNL     1      46.751  10.331  11.935  0.00  0.00    +0.000 A 
ATOM     10  N   UNL     1      48.002  10.668  11.582  0.00  0.00    +0.000 NA
ATOM     11  C   UNL     1      48.899   9.662  11.512  0.00  0.00    +0.000 A 
ATOM     12  C   UNL     1      48.595   8.334  11.774  0.00  0.00    +0.000 A 
ENDBRANCH   5   7
BRANCH   1  14
ATOM     13  F   UNL     1      46.362   4.114  16.345  0.00  0.00    +0.000 F 
ATOM     14  C   UNL     1      47.338   4.145  15.395  0.00  0.00    +0.000 C 
ATOM     15  F   UNL     1      48.368   4.849  15.942  0.00  0.00    +0.000 F 
ATOM     16  F   UNL     1      47.787   2.864  15.277  0.00  0.00    +0.000 F 
ENDBRANCH   1  14
BRANCH   3  17
ATOM     17  N   UNL     1      44.524   3.936  11.342  0.00  0.00    +0.000 N 
ATOM     18  H   UNL     1      44.714   2.933  11.378  0.00  0.00    +0.000 HD
BRANCH  17  19
ATOM     19  C   UNL     1      44.319   4.380   9.961  0.00  0.00    +0.000 C 
BRANCH  19  20
ATOM     20  C   UNL     1      45.148   3.579   8.985  0.00  0.00    +0.000 A 
ATOM     21  C   UNL     1      45.930   4.187   7.999  0.00  0.00    +0.000 A 
ATOM     22  C   UNL     1      46.717   3.391   7.184  0.00  0.00    +0.000 A 
ATOM     23  N   UNL     1      46.795   2.047   7.294  0.00  0.00    +0.000 NA
ATOM     24  C   UNL     1      46.057   1.478   8.268  0.00  0.00    +0.000 A 
ATOM     25  C   UNL     1      45.236   2.188   9.129  0.00  0.00    +0.000 A 
ENDBRANCH  19  20
ENDBRANCH  17  19
ENDBRANCH   3  17
TORSDOF 5
ENDMDL
MODEL 3
REMARK VINA RESULT:    -7.273      2.734      4.654
REMARK INTER + INTRA:         -10.359
REMARK INTER:                  -9.444
REMARK INTRA:                  -0.915
REMARK UNBOUND:                -0.961
REMARK  Name = 
REMARK  5 active torsions:
REMARK  status: ('A' for Active; 'I' for Inactive)
REMARK    1  A    between atoms: C_2  and  C_5
REMARK    2  A    between atoms: C_7  and  N_8
REMARK    3  A    between atoms: N_8  and  C_9
REMARK    4  A    between atoms: C_9  and  C_10
REMARK    5  A    between atoms: C_17  and  C_18
REMARK                            x       y       z     vdW  Elec       q    Type
REMARK                         _______ _______ _______ _____ _____    ______ ____
ROOT
ATOM      1  C   UNL     1      45.785   6.318  12.553  0.00  0.00    +0.000 A 
ATOM      2  C   UNL     1      45.267   5.241  11.821  0.00  0.00    +0.000 A 
ATOM      3  C   UNL     1      45.477   3.924  12.233  0.00  0.00    +0.000 A 
ATOM      4  C   UNL     1      46.130   3.706  13.453  0.00  0.00    +0.000 A 
ATOM      5  C   UNL     1      46.693   4.754  14.208  0.00  0.00    +0.000 A 
ATOM      6  C   UNL     1      46.490   6.061  13.743  0.00  0.00    +0.000 A 
ENDROOT
BRANCH   5   7
ATOM      7  C   UNL     1      47.537   4.469  15.390  0.00  0.00    +0.000 A 
ATOM      8  C   UNL     1      47.683   3.155  15.866  0.00  0.00    +0.000 A 
ATOM      9  C   UNL     1      48.517   2.906  16.947  0.00  0.00    +0.000 A 
ATOM     10  N   UNL     1      49.219   3.858  17.582  0.00  0.00    +0.000 NA
ATOM     11  C   UNL     1      49.079   5.118  17.120  0.00  0.00    +0.000 A 
ATOM     12  C   UNL     1      48.261   5.465  16.055  0.00  0.00    +0.000 A 
ENDBRANCH   5   7
BRANCH   1  14
ATOM     13  F   UNL     1      44.822   7.878  10.993  0.00  0.00    +0.000 F 
ATOM     14  C   UNL     1      45.660   7.737  12.057  0.00  0.00    +0.000 C 
ATOM     15  F   UNL     1      46.858   8.249  11.658  0.00  0.00    +0.000 F 
ATOM     16  F   UNL     1      45.196   8.585  13.016  0.00  0.00    +0.000 F 
ENDBRANCH   1  14
BRANCH   3  17
ATOM     17  N   UNL     1      44.985   2.885  11.427  0.00  0.00    +0.000 N 
ATOM     18  H   UNL     1      45.718   2.193  11.262  0.00  0.00    +0.000 HD
BRANCH  17  19
ATOM     19  C   UNL     1      44.344   3.279  10.170  0.00  0.00    +0.000 C 
BRANCH  19  20
ATOM     20  C   UNL     1      45.238   3.024   8.980  0.00  0.00    +0.000 A 
ATOM     21  C   UNL     1      45.712   4.059   8.171  0.00  0.00    +0.000 A 
ATOM     22  C   UNL     1      46.583   3.755   7.137  0.00  0.00    +0.000 A 
ATOM     23  N   UNL     1      47.027   2.509   6.870  0.00  0.00    +0.000 NA
ATOM     24  C   UNL     1      46.583   1.524   7.677  0.00  0.00    +0.000 A 
ATOM     25  C   UNL     1      45.707   1.727   8.732  0.00  0.00    +0.000 A 
ENDBRANCH  19  20
ENDBRANCH  17  19
ENDBRANCH   3  17
TORSDOF 5
ENDMDL
MODEL 4
REMARK VINA RESULT:    -7.242      2.475      3.271
REMARK INTER + INTRA:         -10.320
REMARK INTER:                  -9.514
REMARK INTRA:                  -0.807
REMARK UNBOUND:                -0.961
REMARK  Name = 
REMARK  5 active torsions:
REMARK  status: ('A' for Active; 'I' for Inactive)
REMARK    1  A    between atoms: C_2  and  C_5
REMARK    2  A    between atoms: C_7  and  N_8
REMARK    3  A    between atoms: N_8  and  C_9
REMARK    4  A    between atoms: C_9  and  C_10
REMARK    5  A    between atoms: C_17  and  C_18
REMARK                            x       y       z     vdW  Elec       q    Type
REMARK                         _______ _______ _______ _____ _____    ______ ____
ROOT
ATOM      1  C   UNL     1      44.487   4.947  12.124  0.00  0.00    +0.000 A 
ATOM      2  C   UNL     1      44.659   4.740  10.748  0.00  0.00    +0.000 A 
ATOM      3  C   UNL     1      45.633   5.438  10.033  0.00  0.00    +0.000 A 
ATOM      4  C   UNL     1      46.505   6.276  10.741  0.00  0.00    +0.000 A 
ATOM      5  C   UNL     1      46.353   6.538  12.116  0.00  0.00    +0.000 A 
ATOM      6  C   UNL     1      45.340   5.843  12.793  0.00  0.00    +0.000 A 
ENDROOT
BRANCH   5   7
ATOM      7  C   UNL     1      47.174   7.571  12.787  0.00  0.00    +0.000 A 
ATOM      8  C   UNL     1      47.226   8.881  12.285  0.00  0.00    +0.000 A 
ATOM      9  C   UNL     1      47.964   9.845  12.958  0.00  0.00    +0.000 A 
ATOM     10  N   UNL     1      48.644   9.606  14.092  0.00  0.00    +0.000 NA
ATOM     11  C   UNL     1      48.588   8.347  14.573  0.00  0.00    +0.000 A 
ATOM     12  C   UNL     1      47.887   7.316  13.964  0.00  0.00    +0.000 A 
ENDBRANCH   5   7
BRANCH   1  14
ATOM     13  F   UNL     1      43.678   3.979  14.174  0.00  0.00    +0.000 F 
ATOM     14  C   UNL     1      43.366   4.283  12.883  0.00  0.00    +0.000 C 
ATOM     15  F   UNL     1      42.979   3.110  12.307  0.00  0.00    +0.000 F 
ATOM     16  F   UNL     1      42.246   5.056  12.939  0.00  0.00    +0.000 F 
ENDBRANCH   1  14
BRANCH   3  17
ATOM     17  N   UNL     1      45.718   5.234   8.646  0.00  0.00    +0.000 N 
ATOM     18  H   UNL     1      45.395   6.064   8.149  0.00  0.00    +0.000 HD
BRANCH  17  19
ATOM     19  C   UNL     1      45.077   4.026   8.122  0.00  0.00    +0.000 C 
BRANCH  19  20
ATOM     20  C   UNL     1      46.085   3.060   7.546  0.00  0.00    +0.000 A 
ATOM     21  C   UNL     1      46.269   1.777   8.070  0.00  0.00    +0.000 A 
ATOM     22  C   UNL     1      47.164   0.923   7.448  0.00  0.00    +0.000 A 
ATOM     23  N   UNL     1      47.864   1.244   6.339  0.00  0.00    +0.000 NA
ATOM     24  C   UNL     1      47.655   2.475   5.829  0.00  0.00    +0.000 A 
ATOM     25  C   UNL     1      46.786   3.402   6.382  0.00  0.00    +0.000 A 
ENDBRANCH  19  20
ENDBRANCH  17  19
ENDBRANCH   3  17
TORSDOF 5
ENDMDL
MODEL 5
REMARK VINA RESULT:    -6.881      2.836      4.945
REMARK INTER + INTRA:          -9.853
REMARK INTER:                  -8.949
REMARK INTRA:                  -0.904
REMARK UNBOUND:                -0.961
REMARK  Name = 
REMARK  5 active torsions:
REMARK  status: ('A' for Active; 'I' for Inactive)
REMARK    1  A    between atoms: C_2  and  C_5
REMARK    2  A    between atoms: C_7  and  N_8
REMARK    3  A    between atoms: N_8  and  C_9
REMARK    4  A    between atoms: C_9  and  C_10
REMARK    5  A    between atoms: C_17  and  C_18
REMARK                            x       y       z     vdW  Elec       q    Type
REMARK                         _______ _______ _______ _____ _____    ______ ____
ROOT
ATOM      1  C   UNL     1      47.508   6.767  12.732  0.00  0.00    +0.000 A 
ATOM      2  C   UNL     1      46.448   6.120  12.082  0.00  0.00    +0.000 A 
ATOM      3  C   UNL     1      45.822   5.012  12.654  0.00  0.00    +0.000 A 
ATOM      4  C   UNL     1      46.209   4.622  13.942  0.00  0.00    +0.000 A 
ATOM      5  C   UNL     1      47.288   5.220  14.622  0.00  0.00    +0.000 A 
ATOM      6  C   UNL     1      47.914   6.310  13.999  0.00  0.00    +0.000 A 
ENDROOT
BRANCH   5   7
ATOM      7  C   UNL     1      47.788   4.658  15.897  0.00  0.00    +0.000 A 
ATOM      8  C   UNL     1      48.265   5.501  16.913  0.00  0.00    +0.000 A 
ATOM      9  C   UNL     1      48.684   4.955  18.118  0.00  0.00    +0.000 A 
ATOM     10  N   UNL     1      48.656   3.640  18.390  0.00  0.00    +0.000 NA
ATOM     11  C   UNL     1      48.193   2.833  17.412  0.00  0.00    +0.000 A 
ATOM     12  C   UNL     1      47.764   3.286  16.173  0.00  0.00    +0.000 A 
ENDBRANCH   5   7
BRANCH   1  14
ATOM     13  F   UNL     1      48.955   7.519  10.962  0.00  0.00    +0.000 F 
ATOM     14  C   UNL     1      48.264   7.893  12.073  0.00  0.00    +0.000 C 
ATOM     15  F   UNL     1      49.180   8.456  12.910  0.00  0.00    +0.000 F 
ATOM     16  F   UNL     1      47.446   8.910  11.682  0.00  0.00    +0.000 F 
ENDBRANCH   1  14
BRANCH   3  17
ATOM     17  N   UNL     1      44.805   4.370  11.928  0.00  0.00    +0.000 N 
ATOM     18  H   UNL     1      44.980   3.365  11.895  0.00  0.00    +0.000 HD
BRANCH  17  19
ATOM     19  C   UNL     1      44.523   4.897  10.591  0.00  0.00    +0.000 C 
BRANCH  19  20
ATOM     20  C   UNL     1      45.077   4.003   9.507  0.00  0.00    +0.000 A 
ATOM     21  C   UNL     1      45.777   4.511   8.410  0.00  0.00    +0.000 A 
ATOM     22  C   UNL     1      46.315   3.625   7.491  0.00  0.00    +0.000 A 
ATOM     23  N   UNL     1      46.224   2.283   7.598  0.00  0.00    +0.000 NA
ATOM     24  C   UNL     1      45.570   1.807   8.677  0.00  0.00    +0.000 A 
ATOM     25  C   UNL     1      44.993   2.612   9.647  0.00  0.00    +0.000 A 
ENDBRANCH  19  20
ENDBRANCH  17  19
ENDBRANCH   3  17
TORSDOF 5
ENDMDL
MODEL 6
REMARK VINA RESULT:    -6.788      2.595      6.553
REMARK INTER + INTRA:          -9.733
REMARK INTER:                  -8.756
REMARK INTRA:                  -0.977
REMARK UNBOUND:                -0.961
REMARK  Name = 
REMARK  5 active torsions:
REMARK  status: ('A' for Active; 'I' for Inactive)
REMARK    1  A    between atoms: C_2  and  C_5
REMARK    2  A    between atoms: C_7  and  N_8
REMARK    3  A    between atoms: N_8  and  C_9
REMARK    4  A    between atoms: C_9  and  C_10
REMARK    5  A    between atoms: C_17  and  C_18
REMARK                            x       y       z     vdW  Elec       q    Type
REMARK                         _______ _______ _______ _____ _____    ______ ____
ROOT
ATOM      1  C   UNL     1      44.266   3.667  11.076  0.00  0.00    +0.000 A 
ATOM      2  C   UNL     1      44.445   5.055  11.162  0.00  0.00    +0.000 A 
ATOM      3  C   UNL     1      45.173   5.747  10.194  0.00  0.00    +0.000 A 
ATOM      4  C   UNL     1      45.634   5.039   9.077  0.00  0.00    +0.000 A 
ATOM      5  C   UNL     1      45.505   3.641   8.960  0.00  0.00    +0.000 A 
ATOM      6  C   UNL     1      44.797   2.976   9.972  0.00  0.00    +0.000 A 
ENDROOT
BRANCH   5   7
ATOM      7  C   UNL     1      46.170   2.906   7.861  0.00  0.00    +0.000 A 
ATOM      8  C   UNL     1      46.537   3.567   6.678  0.00  0.00    +0.000 A 
ATOM      9  C   UNL     1      47.202   2.869   5.679  0.00  0.00    +0.000 A 
ATOM     10  N   UNL     1      47.534   1.570   5.773  0.00  0.00    +0.000 NA
ATOM     11  C   UNL     1      47.183   0.940   6.913  0.00  0.00    +0.000 A 
ATOM     12  C   UNL     1      46.507   1.551   7.959  0.00  0.00    +0.000 A 
ENDBRANCH   5   7
BRANCH   1  14
ATOM     13  F   UNL     1      42.689   1.967  11.723  0.00  0.00    +0.000 F 
ATOM     14  C   UNL     1      43.579   2.895  12.174  0.00  0.00    +0.000 C 
ATOM     15  F   UNL     1      42.877   3.708  13.013  0.00  0.00    +0.000 F 
ATOM     16  F   UNL     1      44.458   2.218  12.964  0.00  0.00    +0.000 F 
ENDBRANCH   1  14
BRANCH   3  17
ATOM     17  N   UNL     1      45.369   7.127  10.365  0.00  0.00    +0.000 N 
ATOM     18  H   UNL     1      46.203   7.428   9.859  0.00  0.00    +0.000 HD
BRANCH  17  19
ATOM     19  C   UNL     1      45.386   7.620  11.744  0.00  0.00    +0.000 C 
BRANCH  19  20
ATOM     20  C   UNL     1      46.705   7.337  12.424  0.00  0.00    +0.000 A 
ATOM     21  C   UNL     1      46.806   6.483  13.525  0.00  0.00    +0.000 A 
ATOM     22  C   UNL     1      48.059   6.218  14.053  0.00  0.00    +0.000 A 
ATOM     23  N   UNL     1      49.208   6.721  13.554  0.00  0.00    +0.000 NA
ATOM     24  C   UNL     1      49.097   7.521  12.474  0.00  0.00    +0.000 A 
ATOM     25  C   UNL     1      47.890   7.849  11.878  0.00  0.00    +0.000 A 
ENDBRANCH  19  20
ENDBRANCH  17  19
ENDBRANCH   3  17
TORSDOF 5
ENDMDL
MODEL 7
REMARK VINA RESULT:    -6.763      3.578      6.199
REMARK INTER + INTRA:          -9.701
REMARK INTER:                  -8.941
REMARK INTRA:                  -0.760
REMARK UNBOUND:                -0.961
REMARK  Name = 
REMARK  5 active torsions:
REMARK  status: ('A' for Active; 'I' for Inactive)
REMARK    1  A    between atoms: C_2  and  C_5
REMARK    2  A    between atoms: C_7  and  N_8
REMARK    3  A    between atoms: N_8  and  C_9
REMARK    4  A    between atoms: C_9  and  C_10
REMARK    5  A    between atoms: C_17  and  C_18
REMARK                            x       y       z     vdW  Elec       q    Type
REMARK                         _______ _______ _______ _____ _____    ______ ____
ROOT
ATOM      1  C   UNL     1      45.156   4.348  11.725  0.00  0.00    +0.000 A 
ATOM      2  C   UNL     1      45.673   3.589  12.785  0.00  0.00    +0.000 A 
ATOM      3  C   UNL     1      46.667   4.102  13.618  0.00  0.00    +0.000 A 
ATOM      4  C   UNL     1      47.066   5.432  13.437  0.00  0.00    +0.000 A 
ATOM      5  C   UNL     1      46.598   6.224  12.369  0.00  0.00    +0.000 A 
ATOM      6  C   UNL     1      45.624   5.660  11.532  0.00  0.00    +0.000 A 
ENDROOT
BRANCH   5   7
ATOM      7  C   UNL     1      47.182   7.556  12.100  0.00  0.00    +0.000 A 
ATOM      8  C   UNL     1      46.408   8.719  12.243  0.00  0.00    +0.000 A 
ATOM      9  C   UNL     1      46.990   9.962  12.031  0.00  0.00    +0.000 A 
ATOM     10  N   UNL     1      48.280  10.133  11.697  0.00  0.00    +0.000 NA
ATOM     11  C   UNL     1      49.021   9.014  11.564  0.00  0.00    +0.000 A 
ATOM     12  C   UNL     1      48.525   7.731  11.744  0.00  0.00    +0.000 A 
ENDBRANCH   5   7
BRANCH   1  14
ATOM     13  F   UNL     1      43.031   3.287  11.337  0.00  0.00    +0.000 F 
ATOM     14  C   UNL     1      44.164   3.764  10.752  0.00  0.00    +0.000 C 
ATOM     15  F   UNL     1      44.688   2.720  10.048  0.00  0.00    +0.000 F 
ATOM     16  F   UNL     1      43.753   4.669   9.820  0.00  0.00    +0.000 F 
ENDBRANCH   1  14
BRANCH   3  17
ATOM     17  N   UNL     1      47.188   3.273  14.626  0.00  0.00    +0.000 N 
ATOM     18  H   UNL     1      46.707   2.372  14.621  0.00  0.00    +0.000 HD
BRANCH  17  19
ATOM     19  C   UNL     1      47.235   3.835  15.977  0.00  0.00    +0.000 C 
BRANCH  19  20
ATOM     20  C   UNL     1      48.545   3.532  16.666  0.00  0.00    +0.000 A 
ATOM     21  C   UNL     1      49.111   2.255  16.658  0.00  0.00    +0.000 A 
ATOM     22  C   UNL     1      50.348   2.068  17.252  0.00  0.00    +0.000 A 
ATOM     23  N   UNL     1      51.063   3.058  17.828  0.00  0.00    +0.000 NA
ATOM     24  C   UNL     1      50.516   4.291  17.803  0.00  0.00    +0.000 A 
ATOM     25  C   UNL     1      49.283   4.576  17.238  0.00  0.00    +0.000 A 
ENDBRANCH  19  20
ENDBRANCH  17  19
ENDBRANCH   3  17
TORSDOF 5
ENDMDL
MODEL 8
REMARK VINA RESULT:    -6.470      3.780      6.297
REMARK INTER + INTRA:          -9.321
REMARK INTER:                  -8.472
REMARK INTRA:                  -0.850
REMARK UNBOUND:                -0.961
REMARK  Name = 
REMARK  5 active torsions:
REMARK  status: ('A' for Active; 'I' for Inactive)
REMARK    1  A    between atoms: C_2  and  C_5
REMARK    2  A    between atoms: C_7  and  N_8
REMARK    3  A    between atoms: N_8  and  C_9
REMARK    4  A    between atoms: C_9  and  C_10
REMARK    5  A    between atoms: C_17  and  C_18
REMARK                            x       y       z     vdW  Elec       q    Type
REMARK                         _______ _______ _______ _____ _____    ______ ____
ROOT
ATOM      1  C   UNL     1      45.428   5.070  11.691  0.00  0.00    +0.000 A 
ATOM      2  C   UNL     1      45.630   4.282  12.833  0.00  0.00    +0.000 A 
ATOM      3  C   UNL     1      46.655   4.573  13.735  0.00  0.00    +0.000 A 
ATOM      4  C   UNL     1      47.413   5.733  13.527  0.00  0.00    +0.000 A 
ATOM      5  C   UNL     1      47.267   6.537  12.380  0.00  0.00    +0.000 A 
ATOM      6  C   UNL     1      46.248   6.192  11.480  0.00  0.00    +0.000 A 
ENDROOT
BRANCH   5   7
ATOM      7  C   UNL     1      48.212   7.643  12.103  0.00  0.00    +0.000 A 
ATOM      8  C   UNL     1      47.764   8.973  12.059  0.00  0.00    +0.000 A 
ATOM      9  C   UNL     1      48.675   9.997  11.845  0.00  0.00    +0.000 A 
ATOM     10  N   UNL     1      49.994   9.800  11.680  0.00  0.00    +0.000 NA
ATOM     11  C   UNL     1      50.421   8.520  11.726  0.00  0.00    +0.000 A 
ATOM     12  C   UNL     1      49.584   7.431  11.924  0.00  0.00    +0.000 A 
ENDBRANCH   5   7
BRANCH   1  14
ATOM     13  F   UNL     1      44.858   4.748   9.375  0.00  0.00    +0.000 F 
ATOM     14  C   UNL     1      44.397   4.699  10.655  0.00  0.00    +0.000 C 
ATOM     15  F   UNL     1      43.312   5.522  10.692  0.00  0.00    +0.000 F 
ATOM     16  F   UNL     1      43.912   3.438  10.831  0.00  0.00    +0.000 F 
ENDBRANCH   1  14
BRANCH   3  17
ATOM     17  N   UNL     1      46.846   3.714  14.829  0.00  0.00    +0.000 N 
ATOM     18  H   UNL     1      46.040   3.097  14.935  0.00  0.00    +0.000 HD
BRANCH  17  19
ATOM     19  C   UNL     1      47.194   4.345  16.104  0.00  0.00    +0.000 C 
BRANCH  19  20
ATOM     20  C   UNL     1      48.535   3.873  16.616  0.00  0.00    +0.000 A 
ATOM     21  C   UNL     1      49.453   4.743  17.208  0.00  0.00    +0.000 A 
ATOM     22  C   UNL     1      50.634   4.226  17.716  0.00  0.00    +0.000 A 
ATOM     23  N   UNL     1      50.951   2.914  17.695  0.00  0.00    +0.000 NA
ATOM     24  C   UNL     1      50.042   2.083  17.145  0.00  0.00    +0.000 A 
ATOM     25  C   UNL     1      48.837   2.505  16.607  0.00  0.00    +0.000 A 
ENDBRANCH  19  20
ENDBRANCH  17  19
ENDBRANCH   3  17
TORSDOF 5
ENDMDL
MODEL 9
REMARK VINA RESULT:    -6.387      3.802      6.914
REMARK INTER + INTRA:          -9.215
REMARK INTER:                  -8.329
REMARK INTRA:                  -0.886
REMARK UNBOUND:                -0.961
REMARK  Name = 
REMARK  5 active torsions:
REMARK  status: ('A' for Active; 'I' for Inactive)
REMARK    1  A    between atoms: C_2  and  C_5
REMARK    2  A    between atoms: C_7  and  N_8
REMARK    3  A    between atoms: N_8  and  C_9
REMARK    4  A    between atoms: C_9  and  C_10
REMARK    5  A    between atoms: C_17  and  C_18
REMARK                            x       y       z     vdW  Elec       q    Type
REMARK                         _______ _______ _______ _____ _____    ______ ____
ROOT
ATOM      1  C   UNL     1      48.287   6.988  12.897  0.00  0.00    +0.000 A 
ATOM      2  C   UNL     1      48.531   6.674  14.242  0.00  0.00    +0.000 A 
ATOM      3  C   UNL     1      47.738   5.747  14.918  0.00  0.00    +0.000 A 
ATOM      4  C   UNL     1      46.755   5.059  14.195  0.00  0.00    +0.000 A 
ATOM      5  C   UNL     1      46.454   5.361  12.852  0.00  0.00    +0.000 A 
ATOM      6  C   UNL     1      47.251   6.324  12.217  0.00  0.00    +0.000 A 
ENDROOT
BRANCH   5   7
ATOM      7  C   UNL     1      45.287   4.747  12.181  0.00  0.00    +0.000 A 
ATOM      8  C   UNL     1      44.848   3.462  12.539  0.00  0.00    +0.000 A 
ATOM      9  C   UNL     1      43.723   2.926  11.929  0.00  0.00    +0.000 A 
ATOM     10  N   UNL     1      42.999   3.572  10.999  0.00  0.00    +0.000 NA
ATOM     11  C   UNL     1      43.421   4.808  10.661  0.00  0.00    +0.000 A 
ATOM     12  C   UNL     1      44.540   5.421  11.207  0.00  0.00    +0.000 A 
ENDBRANCH   5   7
BRANCH   1  14
ATOM     13  F   UNL     1      48.296   9.095  11.733  0.00  0.00    +0.000 F 
ATOM     14  C   UNL     1      49.065   8.069  12.190  0.00  0.00    +0.000 C 
ATOM     15  F   UNL     1      49.735   7.593  11.103  0.00  0.00    +0.000 F 
ATOM     16  F   UNL     1      50.012   8.637  12.988  0.00  0.00    +0.000 F 
ENDBRANCH   1  14
BRANCH   3  17
ATOM     17  N   UNL     1      47.993   5.518  16.281  0.00  0.00    +0.000 N 
ATOM     18  H   UNL     1      48.870   5.964  16.553  0.00  0.00    +0.000 HD
BRANCH  17  19
ATOM     19  C   UNL     1      47.953   4.124  16.729  0.00  0.00    +0.000 C 
BRANCH  19  20
ATOM     20  C   UNL     1      49.336   3.588  17.017  0.00  0.00    +0.000 A 
ATOM     21  C   UNL     1      50.357   4.398  17.522  0.00  0.00    +0.000 A 
ATOM     22  C   UNL     1      51.579   3.821  17.827  0.00  0.00    +0.000 A 
ATOM     23  N   UNL     1      51.845   2.505  17.686  0.00  0.00    +0.000 NA
ATOM     24  C   UNL     1      50.841   1.732  17.225  0.00  0.00    +0.000 A 
ATOM     25  C   UNL     1      49.587   2.216  16.888  0.00  0.00    +0.000 A 
ENDBRANCH  19  20
ENDBRANCH  17  19
ENDBRANCH   3  17
TORSDOF 5
ENDMDL
