MODEL 1
REMARK VINA RESULT:    -9.152      0.000      0.000
REMARK INTER + INTRA:         -11.638
REMARK INTER:                 -11.827
REMARK INTRA:                   0.189
REMARK UNBOUND:                 0.189
REMARK  Name = 
REMARK  6 active torsions:
REMARK  status: ('A' for Active; 'I' for Inactive)
REMARK    1  A    between atoms: C_1  and  C_2
REMARK    2  A    between atoms: C_4  and  C_5
REMARK    3  A    between atoms: C_10  and  N_11
REMARK    4  A    between atoms: N_11  and  C_12
REMARK    5  A    between atoms: C_12  and  C_13
REMARK    6  A    between atoms: C_17  and  C_18
REMARK                            x       y       z     vdW  Elec       q    Type
REMARK                         _______ _______ _______ _____ _____    ______ ____
ROOT
ATOM      1  C   UNL     1      44.096   4.747  11.458  0.00  0.00    +0.000 C 
ATOM      2  C   UNL     1      43.413   3.644  12.244  0.00  0.00    +0.000 C 
ATOM      3  C   UNL     1      42.872   5.034  12.323  0.00  0.00    +0.000 C 
ENDROOT
BRANCH   1   4
ATOM      4  C   UNL     1      45.415   5.347  11.960  0.00  0.00    +0.000 A 
ATOM      5  C   UNL     1      46.119   6.290  11.200  0.00  0.00    +0.000 A 
ATOM      6  C   UNL     1      47.321   6.835  11.649  0.00  0.00    +0.000 A 
ATOM      7  C   UNL     1      47.834   6.467  12.893  0.00  0.00    +0.000 A 
ATOM      8  C   UNL     1      47.162   5.550  13.716  0.00  0.00    +0.000 A 
ATOM      9  C   UNL     1      45.967   4.986  13.212  0.00  0.00    +0.000 A 
BRANCH   8  10
ATOM     10  C   UNL     1      47.662   5.232  15.072  0.00  0.00    +0.000 A 
ATOM     11  C   UNL     1      47.218   4.127  15.807  0.00  0.00    +0.000 A 
ATOM     12  C   UNL     1      47.689   3.897  17.106  0.00  0.00    +0.000 A 
ATOM     13  C   UNL     1      48.616   4.775  17.635  0.00  0.00    +0.000 A 
ATOM     14  N   UNL     1      49.089   5.845  16.970  0.00  0.00    +0.000 NA
ATOM     15  C   UNL     1      48.602   6.043  15.718  0.00  0.00    +0.000 A 
ENDBRANCH   8  10
ENDBRANCH   1   4
BRANCH   1  16
ATOM     16  N   UNL     1      43.911   4.801   9.986  0.00  0.00    +0.000 N 
ATOM     17  H   UNL     1      43.682   5.719   9.632  0.00  0.00    +0.000 HD
BRANCH  16  24
ATOM     18  C   UNL     1      43.905   1.871  10.028  0.00  0.00    +0.000 C 
ATOM     19  C   UNL     1      44.859   2.692   9.207  0.00  0.00    +0.000 A 
ATOM     20  C   UNL     1      45.844   2.019   8.470  0.00  0.00    +0.000 A 
ATOM     21  C   UNL     1      46.724   2.718   7.645  0.00  0.00    +0.000 A 
ATOM     22  C   UNL     1      46.546   4.089   7.581  0.00  0.00    +0.000 A 
ATOM     23  N   UNL     1      45.611   4.780   8.291  0.00  0.00    +0.000 NA
ATOM     24  C   UNL     1      44.774   4.094   9.112  0.00  0.00    +0.000 A 
BRANCH  21  25
ATOM     25  C   UNL     1      47.769   1.952   6.921  0.00  0.00    +0.000 C 
ATOM     26  N   UNL     1      48.731   2.620   6.217  0.00  0.00    +0.000 N 
ATOM     27  O   UNL     1      47.793   0.727   6.950  0.00  0.00    +0.000 OA
ATOM     28  H   UNL     1      48.822   3.622   6.148  0.00  0.00    +0.000 HD
ATOM     29  H   UNL     1      49.435   2.051   5.762  0.00  0.00    +0.000 HD
ENDBRANCH  21  25
ENDBRANCH  16  24
ENDBRANCH   1  16
TORSDOF 5
ENDMDL
MODEL 2
REMARK VINA RESULT:    -9.105      2.336      3.178
REMARK INTER + INTRA:         -11.577
REMARK INTER:                 -10.690
REMARK INTRA:                  -0.888
REMARK UNBOUND:                 0.189
REMARK  Name = 
REMARK  6 active torsions:
REMARK  status: ('A' for Active; 'I' for Inactive)
REMARK    1  A    between atoms: C_1  and  C_2
REMARK    2  A    between atoms: C_4  and  C_5
REMARK    3  A    between atoms: C_10  and  N_11
REMARK    4  A    between atoms: N_11  and  C_12
REMARK    5  A    between atoms: C_12  and  C_13
REMARK    6  A    between atoms: C_17  and  C_18
REMARK                            x       y       z     vdW  Elec       q    Type
REMARK                         _______ _______ _______ _____ _____    ______ ____
ROOT
ATOM      1  C   UNL     1      45.098   5.254  11.566  0.00  0.00    +0.000 C 
ATOM      2  C   UNL     1      45.675   4.076  12.330  0.00  0.00    +0.000 C 
ATOM      3  C   UNL     1      44.398   4.691  12.800  0.00  0.00    +0.000 C 
ENDROOT
BRANCH   1   4
ATOM      4  C   UNL     1      45.707   6.651  11.733  0.00  0.00    +0.000 A 
ATOM      5  C   UNL     1      44.898   7.793  11.793  0.00  0.00    +0.000 A 
ATOM      6  C   UNL     1      45.446   9.066  11.940  0.00  0.00    +0.000 A 
ATOM      7  C   UNL     1      46.826   9.224  12.060  0.00  0.00    +0.000 A 
ATOM      8  C   UNL     1      47.690   8.118  12.038  0.00  0.00    +0.000 A 
ATOM      9  C   UNL     1      47.104   6.846  11.848  0.00  0.00    +0.000 A 
BRANCH   8  10
ATOM     10  C   UNL     1      49.145   8.281  12.257  0.00  0.00    +0.000 A 
ATOM     11  C   UNL     1      50.097   8.021  11.266  0.00  0.00    +0.000 A 
ATOM     12  C   UNL     1      51.465   8.147  11.540  0.00  0.00    +0.000 A 
ATOM     13  C   UNL     1      51.850   8.552  12.804  0.00  0.00    +0.000 A 
ATOM     14  N   UNL     1      50.978   8.829  13.791  0.00  0.00    +0.000 NA
ATOM     15  C   UNL     1      49.661   8.686  13.494  0.00  0.00    +0.000 A 
ENDBRANCH   8  10
ENDBRANCH   1   4
BRANCH   1  16
ATOM     16  N   UNL     1      44.452   5.012  10.252  0.00  0.00    +0.000 N 
ATOM     17  H   UNL     1      43.921   5.797   9.902  0.00  0.00    +0.000 HD
BRANCH  16  24
ATOM     18  C   UNL     1      44.069   2.121   9.959  0.00  0.00    +0.000 C 
ATOM     19  C   UNL     1      45.043   2.922   9.141  0.00  0.00    +0.000 A 
ATOM     20  C   UNL     1      45.860   2.236   8.230  0.00  0.00    +0.000 A 
ATOM     21  C   UNL     1      46.744   2.927   7.401  0.00  0.00    +0.000 A 
ATOM     22  C   UNL     1      46.741   4.305   7.514  0.00  0.00    +0.000 A 
ATOM     23  N   UNL     1      45.972   5.006   8.394  0.00  0.00    +0.000 NA
ATOM     24  C   UNL     1      45.133   4.325   9.216  0.00  0.00    +0.000 A 
BRANCH  21  25
ATOM     25  C   UNL     1      47.611   2.141   6.487  0.00  0.00    +0.000 C 
ATOM     26  N   UNL     1      48.157   2.743   5.389  0.00  0.00    +0.000 N 
ATOM     27  O   UNL     1      47.855   0.959   6.703  0.00  0.00    +0.000 OA
ATOM     28  H   UNL     1      48.044   3.712   5.131  0.00  0.00    +0.000 HD
ATOM     29  H   UNL     1      48.759   2.170   4.812  0.00  0.00    +0.000 HD
ENDBRANCH  21  25
ENDBRANCH  16  24
ENDBRANCH   1  16
TORSDOF 5
ENDMDL
MODEL 3
REMARK VINA RESULT:    -8.330      1.743      3.046
REMARK INTER + INTRA:         -10.576
REMARK INTER:                 -10.973
REMARK INTRA:                   0.396
REMARK UNBOUND:                 0.189
REMARK  Name = 
REMARK  6 active torsions:
REMARK  status: ('A' for Active; 'I' for Inactive)
REMARK    1  A    between atoms: C_1  and  C_2
REMARK    2  A    between atoms: C_4  and  C_5
REMARK    3  A    between atoms: C_10  and  N_11
REMARK    4  A    between atoms: N_11  and  C_12
REMARK    5  A    between atoms: C_12  and  C_13
REMARK    6  A    between atoms: C_17  and  C_18
REMARK                            x       y       z     vdW  Elec       q    Type
REMARK                         _______ _______ _______ _____ _____    ______ ____
ROOT
ATOM      1  C   UNL     1      44.000   4.913  11.428  0.00  0.00    +0.000 C 
ATOM      2  C   UNL     1      42.900   4.043  12.005  0.00  0.00    +0.000 C 
ATOM      3  C   UNL     1      42.810   5.525  12.160  0.00  0.00    +0.000 C 
ENDROOT
BRANCH   1   4
ATOM      4  C   UNL     1      45.348   5.028  12.150  0.00  0.00    +0.000 A 
ATOM      5  C   UNL     1      45.829   3.991  12.960  0.00  0.00    +0.000 A 
ATOM      6  C   UNL     1      47.051   4.091  13.622  0.00  0.00    +0.000 A 
ATOM      7  C   UNL     1      47.841   5.230  13.464  0.00  0.00    +0.000 A 
ATOM      8  C   UNL     1      47.431   6.292  12.642  0.00  0.00    +0.000 A 
ATOM      9  C   UNL     1      46.168   6.174  12.017  0.00  0.00    +0.000 A 
BRANCH   8  10
ATOM     10  C   UNL     1      48.312   7.457  12.404  0.00  0.00    +0.000 A 
ATOM     11  C   UNL     1      47.883   8.613  11.743  0.00  0.00    +0.000 A 
ATOM     12  C   UNL     1      48.771   9.669  11.502  0.00  0.00    +0.000 A 
ATOM     13  C   UNL     1      50.073   9.551  11.950  0.00  0.00    +0.000 A 
ATOM     14  N   UNL     1      50.537   8.470  12.603  0.00  0.00    +0.000 NA
ATOM     15  C   UNL     1      49.652   7.461  12.809  0.00  0.00    +0.000 A 
ENDBRANCH   8  10
ENDBRANCH   1   4
BRANCH   1  16
ATOM     16  N   UNL     1      44.065   5.110   9.959  0.00  0.00    +0.000 N 
ATOM     17  H   UNL     1      44.156   6.075   9.674  0.00  0.00    +0.000 HD
BRANCH  16  24
ATOM     18  C   UNL     1      43.805   2.213  10.317  0.00  0.00    +0.000 C 
ATOM     19  C   UNL     1      44.789   2.854   9.377  0.00  0.00    +0.000 A 
ATOM     20  C   UNL     1      45.676   2.019   8.681  0.00  0.00    +0.000 A 
ATOM     21  C   UNL     1      46.574   2.546   7.753  0.00  0.00    +0.000 A 
ATOM     22  C   UNL     1      46.514   3.913   7.549  0.00  0.00    +0.000 A 
ATOM     23  N   UNL     1      45.676   4.757   8.214  0.00  0.00    +0.000 NA
ATOM     24  C   UNL     1      44.822   4.240   9.135  0.00  0.00    +0.000 A 
BRANCH  21  25
ATOM     25  C   UNL     1      47.514   1.616   7.078  0.00  0.00    +0.000 C 
ATOM     26  N   UNL     1      48.651   2.105   6.501  0.00  0.00    +0.000 N 
ATOM     27  O   UNL     1      47.294   0.411   7.036  0.00  0.00    +0.000 OA
ATOM     28  H   UNL     1      48.944   3.071   6.500  0.00  0.00    +0.000 HD
ATOM     29  H   UNL     1      49.271   1.426   6.076  0.00  0.00    +0.000 HD
ENDBRANCH  21  25
ENDBRANCH  16  24
ENDBRANCH   1  16
TORSDOF 5
ENDMDL
MODEL 4
REMARK VINA RESULT:    -7.881      3.131      7.291
REMARK INTER + INTRA:          -9.995
REMARK INTER:                  -8.863
REMARK INTRA:                  -1.132
REMARK UNBOUND:                 0.189
REMARK  Name = 
REMARK  6 active torsions:
REMARK  status: ('A' for Active; 'I' for Inactive)
REMARK    1  A    between atoms: C_1  and  C_2
REMARK    2  A    between atoms: C_4  and  C_5
REMARK    3  A    between atoms: C_10  and  N_11
REMARK    4  A    between atoms: N_11  and  C_12
REMARK    5  A    between atoms: C_12  and  C_13
REMARK    6  A    between atoms: C_17  and  C_18
REMARK                            x       y       z     vdW  Elec       q    Type
REMARK                         _______ _______ _______ _____ _____    ______ ____
ROOT
ATOM      1  C   UNL     1      44.122   6.233  11.704  0.00  0.00    +0.000 C 
ATOM      2  C   UNL     1      44.151   7.397  10.732  0.00  0.00    +0.000 C 
ATOM      3  C   UNL     1      42.858   7.022  11.377  0.00  0.00    +0.000 C 
ENDROOT
BRANCH   1   4
ATOM      4  C   UNL     1      44.154   4.792  11.180  0.00  0.00    +0.000 A 
ATOM      5  C   UNL     1      43.358   3.792  11.755  0.00  0.00    +0.000 A 
ATOM      6  C   UNL     1      43.387   2.480  11.286  0.00  0.00    +0.000 A 
ATOM      7  C   UNL     1      44.198   2.142  10.202  0.00  0.00    +0.000 A 
ATOM      8  C   UNL     1      44.997   3.103   9.563  0.00  0.00    +0.000 A 
ATOM      9  C   UNL     1      44.974   4.415  10.089  0.00  0.00    +0.000 A 
BRANCH   8  10
ATOM     10  C   UNL     1      45.785   2.760   8.358  0.00  0.00    +0.000 A 
ATOM     11  C   UNL     1      46.034   3.673   7.327  0.00  0.00    +0.000 A 
ATOM     12  C   UNL     1      46.747   3.284   6.186  0.00  0.00    +0.000 A 
ATOM     13  C   UNL     1      47.214   1.986   6.111  0.00  0.00    +0.000 A 
ATOM     14  N   UNL     1      47.017   1.070   7.077  0.00  0.00    +0.000 NA
ATOM     15  C   UNL     1      46.313   1.479   8.164  0.00  0.00    +0.000 A 
ENDBRANCH   8  10
ENDBRANCH   1   4
BRANCH   1  16
ATOM     16  N   UNL     1      44.701   6.413  13.058  0.00  0.00    +0.000 N 
ATOM     17  H   UNL     1      44.415   5.711  13.727  0.00  0.00    +0.000 HD
BRANCH  16  24
ATOM     18  C   UNL     1      46.711   4.346  13.586  0.00  0.00    +0.000 C 
ATOM     19  C   UNL     1      47.005   5.820  13.599  0.00  0.00    +0.000 A 
ATOM     20  C   UNL     1      48.300   6.231  13.947  0.00  0.00    +0.000 A 
ATOM     21  C   UNL     1      48.653   7.580  13.924  0.00  0.00    +0.000 A 
ATOM     22  C   UNL     1      47.670   8.464  13.516  0.00  0.00    +0.000 A 
ATOM     23  N   UNL     1      46.399   8.105  13.183  0.00  0.00    +0.000 NA
ATOM     24  C   UNL     1      46.055   6.792  13.233  0.00  0.00    +0.000 A 
BRANCH  21  25
ATOM     25  C   UNL     1      50.028   7.955  14.340  0.00  0.00    +0.000 C 
ATOM     26  N   UNL     1      51.068   7.781  13.472  0.00  0.00    +0.000 N 
ATOM     27  O   UNL     1      50.248   8.428  15.449  0.00  0.00    +0.000 OA
ATOM     28  H   UNL     1      50.997   7.427  12.530  0.00  0.00    +0.000 HD
ATOM     29  H   UNL     1      51.981   8.075  13.796  0.00  0.00    +0.000 HD
ENDBRANCH  21  25
ENDBRANCH  16  24
ENDBRANCH   1  16
TORSDOF 5
ENDMDL
MODEL 5
REMARK VINA RESULT:    -7.846      2.963      7.630
REMARK INTER + INTRA:          -9.950
REMARK INTER:                  -9.706
REMARK INTRA:                  -0.244
REMARK UNBOUND:                 0.189
REMARK  Name = 
REMARK  6 active torsions:
REMARK  status: ('A' for Active; 'I' for Inactive)
REMARK    1  A    between atoms: C_1  and  C_2
REMARK    2  A    between atoms: C_4  and  C_5
REMARK    3  A    between atoms: C_10  and  N_11
REMARK    4  A    between atoms: N_11  and  C_12
REMARK    5  A    between atoms: C_12  and  C_13
REMARK    6  A    between atoms: C_17  and  C_18
REMARK                            x       y       z     vdW  Elec       q    Type
REMARK                         _______ _______ _______ _____ _____    ______ ____
ROOT
ATOM      1  C   UNL     1      46.259   7.369  12.125  0.00  0.00    +0.000 C 
ATOM      2  C   UNL     1      46.215   8.836  11.741  0.00  0.00    +0.000 C 
ATOM      3  C   UNL     1      45.521   8.390  12.986  0.00  0.00    +0.000 C 
ENDROOT
BRANCH   1   4
ATOM      4  C   UNL     1      45.370   6.355  11.396  0.00  0.00    +0.000 A 
ATOM      5  C   UNL     1      43.980   6.349  11.574  0.00  0.00    +0.000 A 
ATOM      6  C   UNL     1      43.167   5.427  10.917  0.00  0.00    +0.000 A 
ATOM      7  C   UNL     1      43.727   4.501  10.037  0.00  0.00    +0.000 A 
ATOM      8  C   UNL     1      45.110   4.474   9.792  0.00  0.00    +0.000 A 
ATOM      9  C   UNL     1      45.909   5.397  10.505  0.00  0.00    +0.000 A 
BRANCH   8  10
ATOM     10  C   UNL     1      45.689   3.552   8.789  0.00  0.00    +0.000 A 
ATOM     11  C   UNL     1      46.302   3.996   7.613  0.00  0.00    +0.000 A 
ATOM     12  C   UNL     1      46.794   3.080   6.674  0.00  0.00    +0.000 A 
ATOM     13  C   UNL     1      46.675   1.730   6.946  0.00  0.00    +0.000 A 
ATOM     14  N   UNL     1      46.107   1.246   8.067  0.00  0.00    +0.000 NA
ATOM     15  C   UNL     1      45.632   2.163   8.949  0.00  0.00    +0.000 A 
ENDBRANCH   8  10
ENDBRANCH   1   4
BRANCH   1  16
ATOM     16  N   UNL     1      47.519   6.807  12.673  0.00  0.00    +0.000 N 
ATOM     17  H   UNL     1      48.316   7.422  12.591  0.00  0.00    +0.000 HD
BRANCH  16  24
ATOM     18  C   UNL     1      48.923   7.922  14.991  0.00  0.00    +0.000 C 
ATOM     19  C   UNL     1      48.297   6.555  14.971  0.00  0.00    +0.000 A 
ATOM     20  C   UNL     1      48.449   5.743  16.105  0.00  0.00    +0.000 A 
ATOM     21  C   UNL     1      47.845   4.488  16.172  0.00  0.00    +0.000 A 
ATOM     22  C   UNL     1      47.079   4.117  15.082  0.00  0.00    +0.000 A 
ATOM     23  N   UNL     1      46.917   4.871  13.959  0.00  0.00    +0.000 NA
ATOM     24  C   UNL     1      47.530   6.082  13.890  0.00  0.00    +0.000 A 
BRANCH  21  25
ATOM     25  C   UNL     1      48.077   3.660  17.383  0.00  0.00    +0.000 C 
ATOM     26  N   UNL     1      47.064   2.890  17.878  0.00  0.00    +0.000 N 
ATOM     27  O   UNL     1      49.166   3.647  17.944  0.00  0.00    +0.000 OA
ATOM     28  H   UNL     1      46.140   2.805  17.483  0.00  0.00    +0.000 HD
ATOM     29  H   UNL     1      47.281   2.325  18.691  0.00  0.00    +0.000 HD
ENDBRANCH  21  25
ENDBRANCH  16  24
ENDBRANCH   1  16
TORSDOF 5
ENDMDL
MODEL 6
REMARK VINA RESULT:    -7.805      2.950      7.823
REMARK INTER + INTRA:          -9.897
REMARK INTER:                  -9.482
REMARK INTRA:                  -0.415
REMARK UNBOUND:                 0.189
REMARK  Name = 
REMARK  6 active torsions:
REMARK  status: ('A' for Active; 'I' for Inactive)
REMARK    1  A    between atoms: C_1  and  C_2
REMARK    2  A    between atoms: C_4  and  C_5
REMARK    3  A    between atoms: C_10  and  N_11
REMARK    4  A    between atoms: N_11  and  C_12
REMARK    5  A    between atoms: C_12  and  C_13
REMARK    6  A    between atoms: C_17  and  C_18
REMARK                            x       y       z     vdW  Elec       q    Type
REMARK                         _______ _______ _______ _____ _____    ______ ____
ROOT
ATOM      1  C   UNL     1      48.726   7.694  12.814  0.00  0.00    +0.000 C 
ATOM      2  C   UNL     1      49.880   7.180  11.975  0.00  0.00    +0.000 C 
ATOM      3  C   UNL     1      49.560   8.638  11.954  0.00  0.00    +0.000 C 
ENDROOT
BRANCH   1   4
ATOM      4  C   UNL     1      47.281   7.480  12.347  0.00  0.00    +0.000 A 
ATOM      5  C   UNL     1      46.285   8.431  12.608  0.00  0.00    +0.000 A 
ATOM      6  C   UNL     1      44.970   8.241  12.191  0.00  0.00    +0.000 A 
ATOM      7  C   UNL     1      44.622   7.097  11.471  0.00  0.00    +0.000 A 
ATOM      8  C   UNL     1      45.579   6.120  11.151  0.00  0.00    +0.000 A 
ATOM      9  C   UNL     1      46.895   6.326  11.624  0.00  0.00    +0.000 A 
BRANCH   8  10
ATOM     10  C   UNL     1      45.226   4.954  10.310  0.00  0.00    +0.000 A 
ATOM     11  C   UNL     1      45.648   4.820   8.982  0.00  0.00    +0.000 A 
ATOM     12  C   UNL     1      45.247   3.719   8.214  0.00  0.00    +0.000 A 
ATOM     13  C   UNL     1      44.444   2.762   8.804  0.00  0.00    +0.000 A 
ATOM     14  N   UNL     1      44.020   2.832  10.079  0.00  0.00    +0.000 NA
ATOM     15  C   UNL     1      44.418   3.918  10.790  0.00  0.00    +0.000 A 
ENDBRANCH   8  10
ENDBRANCH   1   4
BRANCH   1  16
ATOM     16  N   UNL     1      48.894   7.792  14.285  0.00  0.00    +0.000 N 
ATOM     17  H   UNL     1      48.716   8.713  14.661  0.00  0.00    +0.000 HD
BRANCH  16  24
ATOM     18  C   UNL     1      49.178   8.120  17.183  0.00  0.00    +0.000 C 
ATOM     19  C   UNL     1      48.665   6.866  16.530  0.00  0.00    +0.000 A 
ATOM     20  C   UNL     1      48.366   5.769  17.352  0.00  0.00    +0.000 A 
ATOM     21  C   UNL     1      47.834   4.597  16.815  0.00  0.00    +0.000 A 
ATOM     22  C   UNL     1      47.599   4.599  15.452  0.00  0.00    +0.000 A 
ATOM     23  N   UNL     1      47.886   5.639  14.620  0.00  0.00    +0.000 NA
ATOM     24  C   UNL     1      48.429   6.767  15.146  0.00  0.00    +0.000 A 
BRANCH  21  25
ATOM     25  C   UNL     1      47.576   3.458  17.731  0.00  0.00    +0.000 C 
ATOM     26  N   UNL     1      48.417   3.234  18.784  0.00  0.00    +0.000 N 
ATOM     27  O   UNL     1      46.614   2.716  17.567  0.00  0.00    +0.000 OA
ATOM     28  H   UNL     1      49.220   3.794  19.027  0.00  0.00    +0.000 HD
ATOM     29  H   UNL     1      48.183   2.459  19.393  0.00  0.00    +0.000 HD
ENDBRANCH  21  25
ENDBRANCH  16  24
ENDBRANCH   1  16
TORSDOF 5
ENDMDL
MODEL 7
REMARK VINA RESULT:    -7.801      3.706      8.073
REMARK INTER + INTRA:          -9.892
REMARK INTER:                  -8.707
REMARK INTRA:                  -1.185
REMARK UNBOUND:                 0.189
REMARK  Name = 
REMARK  6 active torsions:
REMARK  status: ('A' for Active; 'I' for Inactive)
REMARK    1  A    between atoms: C_1  and  C_2
REMARK    2  A    between atoms: C_4  and  C_5
REMARK    3  A    between atoms: C_10  and  N_11
REMARK    4  A    between atoms: N_11  and  C_12
REMARK    5  A    between atoms: C_12  and  C_13
REMARK    6  A    between atoms: C_17  and  C_18
REMARK                            x       y       z     vdW  Elec       q    Type
REMARK                         _______ _______ _______ _____ _____    ______ ____
ROOT
ATOM      1  C   UNL     1      49.100   7.254  16.867  0.00  0.00    +0.000 C 
ATOM      2  C   UNL     1      50.025   8.296  17.466  0.00  0.00    +0.000 C 
ATOM      3  C   UNL     1      48.552   8.547  17.464  0.00  0.00    +0.000 C 
ENDROOT
BRANCH   1   4
ATOM      4  C   UNL     1      48.971   7.124  15.344  0.00  0.00    +0.000 A 
ATOM      5  C   UNL     1      49.912   7.705  14.484  0.00  0.00    +0.000 A 
ATOM      6  C   UNL     1      49.798   7.594  13.099  0.00  0.00    +0.000 A 
ATOM      7  C   UNL     1      48.746   6.868  12.540  0.00  0.00    +0.000 A 
ATOM      8  C   UNL     1      47.787   6.236  13.347  0.00  0.00    +0.000 A 
ATOM      9  C   UNL     1      47.911   6.402  14.746  0.00  0.00    +0.000 A 
BRANCH   8  10
ATOM     10  C   UNL     1      46.727   5.391  12.753  0.00  0.00    +0.000 A 
ATOM     11  C   UNL     1      46.005   5.766  11.616  0.00  0.00    +0.000 A 
ATOM     12  C   UNL     1      44.979   4.951  11.120  0.00  0.00    +0.000 A 
ATOM     13  C   UNL     1      44.711   3.761  11.771  0.00  0.00    +0.000 A 
ATOM     14  N   UNL     1      45.382   3.343  12.860  0.00  0.00    +0.000 NA
ATOM     15  C   UNL     1      46.362   4.164  13.318  0.00  0.00    +0.000 A 
ENDBRANCH   8  10
ENDBRANCH   1   4
BRANCH   1  16
ATOM     16  N   UNL     1      48.846   6.000  17.619  0.00  0.00    +0.000 N 
ATOM     17  H   UNL     1      47.873   5.733  17.660  0.00  0.00    +0.000 HD
BRANCH  16  24
ATOM     18  C   UNL     1      47.682   3.378  17.019  0.00  0.00    +0.000 C 
ATOM     19  C   UNL     1      49.141   3.598  17.311  0.00  0.00    +0.000 A 
ATOM     20  C   UNL     1      49.980   2.476  17.361  0.00  0.00    +0.000 A 
ATOM     21  C   UNL     1      51.352   2.616  17.572  0.00  0.00    +0.000 A 
ATOM     22  C   UNL     1      51.823   3.911  17.695  0.00  0.00    +0.000 A 
ATOM     23  N   UNL     1      51.039   5.025  17.664  0.00  0.00    +0.000 NA
ATOM     24  C   UNL     1      49.701   4.878  17.485  0.00  0.00    +0.000 A 
BRANCH  21  25
ATOM     25  C   UNL     1      52.180   1.387  17.654  0.00  0.00    +0.000 C 
ATOM     26  N   UNL     1      51.620   0.223  18.097  0.00  0.00    +0.000 N 
ATOM     27  O   UNL     1      53.360   1.394  17.323  0.00  0.00    +0.000 OA
ATOM     28  H   UNL     1      50.656   0.099  18.370  0.00  0.00    +0.000 HD
ATOM     29  H   UNL     1      52.221  -0.592  18.111  0.00  0.00    +0.000 HD
ENDBRANCH  21  25
ENDBRANCH  16  24
ENDBRANCH   1  16
TORSDOF 5
ENDMDL
MODEL 8
REMARK VINA RESULT:    -7.727      4.108      6.639
REMARK INTER + INTRA:          -9.797
REMARK INTER:                  -8.750
REMARK INTRA:                  -1.047
REMARK UNBOUND:                 0.189
REMARK  Name = 
REMARK  6 active torsions:
REMARK  status: ('A' for Active; 'I' for Inactive)
REMARK    1  A    between atoms: C_1  and  C_2
REMARK    2  A    between atoms: C_4  and  C_5
REMARK    3  A    between atoms: C_10  and  N_11
REMARK    4  A    between atoms: N_11  and  C_12
REMARK    5  A    between atoms: C_12  and  C_13
REMARK    6  A    between atoms: C_17  and  C_18
REMARK                            x       y       z     vdW  Elec       q    Type
REMARK                         _______ _______ _______ _____ _____    ______ ____
ROOT
ATOM      1  C   UNL     1      49.136   7.649  15.488  0.00  0.00    +0.000 C 
ATOM      2  C   UNL     1      48.599   9.057  15.667  0.00  0.00    +0.000 C 
ATOM      3  C   UNL     1      50.075   8.850  15.570  0.00  0.00    +0.000 C 
ENDROOT
BRANCH   1   4
ATOM      4  C   UNL     1      49.189   6.688  16.681  0.00  0.00    +0.000 A 
ATOM      5  C   UNL     1      48.354   6.864  17.793  0.00  0.00    +0.000 A 
ATOM      6  C   UNL     1      48.400   5.996  18.883  0.00  0.00    +0.000 A 
ATOM      7  C   UNL     1      49.270   4.906  18.872  0.00  0.00    +0.000 A 
ATOM      8  C   UNL     1      50.111   4.656  17.776  0.00  0.00    +0.000 A 
ATOM      9  C   UNL     1      50.067   5.578  16.705  0.00  0.00    +0.000 A 
BRANCH   8  10
ATOM     10  C   UNL     1      50.965   3.448  17.729  0.00  0.00    +0.000 A 
ATOM     11  C   UNL     1      52.315   3.457  18.095  0.00  0.00    +0.000 A 
ATOM     12  C   UNL     1      53.092   2.296  17.988  0.00  0.00    +0.000 A 
ATOM     13  C   UNL     1      52.488   1.139  17.532  0.00  0.00    +0.000 A 
ATOM     14  N   UNL     1      51.191   1.069  17.180  0.00  0.00    +0.000 NA
ATOM     15  C   UNL     1      50.472   2.215  17.285  0.00  0.00    +0.000 A 
ENDBRANCH   8  10
ENDBRANCH   1   4
BRANCH   1  16
ATOM     16  N   UNL     1      48.997   6.989  14.166  0.00  0.00    +0.000 N 
ATOM     17  H   UNL     1      49.813   6.471  13.874  0.00  0.00    +0.000 HD
BRANCH  16  24
ATOM     18  C   UNL     1      47.112   8.366  12.394  0.00  0.00    +0.000 C 
ATOM     19  C   UNL     1      46.834   7.037  13.039  0.00  0.00    +0.000 A 
ATOM     20  C   UNL     1      45.575   6.454  12.832  0.00  0.00    +0.000 A 
ATOM     21  C   UNL     1      45.274   5.197  13.355  0.00  0.00    +0.000 A 
ATOM     22  C   UNL     1      46.287   4.565  14.053  0.00  0.00    +0.000 A 
ATOM     23  N   UNL     1      47.516   5.103  14.285  0.00  0.00    +0.000 NA
ATOM     24  C   UNL     1      47.793   6.339  13.795  0.00  0.00    +0.000 A 
BRANCH  21  25
ATOM     25  C   UNL     1      43.911   4.651  13.134  0.00  0.00    +0.000 C 
ATOM     26  N   UNL     1      42.842   5.501  13.088  0.00  0.00    +0.000 N 
ATOM     27  O   UNL     1      43.725   3.449  12.982  0.00  0.00    +0.000 OA
ATOM     28  H   UNL     1      42.883   6.505  13.174  0.00  0.00    +0.000 HD
ATOM     29  H   UNL     1      41.938   5.081  12.910  0.00  0.00    +0.000 HD
ENDBRANCH  21  25
ENDBRANCH  16  24
ENDBRANCH   1  16
TORSDOF 5
ENDMDL
MODEL 9
REMARK VINA RESULT:    -7.708      2.805      7.906
REMARK INTER + INTRA:          -9.773
REMARK INTER:                  -8.868
REMARK INTRA:                  -0.905
REMARK UNBOUND:                 0.189
REMARK  Name = 
REMARK  6 active torsions:
REMARK  status: ('A' for Active; 'I' for Inactive)
REMARK    1  A    between atoms: C_1  and  C_2
REMARK    2  A    between atoms: C_4  and  C_5
REMARK    3  A    between atoms: C_10  and  N_11
REMARK    4  A    between atoms: N_11  and  C_12
REMARK    5  A    between atoms: C_12  and  C_13
REMARK    6  A    between atoms: C_17  and  C_18
REMARK                            x       y       z     vdW  Elec       q    Type
REMARK                         _______ _______ _______ _____ _____    ______ ____
ROOT
ATOM      1  C   UNL     1      46.674   5.334  14.028  0.00  0.00    +0.000 C 
ATOM      2  C   UNL     1      48.075   5.677  13.558  0.00  0.00    +0.000 C 
ATOM      3  C   UNL     1      47.146   6.782  13.941  0.00  0.00    +0.000 C 
ENDROOT
BRANCH   1   4
ATOM      4  C   UNL     1      45.600   4.928  13.012  0.00  0.00    +0.000 A 
ATOM      5  C   UNL     1      44.237   5.108  13.284  0.00  0.00    +0.000 A 
ATOM      6  C   UNL     1      43.256   4.737  12.367  0.00  0.00    +0.000 A 
ATOM      7  C   UNL     1      43.621   4.198  11.132  0.00  0.00    +0.000 A 
ATOM      8  C   UNL     1      44.969   4.020  10.786  0.00  0.00    +0.000 A 
ATOM      9  C   UNL     1      45.937   4.370  11.755  0.00  0.00    +0.000 A 
BRANCH   8  10
ATOM     10  C   UNL     1      45.354   3.535   9.441  0.00  0.00    +0.000 A 
ATOM     11  C   UNL     1      45.482   2.177   9.131  0.00  0.00    +0.000 A 
ATOM     12  C   UNL     1      45.894   1.772   7.855  0.00  0.00    +0.000 A 
ATOM     13  C   UNL     1      46.151   2.743   6.906  0.00  0.00    +0.000 A 
ATOM     14  N   UNL     1      46.031   4.062   7.144  0.00  0.00    +0.000 NA
ATOM     15  C   UNL     1      45.640   4.419   8.394  0.00  0.00    +0.000 A 
ENDBRANCH   8  10
ENDBRANCH   1   4
BRANCH   1  16
ATOM     16  N   UNL     1      46.491   4.762  15.385  0.00  0.00    +0.000 N 
ATOM     17  H   UNL     1      45.587   4.338  15.536  0.00  0.00    +0.000 HD
BRANCH  16  24
ATOM     18  C   UNL     1      48.037   6.058  17.511  0.00  0.00    +0.000 C 
ATOM     19  C   UNL     1      48.350   4.693  16.963  0.00  0.00    +0.000 A 
ATOM     20  C   UNL     1      49.484   4.030  17.454  0.00  0.00    +0.000 A 
ATOM     21  C   UNL     1      49.798   2.739  17.028  0.00  0.00    +0.000 A 
ATOM     22  C   UNL     1      48.919   2.159  16.132  0.00  0.00    +0.000 A 
ATOM     23  N   UNL     1      47.815   2.774  15.624  0.00  0.00    +0.000 NA
ATOM     24  C   UNL     1      47.530   4.040  16.023  0.00  0.00    +0.000 A 
BRANCH  21  25
ATOM     25  C   UNL     1      51.034   2.107  17.554  0.00  0.00    +0.000 C 
ATOM     26  N   UNL     1      51.825   2.795  18.430  0.00  0.00    +0.000 N 
ATOM     27  O   UNL     1      51.356   0.971  17.224  0.00  0.00    +0.000 OA
ATOM     28  H   UNL     1      51.643   3.720  18.788  0.00  0.00    +0.000 HD
ATOM     29  H   UNL     1      52.643   2.309  18.778  0.00  0.00    +0.000 HD
ENDBRANCH  21  25
ENDBRANCH  16  24
ENDBRANCH   1  16
TORSDOF 5
ENDMDL
