MODEL 1
REMARK VINA RESULT:    -7.410      0.000      0.000
REMARK INTER + INTRA:          -8.911
REMARK INTER:                  -8.926
REMARK INTRA:                   0.015
REMARK UNBOUND:                 0.015
REMARK  Name = 
REMARK  4 active torsions:
REMARK  status: ('A' for Active; 'I' for Inactive)
REMARK    1  A    between atoms: C_2  and  C_3
REMARK    2  A    between atoms: N_7  and  C_8
REMARK    3  A    between atoms: C_8  and  C_9
REMARK    4  A    between atoms: C_20  and  N_21
REMARK                            x       y       z     vdW  Elec       q    Type
REMARK                         _______ _______ _______ _____ _____    ______ ____
ROOT
ATOM      1  C   UNL     1      47.544   5.083  14.756  0.00  0.00    +0.000 A 
ATOM      2  C   UNL     1      46.937   5.780  13.740  0.00  0.00    +0.000 A 
ATOM      3  N   UNL     1      46.200   5.198  12.768  0.00  0.00    +0.000 NA
ATOM      4  C   UNL     1      46.081   3.863  12.816  0.00  0.00    +0.000 A 
ATOM      5  N   UNL     1      45.275   3.171  11.922  0.00  0.00    +0.000 N 
ATOM      6  N   UNL     1      46.664   3.104  13.756  0.00  0.00    +0.000 NA
ATOM      7  C   UNL     1      47.366   3.714  14.723  0.00  0.00    +0.000 A 
ATOM      8  H   UNL     1      45.476   2.182  11.966  0.00  0.00    +0.000 HD
ENDROOT
BRANCH   5   9
ATOM      9  C   UNL     1      44.616   3.777  10.768  0.00  0.00    +0.000 C 
ATOM     10  C   UNL     1      43.867   5.081  10.957  0.00  0.00    +0.000 C 
ATOM     11  C   UNL     1      43.094   3.814  10.783  0.00  0.00    +0.000 C 
BRANCH   9  12
ATOM     12  C   UNL     1      45.274   3.411   9.442  0.00  0.00    +0.000 A 
ATOM     13  C   UNL     1      45.735   4.383   8.539  0.00  0.00    +0.000 A 
ATOM     14  C   UNL     1      46.470   4.031   7.400  0.00  0.00    +0.000 A 
ATOM     15  C   UNL     1      46.765   2.691   7.139  0.00  0.00    +0.000 A 
ATOM     16 CL   UNL     1      47.761   2.334   5.773  0.00  0.00    +0.000 Cl
ATOM     17  C   UNL     1      46.276   1.702   7.992  0.00  0.00    +0.000 A 
ATOM     18 CL   UNL     1      46.590   0.020   7.739  0.00  0.00    +0.000 Cl
ATOM     19  C   UNL     1      45.531   2.063   9.121  0.00  0.00    +0.000 A 
ENDBRANCH   9  12
ENDBRANCH   5   9
BRANCH   7  20
ATOM     20  N   UNL     1      47.932   2.853  15.661  0.00  0.00    +0.000 N 
ATOM     21  H   UNL     1      48.801   2.490  15.268  0.00  0.00    +0.000 HD
ATOM     22  H   UNL     1      47.316   2.104  15.956  0.00  0.00    +0.000 HD
ENDBRANCH   7  20
BRANCH   1  24
ATOM     23  N   UNL     1      48.865   6.329  16.592  0.00  0.00    +0.000 NA
ATOM     24  C   UNL     1      48.281   5.753  15.775  0.00  0.00    +0.000 C 
ENDBRANCH   1  24
TORSDOF 4
ENDMDL
MODEL 2
REMARK VINA RESULT:    -7.370      4.074      6.918
REMARK INTER + INTRA:          -8.863
REMARK INTER:                  -8.557
REMARK INTRA:                  -0.306
REMARK UNBOUND:                 0.015
REMARK  Name = 
REMARK  4 active torsions:
REMARK  status: ('A' for Active; 'I' for Inactive)
REMARK    1  A    between atoms: C_2  and  C_3
REMARK    2  A    between atoms: N_7  and  C_8
REMARK    3  A    between atoms: C_8  and  C_9
REMARK    4  A    between atoms: C_20  and  N_21
REMARK                            x       y       z     vdW  Elec       q    Type
REMARK                         _______ _______ _______ _____ _____    ______ ____
ROOT
ATOM      1  C   UNL     1      46.170   2.236   8.026  0.00  0.00    +0.000 A 
ATOM      2  C   UNL     1      45.609   2.148   9.277  0.00  0.00    +0.000 A 
ATOM      3  N   UNL     1      45.130   3.211   9.960  0.00  0.00    +0.000 NA
ATOM      4  C   UNL     1      45.232   4.409   9.365  0.00  0.00    +0.000 A 
ATOM      5  N   UNL     1      44.693   5.555   9.934  0.00  0.00    +0.000 N 
ATOM      6  N   UNL     1      45.791   4.587   8.158  0.00  0.00    +0.000 NA
ATOM      7  C   UNL     1      46.232   3.508   7.494  0.00  0.00    +0.000 A 
ATOM      8  H   UNL     1      45.048   6.376   9.468  0.00  0.00    +0.000 HD
ENDROOT
BRANCH   5   9
ATOM      9  C   UNL     1      44.117   5.614  11.275  0.00  0.00    +0.000 C 
ATOM     10  C   UNL     1      42.818   4.879  11.545  0.00  0.00    +0.000 C 
ATOM     11  C   UNL     1      42.804   6.369  11.429  0.00  0.00    +0.000 C 
BRANCH   9  12
ATOM     12  C   UNL     1      45.159   5.833  12.366  0.00  0.00    +0.000 A 
ATOM     13  C   UNL     1      45.514   4.828  13.279  0.00  0.00    +0.000 A 
ATOM     14  C   UNL     1      46.578   4.996  14.175  0.00  0.00    +0.000 A 
ATOM     15  C   UNL     1      47.317   6.181  14.175  0.00  0.00    +0.000 A 
ATOM     16 CL   UNL     1      48.678   6.286  15.233  0.00  0.00    +0.000 Cl
ATOM     17  C   UNL     1      46.954   7.216  13.313  0.00  0.00    +0.000 A 
ATOM     18 CL   UNL     1      47.811   8.717  13.252  0.00  0.00    +0.000 Cl
ATOM     19  C   UNL     1      45.880   7.043  12.431  0.00  0.00    +0.000 A 
ENDBRANCH   9  12
ENDBRANCH   5   9
BRANCH   7  20
ATOM     20  N   UNL     1      46.792   3.781   6.247  0.00  0.00    +0.000 N 
ATOM     21  H   UNL     1      47.648   3.234   6.163  0.00  0.00    +0.000 HD
ATOM     22  H   UNL     1      46.964   4.767   6.082  0.00  0.00    +0.000 HD
ENDBRANCH   7  20
BRANCH   1  24
ATOM     23  N   UNL     1      47.017   0.122   6.809  0.00  0.00    +0.000 NA
ATOM     24  C   UNL     1      46.627   1.076   7.338  0.00  0.00    +0.000 C 
ENDBRANCH   1  24
TORSDOF 4
ENDMDL
MODEL 3
REMARK VINA RESULT:    -7.240      2.413      3.289
REMARK INTER + INTRA:          -8.707
REMARK INTER:                  -9.406
REMARK INTRA:                   0.699
REMARK UNBOUND:                 0.015
REMARK  Name = 
REMARK  4 active torsions:
REMARK  status: ('A' for Active; 'I' for Inactive)
REMARK    1  A    between atoms: C_2  and  C_3
REMARK    2  A    between atoms: N_7  and  C_8
REMARK    3  A    between atoms: C_8  and  C_9
REMARK    4  A    between atoms: C_20  and  N_21
REMARK                            x       y       z     vdW  Elec       q    Type
REMARK                         _______ _______ _______ _____ _____    ______ ____
ROOT
ATOM      1  C   UNL     1      46.542   8.124  12.327  0.00  0.00    +0.000 A 
ATOM      2  C   UNL     1      46.946   6.813  12.251  0.00  0.00    +0.000 A 
ATOM      3  N   UNL     1      46.175   5.819  11.757  0.00  0.00    +0.000 NA
ATOM      4  C   UNL     1      44.947   6.157  11.337  0.00  0.00    +0.000 A 
ATOM      5  N   UNL     1      44.104   5.234  10.730  0.00  0.00    +0.000 N 
ATOM      6  N   UNL     1      44.463   7.406  11.403  0.00  0.00    +0.000 NA
ATOM      7  C   UNL     1      45.263   8.376  11.871  0.00  0.00    +0.000 A 
ATOM      8  H   UNL     1      43.165   5.600  10.683  0.00  0.00    +0.000 HD
ENDROOT
BRANCH   5   9
ATOM      9  C   UNL     1      44.386   3.805  10.630  0.00  0.00    +0.000 C 
ATOM     10  C   UNL     1      43.458   2.828  11.324  0.00  0.00    +0.000 C 
ATOM     11  C   UNL     1      44.807   3.094  11.909  0.00  0.00    +0.000 C 
BRANCH   9  12
ATOM     12  C   UNL     1      45.147   3.431   9.363  0.00  0.00    +0.000 A 
ATOM     13  C   UNL     1      45.688   4.397   8.500  0.00  0.00    +0.000 A 
ATOM     14  C   UNL     1      46.511   4.037   7.425  0.00  0.00    +0.000 A 
ATOM     15  C   UNL     1      46.814   2.694   7.190  0.00  0.00    +0.000 A 
ATOM     16 CL   UNL     1      47.915   2.326   5.910  0.00  0.00    +0.000 Cl
ATOM     17  C   UNL     1      46.249   1.710   8.001  0.00  0.00    +0.000 A 
ATOM     18 CL   UNL     1      46.568   0.026   7.777  0.00  0.00    +0.000 Cl
ATOM     19  C   UNL     1      45.417   2.080   9.065  0.00  0.00    +0.000 A 
ENDBRANCH   9  12
ENDBRANCH   5   9
BRANCH   7  20
ATOM     20  N   UNL     1      44.685   9.644  11.900  0.00  0.00    +0.000 N 
ATOM     21  H   UNL     1      45.345  10.298  11.479  0.00  0.00    +0.000 HD
ATOM     22  H   UNL     1      44.402   9.946  12.826  0.00  0.00    +0.000 HD
ENDBRANCH   7  20
BRANCH   1  24
ATOM     23  N   UNL     1      48.110   9.982  13.200  0.00  0.00    +0.000 NA
ATOM     24  C   UNL     1      47.410   9.137  12.825  0.00  0.00    +0.000 C 
ENDBRANCH   1  24
TORSDOF 4
ENDMDL
MODEL 4
REMARK VINA RESULT:    -7.111      3.912      6.632
REMARK INTER + INTRA:          -8.551
REMARK INTER:                  -9.033
REMARK INTRA:                   0.481
REMARK UNBOUND:                 0.015
REMARK  Name = 
REMARK  4 active torsions:
REMARK  status: ('A' for Active; 'I' for Inactive)
REMARK    1  A    between atoms: C_2  and  C_3
REMARK    2  A    between atoms: N_7  and  C_8
REMARK    3  A    between atoms: C_8  and  C_9
REMARK    4  A    between atoms: C_20  and  N_21
REMARK                            x       y       z     vdW  Elec       q    Type
REMARK                         _______ _______ _______ _____ _____    ______ ____
ROOT
ATOM      1  C   UNL     1      46.782   2.443   7.143  0.00  0.00    +0.000 A 
ATOM      2  C   UNL     1      46.471   3.684   7.644  0.00  0.00    +0.000 A 
ATOM      3  N   UNL     1      45.806   3.877   8.804  0.00  0.00    +0.000 NA
ATOM      4  C   UNL     1      45.430   2.780   9.478  0.00  0.00    +0.000 A 
ATOM      5  N   UNL     1      44.822   2.861  10.724  0.00  0.00    +0.000 N 
ATOM      6  N   UNL     1      45.668   1.532   9.046  0.00  0.00    +0.000 NA
ATOM      7  C   UNL     1      46.356   1.373   7.904  0.00  0.00    +0.000 A 
ATOM      8  H   UNL     1      44.420   1.970  10.974  0.00  0.00    +0.000 HD
ENDROOT
BRANCH   5   9
ATOM      9  C   UNL     1      44.390   4.109  11.348  0.00  0.00    +0.000 C 
ATOM     10  C   UNL     1      42.947   4.242  11.792  0.00  0.00    +0.000 C 
ATOM     11  C   UNL     1      43.403   4.965  10.567  0.00  0.00    +0.000 C 
BRANCH   9  12
ATOM     12  C   UNL     1      45.521   4.848  12.055  0.00  0.00    +0.000 A 
ATOM     13  C   UNL     1      46.053   6.051  11.564  0.00  0.00    +0.000 A 
ATOM     14  C   UNL     1      46.984   6.794  12.302  0.00  0.00    +0.000 A 
ATOM     15  C   UNL     1      47.403   6.348  13.557  0.00  0.00    +0.000 A 
ATOM     16 CL   UNL     1      48.474   7.359  14.459  0.00  0.00    +0.000 Cl
ATOM     17  C   UNL     1      46.929   5.131  14.047  0.00  0.00    +0.000 A 
ATOM     18 CL   UNL     1      47.399   4.502  15.587  0.00  0.00    +0.000 Cl
ATOM     19  C   UNL     1      46.009   4.389  13.295  0.00  0.00    +0.000 A 
ENDBRANCH   9  12
ENDBRANCH   5   9
BRANCH   7  20
ATOM     20  N   UNL     1      46.564   0.047   7.532  0.00  0.00    +0.000 N 
ATOM     21  H   UNL     1      45.799  -0.228   6.915  0.00  0.00    +0.000 HD
ATOM     22  H   UNL     1      46.656  -0.591   8.315  0.00  0.00    +0.000 HD
ENDBRANCH   7  20
BRANCH   1  24
ATOM     23  N   UNL     1      48.144   2.184   4.964  0.00  0.00    +0.000 NA
ATOM     24  C   UNL     1      47.516   2.298   5.931  0.00  0.00    +0.000 C 
ENDBRANCH   1  24
TORSDOF 4
ENDMDL
MODEL 5
REMARK VINA RESULT:    -5.929      1.977      2.898
REMARK INTER + INTRA:          -7.127
REMARK INTER:                  -7.801
REMARK INTRA:                   0.674
REMARK UNBOUND:                 0.015
REMARK  Name = 
REMARK  4 active torsions:
REMARK  status: ('A' for Active; 'I' for Inactive)
REMARK    1  A    between atoms: C_2  and  C_3
REMARK    2  A    between atoms: N_7  and  C_8
REMARK    3  A    between atoms: C_8  and  C_9
REMARK    4  A    between atoms: C_20  and  N_21
REMARK                            x       y       z     vdW  Elec       q    Type
REMARK                         _______ _______ _______ _____ _____    ______ ____
ROOT
ATOM      1  C   UNL     1      48.079   7.073  14.078  0.00  0.00    +0.000 A 
ATOM      2  C   UNL     1      47.548   5.862  13.706  0.00  0.00    +0.000 A 
ATOM      3  N   UNL     1      46.367   5.727  13.063  0.00  0.00    +0.000 NA
ATOM      4  C   UNL     1      45.691   6.854  12.797  0.00  0.00    +0.000 A 
ATOM      5  N   UNL     1      44.512   6.841  12.061  0.00  0.00    +0.000 N 
ATOM      6  N   UNL     1      46.123   8.074  13.149  0.00  0.00    +0.000 NA
ATOM      7  C   UNL     1      47.313   8.177  13.762  0.00  0.00    +0.000 A 
ATOM      8  H   UNL     1      44.039   7.729  12.147  0.00  0.00    +0.000 HD
ENDROOT
BRANCH   5   9
ATOM      9  C   UNL     1      43.814   5.627  11.650  0.00  0.00    +0.000 C 
ATOM     10  C   UNL     1      42.338   5.490  11.966  0.00  0.00    +0.000 C 
ATOM     11  C   UNL     1      43.329   4.701  12.757  0.00  0.00    +0.000 C 
BRANCH   9  12
ATOM     12  C   UNL     1      44.441   4.959  10.431  0.00  0.00    +0.000 A 
ATOM     13  C   UNL     1      45.371   5.615   9.610  0.00  0.00    +0.000 A 
ATOM     14  C   UNL     1      46.050   4.940   8.588  0.00  0.00    +0.000 A 
ATOM     15  C   UNL     1      45.812   3.582   8.364  0.00  0.00    +0.000 A 
ATOM     16 CL   UNL     1      46.754   2.785   7.155  0.00  0.00    +0.000 Cl
ATOM     17  C   UNL     1      44.855   2.917   9.131  0.00  0.00    +0.000 A 
ATOM     18 CL   UNL     1      44.495   1.239   8.916  0.00  0.00    +0.000 Cl
ATOM     19  C   UNL     1      44.173   3.605  10.142  0.00  0.00    +0.000 A 
ENDBRANCH   9  12
ENDBRANCH   5   9
BRANCH   7  20
ATOM     20  N   UNL     1      47.688   9.479  14.088  0.00  0.00    +0.000 N 
ATOM     21  H   UNL     1      46.840  10.006  14.295  0.00  0.00    +0.000 HD
ATOM     22  H   UNL     1      48.245   9.937  13.374  0.00  0.00    +0.000 HD
ENDBRANCH   7  20
BRANCH   1  24
ATOM     23  N   UNL     1      50.363   7.254  15.269  0.00  0.00    +0.000 NA
ATOM     24  C   UNL     1      49.346   7.158  14.724  0.00  0.00    +0.000 C 
ENDBRANCH   1  24
TORSDOF 4
ENDMDL
MODEL 6
REMARK VINA RESULT:    -5.714      1.984      2.862
REMARK INTER + INTRA:          -6.868
REMARK INTER:                  -7.335
REMARK INTRA:                   0.466
REMARK UNBOUND:                 0.015
REMARK  Name = 
REMARK  4 active torsions:
REMARK  status: ('A' for Active; 'I' for Inactive)
REMARK    1  A    between atoms: C_2  and  C_3
REMARK    2  A    between atoms: N_7  and  C_8
REMARK    3  A    between atoms: C_8  and  C_9
REMARK    4  A    between atoms: C_20  and  N_21
REMARK                            x       y       z     vdW  Elec       q    Type
REMARK                         _______ _______ _______ _____ _____    ______ ____
ROOT
ATOM      1  C   UNL     1      48.525   4.760  16.694  0.00  0.00    +0.000 A 
ATOM      2  C   UNL     1      48.695   5.708  15.714  0.00  0.00    +0.000 A 
ATOM      3  N   UNL     1      47.834   5.887  14.688  0.00  0.00    +0.000 NA
ATOM      4  C   UNL     1      46.771   5.071  14.640  0.00  0.00    +0.000 A 
ATOM      5  N   UNL     1      45.777   5.224  13.682  0.00  0.00    +0.000 N 
ATOM      6  N   UNL     1      46.545   4.101  15.539  0.00  0.00    +0.000 NA
ATOM      7  C   UNL     1      47.403   3.967  16.562  0.00  0.00    +0.000 A 
ATOM      8  H   UNL     1      45.184   4.407  13.662  0.00  0.00    +0.000 HD
ENDROOT
BRANCH   5   9
ATOM      9  C   UNL     1      45.854   6.153  12.558  0.00  0.00    +0.000 C 
ATOM     10  C   UNL     1      46.704   7.400  12.698  0.00  0.00    +0.000 C 
ATOM     11  C   UNL     1      45.215   7.522  12.750  0.00  0.00    +0.000 C 
BRANCH   9  12
ATOM     12  C   UNL     1      45.628   5.480  11.209  0.00  0.00    +0.000 A 
ATOM     13  C   UNL     1      46.165   5.990  10.017  0.00  0.00    +0.000 A 
ATOM     14  C   UNL     1      46.076   5.280   8.812  0.00  0.00    +0.000 A 
ATOM     15  C   UNL     1      45.444   4.035   8.774  0.00  0.00    +0.000 A 
ATOM     16 CL   UNL     1      45.457   3.167   7.281  0.00  0.00    +0.000 Cl
ATOM     17  C   UNL     1      44.857   3.528   9.933  0.00  0.00    +0.000 A 
ATOM     18 CL   UNL     1      44.051   1.999   9.974  0.00  0.00    +0.000 Cl
ATOM     19  C   UNL     1      44.940   4.252  11.130  0.00  0.00    +0.000 A 
ENDBRANCH   9  12
ENDBRANCH   5   9
BRANCH   7  20
ATOM     20  N   UNL     1      47.091   2.941  17.452  0.00  0.00    +0.000 N 
ATOM     21  H   UNL     1      47.367   2.059  17.020  0.00  0.00    +0.000 HD
ATOM     22  H   UNL     1      46.118   2.926  17.738  0.00  0.00    +0.000 HD
ENDBRANCH   7  20
BRANCH   1  24
ATOM     23  N   UNL     1      50.195   4.578  18.656  0.00  0.00    +0.000 NA
ATOM     24  C   UNL     1      49.447   4.640  17.773  0.00  0.00    +0.000 C 
ENDBRANCH   1  24
TORSDOF 4
ENDMDL
MODEL 7
REMARK VINA RESULT:    -5.630      4.141      6.792
REMARK INTER + INTRA:          -6.767
REMARK INTER:                  -6.768
REMARK INTRA:                   0.002
REMARK UNBOUND:                 0.015
REMARK  Name = 
REMARK  4 active torsions:
REMARK  status: ('A' for Active; 'I' for Inactive)
REMARK    1  A    between atoms: C_2  and  C_3
REMARK    2  A    between atoms: N_7  and  C_8
REMARK    3  A    between atoms: C_8  and  C_9
REMARK    4  A    between atoms: C_20  and  N_21
REMARK                            x       y       z     vdW  Elec       q    Type
REMARK                         _______ _______ _______ _____ _____    ______ ____
ROOT
ATOM      1  C   UNL     1      44.364   4.366  12.225  0.00  0.00    +0.000 A 
ATOM      2  C   UNL     1      45.699   4.257  12.529  0.00  0.00    +0.000 A 
ATOM      3  N   UNL     1      46.463   5.297  12.928  0.00  0.00    +0.000 NA
ATOM      4  C   UNL     1      45.862   6.493  13.013  0.00  0.00    +0.000 A 
ATOM      5  N   UNL     1      46.528   7.611  13.499  0.00  0.00    +0.000 N 
ATOM      6  N   UNL     1      44.571   6.693  12.708  0.00  0.00    +0.000 NA
ATOM      7  C   UNL     1      43.832   5.635  12.341  0.00  0.00    +0.000 A 
ATOM      8  H   UNL     1      46.004   8.447  13.288  0.00  0.00    +0.000 HD
ENDROOT
BRANCH   5   9
ATOM      9  C   UNL     1      47.955   7.649  13.808  0.00  0.00    +0.000 C 
ATOM     10  C   UNL     1      48.536   6.574  14.706  0.00  0.00    +0.000 C 
ATOM     11  C   UNL     1      48.340   7.952  15.249  0.00  0.00    +0.000 C 
BRANCH   9  12
ATOM     12  C   UNL     1      48.785   8.328  12.725  0.00  0.00    +0.000 A 
ATOM     13  C   UNL     1      48.582   9.666  12.352  0.00  0.00    +0.000 A 
ATOM     14  C   UNL     1      49.450  10.318  11.466  0.00  0.00    +0.000 A 
ATOM     15  C   UNL     1      50.549   9.642  10.932  0.00  0.00    +0.000 A 
ATOM     16 CL   UNL     1      51.636  10.531   9.926  0.00  0.00    +0.000 Cl
ATOM     17  C   UNL     1      50.746   8.297  11.246  0.00  0.00    +0.000 A 
ATOM     18 CL   UNL     1      52.077   7.384  10.626  0.00  0.00    +0.000 Cl
ATOM     19  C   UNL     1      49.865   7.650  12.123  0.00  0.00    +0.000 A 
ENDBRANCH   9  12
ENDBRANCH   5   9
BRANCH   7  20
ATOM     20  N   UNL     1      42.502   5.929  12.048  0.00  0.00    +0.000 N 
ATOM     21  H   UNL     1      42.090   5.107  11.607  0.00  0.00    +0.000 HD
ATOM     22  H   UNL     1      42.381   6.757  11.476  0.00  0.00    +0.000 HD
ENDBRANCH   7  20
BRANCH   1  24
ATOM     23  N   UNL     1      43.002   2.291  11.509  0.00  0.00    +0.000 NA
ATOM     24  C   UNL     1      43.598   3.228  11.842  0.00  0.00    +0.000 C 
ENDBRANCH   1  24
TORSDOF 4
ENDMDL
MODEL 8
REMARK VINA RESULT:    -5.388      4.172      6.623
REMARK INTER + INTRA:          -6.476
REMARK INTER:                  -7.186
REMARK INTRA:                   0.710
REMARK UNBOUND:                 0.015
REMARK  Name = 
REMARK  4 active torsions:
REMARK  status: ('A' for Active; 'I' for Inactive)
REMARK    1  A    between atoms: C_2  and  C_3
REMARK    2  A    between atoms: N_7  and  C_8
REMARK    3  A    between atoms: C_8  and  C_9
REMARK    4  A    between atoms: C_20  and  N_21
REMARK                            x       y       z     vdW  Elec       q    Type
REMARK                         _______ _______ _______ _____ _____    ______ ____
ROOT
ATOM      1  C   UNL     1      44.786   3.633  10.410  0.00  0.00    +0.000 A 
ATOM      2  C   UNL     1      45.253   4.814   9.886  0.00  0.00    +0.000 A 
ATOM      3  N   UNL     1      45.446   5.933  10.618  0.00  0.00    +0.000 NA
ATOM      4  C   UNL     1      45.145   5.863  11.923  0.00  0.00    +0.000 A 
ATOM      5  N   UNL     1      45.389   6.924  12.786  0.00  0.00    +0.000 N 
ATOM      6  N   UNL     1      44.656   4.759  12.509  0.00  0.00    +0.000 NA
ATOM      7  C   UNL     1      44.503   3.656  11.761  0.00  0.00    +0.000 A 
ATOM      8  H   UNL     1      44.907   6.778  13.661  0.00  0.00    +0.000 HD
ENDROOT
BRANCH   5   9
ATOM      9  C   UNL     1      45.834   8.247  12.357  0.00  0.00    +0.000 C 
ATOM     10  C   UNL     1      44.981   9.452  12.702  0.00  0.00    +0.000 C 
ATOM     11  C   UNL     1      44.995   8.946  11.296  0.00  0.00    +0.000 C 
BRANCH   9  12
ATOM     12  C   UNL     1      47.347   8.350  12.204  0.00  0.00    +0.000 A 
ATOM     13  C   UNL     1      48.193   7.238  12.342  0.00  0.00    +0.000 A 
ATOM     14  C   UNL     1      49.561   7.319  12.049  0.00  0.00    +0.000 A 
ATOM     15  C   UNL     1      50.115   8.522  11.608  0.00  0.00    +0.000 A 
ATOM     16 CL   UNL     1      51.786   8.530  11.169  0.00  0.00    +0.000 Cl
ATOM     17  C   UNL     1      49.308   9.656  11.512  0.00  0.00    +0.000 A 
ATOM     18 CL   UNL     1      49.914  11.185  10.979  0.00  0.00    +0.000 Cl
ATOM     19  C   UNL     1      47.945   9.567  11.819  0.00  0.00    +0.000 A 
ENDBRANCH   9  12
ENDBRANCH   5   9
BRANCH   7  20
ATOM     20  N   UNL     1      43.997   2.554  12.448  0.00  0.00    +0.000 N 
ATOM     21  H   UNL     1      44.407   1.715  12.039  0.00  0.00    +0.000 HD
ATOM     22  H   UNL     1      42.983   2.505  12.457  0.00  0.00    +0.000 HD
ENDBRANCH   7  20
BRANCH   1  24
ATOM     23  N   UNL     1      44.518   1.509   8.966  0.00  0.00    +0.000 NA
ATOM     24  C   UNL     1      44.634   2.473   9.598  0.00  0.00    +0.000 C 
ENDBRANCH   1  24
TORSDOF 4
ENDMDL
MODEL 9
REMARK VINA RESULT:    -5.066      3.955      5.531
REMARK INTER + INTRA:          -6.087
REMARK INTER:                  -5.884
REMARK INTRA:                  -0.203
REMARK UNBOUND:                 0.015
REMARK  Name = 
REMARK  4 active torsions:
REMARK  status: ('A' for Active; 'I' for Inactive)
REMARK    1  A    between atoms: C_2  and  C_3
REMARK    2  A    between atoms: N_7  and  C_8
REMARK    3  A    between atoms: C_8  and  C_9
REMARK    4  A    between atoms: C_20  and  N_21
REMARK                            x       y       z     vdW  Elec       q    Type
REMARK                         _______ _______ _______ _____ _____    ______ ____
ROOT
ATOM      1  C   UNL     1      49.259   6.284  17.786  0.00  0.00    +0.000 A 
ATOM      2  C   UNL     1      49.240   5.606  16.592  0.00  0.00    +0.000 A 
ATOM      3  N   UNL     1      48.945   6.185  15.407  0.00  0.00    +0.000 NA
ATOM      4  C   UNL     1      48.645   7.492  15.430  0.00  0.00    +0.000 A 
ATOM      5  N   UNL     1      48.415   8.208  14.262  0.00  0.00    +0.000 N 
ATOM      6  N   UNL     1      48.613   8.222  16.555  0.00  0.00    +0.000 NA
ATOM      7  C   UNL     1      48.939   7.625  17.712  0.00  0.00    +0.000 A 
ATOM      8  H   UNL     1      47.998   9.102  14.478  0.00  0.00    +0.000 HD
ENDROOT
BRANCH   5   9
ATOM      9  C   UNL     1      48.315   7.607  12.935  0.00  0.00    +0.000 C 
ATOM     10  C   UNL     1      49.571   7.070  12.279  0.00  0.00    +0.000 C 
ATOM     11  C   UNL     1      48.982   8.352  11.788  0.00  0.00    +0.000 C 
BRANCH   9  12
ATOM     12  C   UNL     1      46.940   7.011  12.650  0.00  0.00    +0.000 A 
ATOM     13  C   UNL     1      45.854   7.795  12.233  0.00  0.00    +0.000 A 
ATOM     14  C   UNL     1      44.644   7.214  11.830  0.00  0.00    +0.000 A 
ATOM     15  C   UNL     1      44.496   5.825  11.834  0.00  0.00    +0.000 A 
ATOM     16 CL   UNL     1      43.016   5.168  11.231  0.00  0.00    +0.000 Cl
ATOM     17  C   UNL     1      45.542   5.024  12.291  0.00  0.00    +0.000 A 
ATOM     18 CL   UNL     1      45.441   3.298  12.333  0.00  0.00    +0.000 Cl
ATOM     19  C   UNL     1      46.742   5.616  12.704  0.00  0.00    +0.000 A 
ENDBRANCH   9  12
ENDBRANCH   5   9
BRANCH   7  20
ATOM     20  N   UNL     1      48.885   8.455  18.830  0.00  0.00    +0.000 N 
ATOM     21  H   UNL     1      49.776   8.377  19.319  0.00  0.00    +0.000 HD
ATOM     22  H   UNL     1      48.104   8.262  19.448  0.00  0.00    +0.000 HD
ENDBRANCH   7  20
BRANCH   1  24
ATOM     23  N   UNL     1      49.930   5.116  19.990  0.00  0.00    +0.000 NA
ATOM     24  C   UNL     1      49.612   5.629  19.002  0.00  0.00    +0.000 C 
ENDBRANCH   1  24
TORSDOF 4
ENDMDL
