MODEL 1
REMARK VINA RESULT:    -8.627      0.000      0.000
REMARK INTER + INTRA:         -13.303
REMARK INTER:                 -12.409
REMARK INTRA:                  -0.894
REMARK UNBOUND:                -0.894
REMARK  Name = 
REMARK  8 active torsions:
REMARK  status: ('A' for Active; 'I' for Inactive)
REMARK    1  A    between atoms: N_1  and  C_2
REMARK    2  A    between atoms: C_2  and  C_3
REMARK    3  A    between atoms: C_2  and  C_18
REMARK    4  A    between atoms: C_3  and  N_4
REMARK    5  A    between atoms: C_7  and  O_8
REMARK    6  A    between atoms: O_8  and  C_9
REMARK    7  A    between atoms: C_9  and  C_10
REMARK    8  A    between atoms: C_18  and  C_20
REMARK                            x       y       z     vdW  Elec       q    Type
REMARK                         _______ _______ _______ _____ _____    ______ ____
ROOT
ATOM      1  C   UNL     1      46.865   4.036  14.954  0.00  0.00    +0.000 C 
ENDROOT
BRANCH   1   2
ATOM      2  N   UNL     1      47.655   3.002  14.234  0.00  0.00    +0.000 NA
ATOM      3  H   UNL     1      47.165   2.111  14.317  0.00  0.00    +0.000 HD
ATOM      4  H   UNL     1      48.533   2.874  14.742  0.00  0.00    +0.000 HD
ENDBRANCH   1   2
BRANCH   1   5
ATOM      5  C   UNL     1      47.262   4.062  16.448  0.00  0.00    +0.000 C 
ATOM      6  O   UNL     1      46.489   3.605  17.293  0.00  0.00    +0.000 OA
BRANCH   5   7
ATOM      7  C   UNL     1      48.607   4.516  16.861  0.00  0.00    +0.000 A 
ATOM      8  C   UNL     1      48.844   5.870  17.058  0.00  0.00    +0.000 A 
ATOM      9  S   UNL     1      50.402   6.206  17.668  0.00  0.00    +0.000 S 
ATOM     10  C   UNL     1      50.825   4.559  17.643  0.00  0.00    +0.000 A 
ATOM     11  N   UNL     1      52.040   4.141  18.090  0.00  0.00    +0.000 NA
ATOM     12  C   UNL     1      52.221   2.863  18.024  0.00  0.00    +0.000 A 
ATOM     13  N   UNL     1      51.313   1.972  17.518  0.00  0.00    +0.000 N 
ATOM     14  C   UNL     1      50.160   2.377  16.893  0.00  0.00    +0.000 A 
ATOM     15  O   UNL     1      49.538   1.617  16.159  0.00  0.00    +0.000 OA
ATOM     16  C   UNL     1      49.818   3.772  17.109  0.00  0.00    +0.000 A 
ATOM     17  H   UNL     1      51.563   1.002  17.395  0.00  0.00    +0.000 HD
ENDBRANCH   5   7
ENDBRANCH   1   5
BRANCH   1  18
ATOM     18  C   UNL     1      47.024   5.458  14.354  0.00  0.00    +0.000 C 
BRANCH  18  19
ATOM     19  N   UNL     1      46.017   5.851  13.340  0.00  0.00    +0.000 NA
ATOM     20  C   UNL     1      46.594   6.006  11.994  0.00  0.00    +0.000 C 
ATOM     21  C   UNL     1      45.533   6.485  11.000  0.00  0.00    +0.000 C 
ATOM     22  C   UNL     1      44.372   5.493  10.929  0.00  0.00    +0.000 C 
ATOM     23  C   UNL     1      43.813   5.311  12.343  0.00  0.00    +0.000 C 
ATOM     24  C   UNL     1      44.908   4.883  13.322  0.00  0.00    +0.000 C 
BRANCH  22  25
ATOM     25  O   UNL     1      44.879   4.277  10.359  0.00  0.00    +0.000 OA
BRANCH  25  26
ATOM     26  C   UNL     1      44.489   4.068   9.000  0.00  0.00    +0.000 C 
BRANCH  26  27
ATOM     27  C   UNL     1      45.522   3.247   8.266  0.00  0.00    +0.000 A 
ATOM     28  C   UNL     1      46.357   3.839   7.322  0.00  0.00    +0.000 A 
ATOM     29  C   UNL     1      47.260   3.039   6.628  0.00  0.00    +0.000 A 
ATOM     30  C   UNL     1      47.311   1.676   6.897  0.00  0.00    +0.000 A 
ATOM     31  C   UNL     1      46.458   1.168   7.857  0.00  0.00    +0.000 A 
ATOM     32  N   UNL     1      45.564   1.917   8.540  0.00  0.00    +0.000 NA
ENDBRANCH  26  27
ENDBRANCH  25  26
ENDBRANCH  22  25
ENDBRANCH  18  19
ENDBRANCH   1  18
TORSDOF 8
ENDMDL
MODEL 2
REMARK VINA RESULT:    -8.127      2.133      2.832
REMARK INTER + INTRA:         -12.585
REMARK INTER:                 -11.517
REMARK INTRA:                  -1.068
REMARK UNBOUND:                -0.894
REMARK  Name = 
REMARK  8 active torsions:
REMARK  status: ('A' for Active; 'I' for Inactive)
REMARK    1  A    between atoms: N_1  and  C_2
REMARK    2  A    between atoms: C_2  and  C_3
REMARK    3  A    between atoms: C_2  and  C_18
REMARK    4  A    between atoms: C_3  and  N_4
REMARK    5  A    between atoms: C_7  and  O_8
REMARK    6  A    between atoms: O_8  and  C_9
REMARK    7  A    between atoms: C_9  and  C_10
REMARK    8  A    between atoms: C_18  and  C_20
REMARK                            x       y       z     vdW  Elec       q    Type
REMARK                         _______ _______ _______ _____ _____    ______ ____
ROOT
ATOM      1  C   UNL     1      46.603   6.930  13.081  0.00  0.00    +0.000 C 
ENDROOT
BRANCH   1   2
ATOM      2  N   UNL     1      46.457   8.362  13.455  0.00  0.00    +0.000 NA
ATOM      3  H   UNL     1      45.858   8.418  14.279  0.00  0.00    +0.000 HD
ATOM      4  H   UNL     1      45.931   8.825  12.710  0.00  0.00    +0.000 HD
ENDBRANCH   1   2
BRANCH   1   5
ATOM      5  C   UNL     1      47.986   6.404  13.530  0.00  0.00    +0.000 C 
ATOM      6  O   UNL     1      48.865   6.208  12.688  0.00  0.00    +0.000 OA
BRANCH   5   7
ATOM      7  C   UNL     1      48.302   6.249  14.965  0.00  0.00    +0.000 A 
ATOM      8  C   UNL     1      48.957   7.272  15.637  0.00  0.00    +0.000 A 
ATOM      9  S   UNL     1      49.116   6.992  17.313  0.00  0.00    +0.000 S 
ATOM     10  C   UNL     1      48.358   5.475  17.186  0.00  0.00    +0.000 A 
ATOM     11  N   UNL     1      48.132   4.709  18.287  0.00  0.00    +0.000 NA
ATOM     12  C   UNL     1      47.537   3.588  18.044  0.00  0.00    +0.000 A 
ATOM     13  N   UNL     1      47.183   3.148  16.796  0.00  0.00    +0.000 N 
ATOM     14  C   UNL     1      47.559   3.807  15.653  0.00  0.00    +0.000 A 
ATOM     15  O   UNL     1      47.538   3.246  14.564  0.00  0.00    +0.000 OA
ATOM     16  C   UNL     1      48.053   5.156  15.873  0.00  0.00    +0.000 A 
ATOM     17  H   UNL     1      46.821   2.215  16.668  0.00  0.00    +0.000 HD
ENDBRANCH   5   7
ENDBRANCH   1   5
BRANCH   1  18
ATOM     18  C   UNL     1      45.490   6.025  13.674  0.00  0.00    +0.000 C 
BRANCH  18  19
ATOM     19  N   UNL     1      44.548   5.430  12.697  0.00  0.00    +0.000 NA
ATOM     20  C   UNL     1      44.974   5.628  11.302  0.00  0.00    +0.000 C 
ATOM     21  C   UNL     1      43.934   5.063  10.331  0.00  0.00    +0.000 C 
ATOM     22  C   UNL     1      43.720   3.570  10.575  0.00  0.00    +0.000 C 
ATOM     23  C   UNL     1      43.321   3.379  12.041  0.00  0.00    +0.000 C 
ATOM     24  C   UNL     1      44.354   3.999  12.984  0.00  0.00    +0.000 C 
BRANCH  22  25
ATOM     25  O   UNL     1      44.941   2.898  10.228  0.00  0.00    +0.000 OA
BRANCH  25  26
ATOM     26  C   UNL     1      44.785   1.903   9.215  0.00  0.00    +0.000 C 
BRANCH  26  27
ATOM     27  C   UNL     1      45.831   2.067   8.138  0.00  0.00    +0.000 A 
ATOM     28  C   UNL     1      45.901   3.239   7.390  0.00  0.00    +0.000 A 
ATOM     29  C   UNL     1      46.844   3.331   6.371  0.00  0.00    +0.000 A 
ATOM     30  C   UNL     1      47.695   2.259   6.130  0.00  0.00    +0.000 A 
ATOM     31  C   UNL     1      47.571   1.135   6.925  0.00  0.00    +0.000 A 
ATOM     32  N   UNL     1      46.660   1.013   7.914  0.00  0.00    +0.000 NA
ENDBRANCH  26  27
ENDBRANCH  25  26
ENDBRANCH  22  25
ENDBRANCH  18  19
ENDBRANCH   1  18
TORSDOF 8
ENDMDL
MODEL 3
REMARK VINA RESULT:    -8.114      1.833      2.451
REMARK INTER + INTRA:         -12.566
REMARK INTER:                 -11.681
REMARK INTRA:                  -0.885
REMARK UNBOUND:                -0.894
REMARK  Name = 
REMARK  8 active torsions:
REMARK  status: ('A' for Active; 'I' for Inactive)
REMARK    1  A    between atoms: N_1  and  C_2
REMARK    2  A    between atoms: C_2  and  C_3
REMARK    3  A    between atoms: C_2  and  C_18
REMARK    4  A    between atoms: C_3  and  N_4
REMARK    5  A    between atoms: C_7  and  O_8
REMARK    6  A    between atoms: O_8  and  C_9
REMARK    7  A    between atoms: C_9  and  C_10
REMARK    8  A    between atoms: C_18  and  C_20
REMARK                            x       y       z     vdW  Elec       q    Type
REMARK                         _______ _______ _______ _____ _____    ______ ____
ROOT
ATOM      1  C   UNL     1      47.913   6.311  13.474  0.00  0.00    +0.000 C 
ENDROOT
BRANCH   1   2
ATOM      2  N   UNL     1      49.098   6.274  12.577  0.00  0.00    +0.000 NA
ATOM      3  H   UNL     1      48.936   5.566  11.862  0.00  0.00    +0.000 HD
ATOM      4  H   UNL     1      49.890   5.927  13.123  0.00  0.00    +0.000 HD
ENDBRANCH   1   2
BRANCH   1   5
ATOM      5  C   UNL     1      48.270   7.028  14.796  0.00  0.00    +0.000 C 
ATOM      6  O   UNL     1      47.841   8.164  15.008  0.00  0.00    +0.000 OA
BRANCH   5   7
ATOM      7  C   UNL     1      49.017   6.321  15.857  0.00  0.00    +0.000 A 
ATOM      8  C   UNL     1      50.317   6.707  16.156  0.00  0.00    +0.000 A 
ATOM      9  S   UNL     1      50.980   5.885  17.497  0.00  0.00    +0.000 S 
ATOM     10  C   UNL     1      49.569   4.955  17.691  0.00  0.00    +0.000 A 
ATOM     11  N   UNL     1      49.455   4.060  18.709  0.00  0.00    +0.000 NA
ATOM     12  C   UNL     1      48.326   3.432  18.743  0.00  0.00    +0.000 A 
ATOM     13  N   UNL     1      47.318   3.592  17.830  0.00  0.00    +0.000 N 
ATOM     14  C   UNL     1      47.472   4.345  16.694  0.00  0.00    +0.000 A 
ATOM     15  O   UNL     1      46.715   4.211  15.739  0.00  0.00    +0.000 OA
ATOM     16  C   UNL     1      48.635   5.216  16.703  0.00  0.00    +0.000 A 
ATOM     17  H   UNL     1      46.508   2.990  17.853  0.00  0.00    +0.000 HD
ENDBRANCH   5   7
ENDBRANCH   1   5
BRANCH   1  18
ATOM     18  C   UNL     1      46.679   6.999  12.831  0.00  0.00    +0.000 C 
BRANCH  18  19
ATOM     19  N   UNL     1      45.481   6.145  12.650  0.00  0.00    +0.000 NA
ATOM     20  C   UNL     1      44.688   6.520  11.467  0.00  0.00    +0.000 C 
ATOM     21  C   UNL     1      43.425   5.661  11.365  0.00  0.00    +0.000 C 
ATOM     22  C   UNL     1      43.786   4.178  11.269  0.00  0.00    +0.000 C 
ATOM     23  C   UNL     1      44.646   3.817  12.483  0.00  0.00    +0.000 C 
ATOM     24  C   UNL     1      45.872   4.727  12.586  0.00  0.00    +0.000 C 
BRANCH  22  25
ATOM     25  O   UNL     1      44.460   3.980  10.017  0.00  0.00    +0.000 OA
BRANCH  25  26
ATOM     26  C   UNL     1      44.538   2.612   9.613  0.00  0.00    +0.000 C 
BRANCH  26  27
ATOM     27  C   UNL     1      45.532   2.441   8.488  0.00  0.00    +0.000 A 
ATOM     28  C   UNL     1      45.760   3.473   7.582  0.00  0.00    +0.000 A 
ATOM     29  C   UNL     1      46.644   3.259   6.528  0.00  0.00    +0.000 A 
ATOM     30  C   UNL     1      47.279   2.028   6.409  0.00  0.00    +0.000 A 
ATOM     31  C   UNL     1      47.008   1.059   7.358  0.00  0.00    +0.000 A 
ATOM     32  N   UNL     1      46.148   1.234   8.385  0.00  0.00    +0.000 NA
ENDBRANCH  26  27
ENDBRANCH  25  26
ENDBRANCH  22  25
ENDBRANCH  18  19
ENDBRANCH   1  18
TORSDOF 8
ENDMDL
MODEL 4
REMARK VINA RESULT:    -7.595      1.544      2.177
REMARK INTER + INTRA:         -11.819
REMARK INTER:                 -11.129
REMARK INTRA:                  -0.690
REMARK UNBOUND:                -0.894
REMARK  Name = 
REMARK  8 active torsions:
REMARK  status: ('A' for Active; 'I' for Inactive)
REMARK    1  A    between atoms: N_1  and  C_2
REMARK    2  A    between atoms: C_2  and  C_3
REMARK    3  A    between atoms: C_2  and  C_18
REMARK    4  A    between atoms: C_3  and  N_4
REMARK    5  A    between atoms: C_7  and  O_8
REMARK    6  A    between atoms: O_8  and  C_9
REMARK    7  A    between atoms: C_9  and  C_10
REMARK    8  A    between atoms: C_18  and  C_20
REMARK                            x       y       z     vdW  Elec       q    Type
REMARK                         _______ _______ _______ _____ _____    ______ ____
ROOT
ATOM      1  C   UNL     1      47.098   4.089  15.329  0.00  0.00    +0.000 C 
ENDROOT
BRANCH   1   2
ATOM      2  N   UNL     1      47.819   2.876  14.862  0.00  0.00    +0.000 NA
ATOM      3  H   UNL     1      47.459   2.625  13.941  0.00  0.00    +0.000 HD
ATOM      4  H   UNL     1      47.554   2.102  15.474  0.00  0.00    +0.000 HD
ENDBRANCH   1   2
BRANCH   1   5
ATOM      5  C   UNL     1      47.559   4.464  16.757  0.00  0.00    +0.000 C 
ATOM      6  O   UNL     1      46.720   4.630  17.644  0.00  0.00    +0.000 OA
BRANCH   5   7
ATOM      7  C   UNL     1      48.997   4.504  17.096  0.00  0.00    +0.000 A 
ATOM      8  C   UNL     1      49.594   3.399  17.686  0.00  0.00    +0.000 A 
ATOM      9  S   UNL     1      51.282   3.559  17.880  0.00  0.00    +0.000 S 
ATOM     10  C   UNL     1      51.262   5.129  17.224  0.00  0.00    +0.000 A 
ATOM     11  N   UNL     1      52.412   5.835  17.061  0.00  0.00    +0.000 NA
ATOM     12  C   UNL     1      52.249   7.007  16.540  0.00  0.00    +0.000 A 
ATOM     13  N   UNL     1      51.037   7.549  16.205  0.00  0.00    +0.000 N 
ATOM     14  C   UNL     1      49.849   6.941  16.525  0.00  0.00    +0.000 A 
ATOM     15  O   UNL     1      48.798   7.571  16.532  0.00  0.00    +0.000 OA
ATOM     16  C   UNL     1      49.976   5.551  16.929  0.00  0.00    +0.000 A 
ATOM     17  H   UNL     1      50.973   8.510  15.906  0.00  0.00    +0.000 HD
ENDBRANCH   5   7
ENDBRANCH   1   5
BRANCH   1  18
ATOM     18  C   UNL     1      47.283   5.312  14.391  0.00  0.00    +0.000 C 
BRANCH  18  19
ATOM     19  N   UNL     1      46.127   5.646  13.525  0.00  0.00    +0.000 NA
ATOM     20  C   UNL     1      46.515   6.406  12.325  0.00  0.00    +0.000 C 
ATOM     21  C   UNL     1      45.282   6.791  11.504  0.00  0.00    +0.000 C 
ATOM     22  C   UNL     1      44.509   5.546  11.072  0.00  0.00    +0.000 C 
ATOM     23  C   UNL     1      44.153   4.746  12.328  0.00  0.00    +0.000 C 
ATOM     24  C   UNL     1      45.400   4.421  13.153  0.00  0.00    +0.000 C 
BRANCH  22  25
ATOM     25  O   UNL     1      45.342   4.819  10.154  0.00  0.00    +0.000 OA
BRANCH  25  26
ATOM     26  C   UNL     1      44.614   4.002   9.236  0.00  0.00    +0.000 C 
BRANCH  26  27
ATOM     27  C   UNL     1      45.554   3.143   8.423  0.00  0.00    +0.000 A 
ATOM     28  C   UNL     1      46.298   3.695   7.384  0.00  0.00    +0.000 A 
ATOM     29  C   UNL     1      47.112   2.860   6.624  0.00  0.00    +0.000 A 
ATOM     30  C   UNL     1      47.168   1.504   6.922  0.00  0.00    +0.000 A 
ATOM     31  C   UNL     1      46.408   1.036   7.978  0.00  0.00    +0.000 A 
ATOM     32  N   UNL     1      45.601   1.819   8.727  0.00  0.00    +0.000 NA
ENDBRANCH  26  27
ENDBRANCH  25  26
ENDBRANCH  22  25
ENDBRANCH  18  19
ENDBRANCH   1  18
TORSDOF 8
ENDMDL
MODEL 5
REMARK VINA RESULT:    -7.270      2.919      3.988
REMARK INTER + INTRA:         -11.352
REMARK INTER:                 -10.149
REMARK INTRA:                  -1.202
REMARK UNBOUND:                -0.894
REMARK  Name = 
REMARK  8 active torsions:
REMARK  status: ('A' for Active; 'I' for Inactive)
REMARK    1  A    between atoms: N_1  and  C_2
REMARK    2  A    between atoms: C_2  and  C_3
REMARK    3  A    between atoms: C_2  and  C_18
REMARK    4  A    between atoms: C_3  and  N_4
REMARK    5  A    between atoms: C_7  and  O_8
REMARK    6  A    between atoms: O_8  and  C_9
REMARK    7  A    between atoms: C_9  and  C_10
REMARK    8  A    between atoms: C_18  and  C_20
REMARK                            x       y       z     vdW  Elec       q    Type
REMARK                         _______ _______ _______ _____ _____    ______ ____
ROOT
ATOM      1  C   UNL     1      48.356   7.741  13.809  0.00  0.00    +0.000 C 
ENDROOT
BRANCH   1   2
ATOM      2  N   UNL     1      47.162   8.463  14.323  0.00  0.00    +0.000 NA
ATOM      3  H   UNL     1      46.984   8.147  15.276  0.00  0.00    +0.000 HD
ATOM      4  H   UNL     1      46.354   8.150  13.781  0.00  0.00    +0.000 HD
ENDBRANCH   1   2
BRANCH   1   5
ATOM      5  C   UNL     1      49.328   7.429  14.971  0.00  0.00    +0.000 C 
ATOM      6  O   UNL     1      50.535   7.640  14.829  0.00  0.00    +0.000 OA
BRANCH   5   7
ATOM      7  C   UNL     1      48.813   6.998  16.287  0.00  0.00    +0.000 A 
ATOM      8  C   UNL     1      48.581   5.651  16.526  0.00  0.00    +0.000 A 
ATOM      9  S   UNL     1      48.126   5.313  18.135  0.00  0.00    +0.000 S 
ATOM     10  C   UNL     1      48.178   6.961  18.552  0.00  0.00    +0.000 A 
ATOM     11  N   UNL     1      47.929   7.370  19.825  0.00  0.00    +0.000 NA
ATOM     12  C   UNL     1      48.015   8.648  20.001  0.00  0.00    +0.000 A 
ATOM     13  N   UNL     1      48.291   9.554  19.012  0.00  0.00    +0.000 N 
ATOM     14  C   UNL     1      48.365   9.194  17.690  0.00  0.00    +0.000 A 
ATOM     15  O   UNL     1      48.271  10.033  16.800  0.00  0.00    +0.000 OA
ATOM     16  C   UNL     1      48.468   7.764  17.461  0.00  0.00    +0.000 A 
ATOM     17  H   UNL     1      48.234  10.544  19.196  0.00  0.00    +0.000 HD
ENDBRANCH   5   7
ENDBRANCH   1   5
BRANCH   1  18
ATOM     18  C   UNL     1      48.004   6.425  13.065  0.00  0.00    +0.000 C 
BRANCH  18  19
ATOM     19  N   UNL     1      46.565   6.200  12.790  0.00  0.00    +0.000 NA
ATOM     20  C   UNL     1      46.250   6.221  11.352  0.00  0.00    +0.000 C 
ATOM     21  C   UNL     1      44.745   6.059  11.124  0.00  0.00    +0.000 C 
ATOM     22  C   UNL     1      44.245   4.743  11.721  0.00  0.00    +0.000 C 
ATOM     23  C   UNL     1      44.621   4.720  13.205  0.00  0.00    +0.000 C 
ATOM     24  C   UNL     1      46.123   4.936  13.402  0.00  0.00    +0.000 C 
BRANCH  22  25
ATOM     25  O   UNL     1      44.842   3.676  10.968  0.00  0.00    +0.000 OA
BRANCH  25  26
ATOM     26  C   UNL     1      44.246   3.469   9.686  0.00  0.00    +0.000 C 
BRANCH  26  27
ATOM     27  C   UNL     1      45.291   3.084   8.666  0.00  0.00    +0.000 A 
ATOM     28  C   UNL     1      45.744   1.771   8.576  0.00  0.00    +0.000 A 
ATOM     29  C   UNL     1      46.746   1.466   7.659  0.00  0.00    +0.000 A 
ATOM     30  C   UNL     1      47.264   2.475   6.854  0.00  0.00    +0.000 A 
ATOM     31  C   UNL     1      46.751   3.751   6.995  0.00  0.00    +0.000 A 
ATOM     32  N   UNL     1      45.787   4.078   7.882  0.00  0.00    +0.000 NA
ENDBRANCH  26  27
ENDBRANCH  25  26
ENDBRANCH  22  25
ENDBRANCH  18  19
ENDBRANCH   1  18
TORSDOF 8
ENDMDL
MODEL 6
REMARK VINA RESULT:    -7.255      3.542      4.164
REMARK INTER + INTRA:         -11.329
REMARK INTER:                 -10.270
REMARK INTRA:                  -1.060
REMARK UNBOUND:                -0.894
REMARK  Name = 
REMARK  8 active torsions:
REMARK  status: ('A' for Active; 'I' for Inactive)
REMARK    1  A    between atoms: N_1  and  C_2
REMARK    2  A    between atoms: C_2  and  C_3
REMARK    3  A    between atoms: C_2  and  C_18
REMARK    4  A    between atoms: C_3  and  N_4
REMARK    5  A    between atoms: C_7  and  O_8
REMARK    6  A    between atoms: O_8  and  C_9
REMARK    7  A    between atoms: C_9  and  C_10
REMARK    8  A    between atoms: C_18  and  C_20
REMARK                            x       y       z     vdW  Elec       q    Type
REMARK                         _______ _______ _______ _____ _____    ______ ____
ROOT
ATOM      1  C   UNL     1      46.940   7.148  12.423  0.00  0.00    +0.000 C 
ENDROOT
BRANCH   1   2
ATOM      2  N   UNL     1      47.319   8.515  11.976  0.00  0.00    +0.000 NA
ATOM      3  H   UNL     1      46.512   9.126  12.098  0.00  0.00    +0.000 HD
ATOM      4  H   UNL     1      47.478   8.478  10.967  0.00  0.00    +0.000 HD
ENDBRANCH   1   2
BRANCH   1   5
ATOM      5  C   UNL     1      48.065   6.545  13.296  0.00  0.00    +0.000 C 
ATOM      6  O   UNL     1      48.176   5.320  13.385  0.00  0.00    +0.000 OA
BRANCH   5   7
ATOM      7  C   UNL     1      49.078   7.417  13.925  0.00  0.00    +0.000 A 
ATOM      8  C   UNL     1      48.878   7.882  15.218  0.00  0.00    +0.000 A 
ATOM      9  S   UNL     1      50.206   8.754  15.841  0.00  0.00    +0.000 S 
ATOM     10  C   UNL     1      51.071   8.580  14.387  0.00  0.00    +0.000 A 
ATOM     11  N   UNL     1      52.332   9.071  14.259  0.00  0.00    +0.000 NA
ATOM     12  C   UNL     1      52.874   8.856  13.106  0.00  0.00    +0.000 A 
ATOM     13  N   UNL     1      52.254   8.228  12.058  0.00  0.00    +0.000 N 
ATOM     14  C   UNL     1      50.925   7.886  12.092  0.00  0.00    +0.000 A 
ATOM     15  O   UNL     1      50.308   7.647  11.061  0.00  0.00    +0.000 OA
ATOM     16  C   UNL     1      50.328   7.928  13.416  0.00  0.00    +0.000 A 
ATOM     17  H   UNL     1      52.695   8.191  11.151  0.00  0.00    +0.000 HD
ENDBRANCH   5   7
ENDBRANCH   1   5
BRANCH   1  18
ATOM     18  C   UNL     1      45.601   7.109  13.207  0.00  0.00    +0.000 C 
BRANCH  18  19
ATOM     19  N   UNL     1      44.576   6.171  12.693  0.00  0.00    +0.000 NA
ATOM     20  C   UNL     1      44.367   6.294  11.241  0.00  0.00    +0.000 C 
ATOM     21  C   UNL     1      43.248   5.361  10.771  0.00  0.00    +0.000 C 
ATOM     22  C   UNL     1      43.583   3.906  11.101  0.00  0.00    +0.000 C 
ATOM     23  C   UNL     1      43.841   3.805  12.606  0.00  0.00    +0.000 C 
ATOM     24  C   UNL     1      44.927   4.787  13.052  0.00  0.00    +0.000 C 
BRANCH  22  25
ATOM     25  O   UNL     1      44.721   3.536  10.305  0.00  0.00    +0.000 OA
BRANCH  25  26
ATOM     26  C   UNL     1      44.521   2.356   9.525  0.00  0.00    +0.000 C 
BRANCH  26  27
ATOM     27  C   UNL     1      45.563   2.251   8.437  0.00  0.00    +0.000 A 
ATOM     28  C   UNL     1      45.840   3.339   7.613  0.00  0.00    +0.000 A 
ATOM     29  C   UNL     1      46.768   3.186   6.587  0.00  0.00    +0.000 A 
ATOM     30  C   UNL     1      47.399   1.959   6.415  0.00  0.00    +0.000 A 
ATOM     31  C   UNL     1      47.079   0.933   7.283  0.00  0.00    +0.000 A 
ATOM     32  N   UNL     1      46.176   1.047   8.281  0.00  0.00    +0.000 NA
ENDBRANCH  26  27
ENDBRANCH  25  26
ENDBRANCH  22  25
ENDBRANCH  18  19
ENDBRANCH   1  18
TORSDOF 8
ENDMDL
MODEL 7
REMARK VINA RESULT:    -6.978      4.480      5.703
REMARK INTER + INTRA:         -10.932
REMARK INTER:                 -10.243
REMARK INTRA:                  -0.688
REMARK UNBOUND:                -0.894
REMARK  Name = 
REMARK  8 active torsions:
REMARK  status: ('A' for Active; 'I' for Inactive)
REMARK    1  A    between atoms: N_1  and  C_2
REMARK    2  A    between atoms: C_2  and  C_3
REMARK    3  A    between atoms: C_2  and  C_18
REMARK    4  A    between atoms: C_3  and  N_4
REMARK    5  A    between atoms: C_7  and  O_8
REMARK    6  A    between atoms: O_8  and  C_9
REMARK    7  A    between atoms: C_9  and  C_10
REMARK    8  A    between atoms: C_18  and  C_20
REMARK                            x       y       z     vdW  Elec       q    Type
REMARK                         _______ _______ _______ _____ _____    ______ ____
ROOT
ATOM      1  C   UNL     1      47.091   7.137  13.131  0.00  0.00    +0.000 C 
ENDROOT
BRANCH   1   2
ATOM      2  N   UNL     1      48.225   6.406  12.506  0.00  0.00    +0.000 NA
ATOM      3  H   UNL     1      47.903   5.471  12.255  0.00  0.00    +0.000 HD
ATOM      4  H   UNL     1      48.935   6.261  13.227  0.00  0.00    +0.000 HD
ENDBRANCH   1   2
BRANCH   1   5
ATOM      5  C   UNL     1      47.525   8.575  13.499  0.00  0.00    +0.000 C 
ATOM      6  O   UNL     1      47.665   8.884  14.685  0.00  0.00    +0.000 OA
BRANCH   5   7
ATOM      7  C   UNL     1      47.892   9.543  12.445  0.00  0.00    +0.000 A 
ATOM      8  C   UNL     1      46.914  10.358  11.891  0.00  0.00    +0.000 A 
ATOM      9  S   UNL     1      47.530  11.512  10.795  0.00  0.00    +0.000 S 
ATOM     10  C   UNL     1      49.116  10.928  10.990  0.00  0.00    +0.000 A 
ATOM     11  N   UNL     1      50.161  11.516  10.349  0.00  0.00    +0.000 NA
ATOM     12  C   UNL     1      51.310  10.977  10.598  0.00  0.00    +0.000 A 
ATOM     13  N   UNL     1      51.500   9.882  11.399  0.00  0.00    +0.000 N 
ATOM     14  C   UNL     1      50.452   9.158  11.910  0.00  0.00    +0.000 A 
ATOM     15  O   UNL     1      50.616   8.017  12.325  0.00  0.00    +0.000 OA
ATOM     16  C   UNL     1      49.163   9.823  11.823  0.00  0.00    +0.000 A 
ATOM     17  H   UNL     1      52.408   9.448  11.462  0.00  0.00    +0.000 HD
ENDBRANCH   5   7
ENDBRANCH   1   5
BRANCH   1  18
ATOM     18  C   UNL     1      45.828   7.195  12.231  0.00  0.00    +0.000 C 
BRANCH  18  19
ATOM     19  N   UNL     1      44.882   6.062  12.365  0.00  0.00    +0.000 NA
ATOM     20  C   UNL     1      43.759   6.142  11.417  0.00  0.00    +0.000 C 
ATOM     21  C   UNL     1      42.772   4.994  11.646  0.00  0.00    +0.000 C 
ATOM     22  C   UNL     1      43.467   3.642  11.477  0.00  0.00    +0.000 C 
ATOM     23  C   UNL     1      44.657   3.595  12.439  0.00  0.00    +0.000 C 
ATOM     24  C   UNL     1      45.596   4.783  12.220  0.00  0.00    +0.000 C 
BRANCH  22  25
ATOM     25  O   UNL     1      43.847   3.523  10.097  0.00  0.00    +0.000 OA
BRANCH  25  26
ATOM     26  C   UNL     1      44.342   2.231   9.744  0.00  0.00    +0.000 C 
BRANCH  26  27
ATOM     27  C   UNL     1      45.385   2.337   8.656  0.00  0.00    +0.000 A 
ATOM     28  C   UNL     1      45.580   3.535   7.975  0.00  0.00    +0.000 A 
ATOM     29  C   UNL     1      46.513   3.578   6.943  0.00  0.00    +0.000 A 
ATOM     30  C   UNL     1      47.229   2.430   6.623  0.00  0.00    +0.000 A 
ATOM     31  C   UNL     1      46.986   1.283   7.355  0.00  0.00    +0.000 A 
ATOM     32  N   UNL     1      46.081   1.208   8.354  0.00  0.00    +0.000 NA
ENDBRANCH  26  27
ENDBRANCH  25  26
ENDBRANCH  22  25
ENDBRANCH  18  19
ENDBRANCH   1  18
TORSDOF 8
ENDMDL
MODEL 8
REMARK VINA RESULT:    -6.914      2.980      8.593
REMARK INTER + INTRA:         -10.839
REMARK INTER:                  -9.920
REMARK INTRA:                  -0.918
REMARK UNBOUND:                -0.894
REMARK  Name = 
REMARK  8 active torsions:
REMARK  status: ('A' for Active; 'I' for Inactive)
REMARK    1  A    between atoms: N_1  and  C_2
REMARK    2  A    between atoms: C_2  and  C_3
REMARK    3  A    between atoms: C_2  and  C_18
REMARK    4  A    between atoms: C_3  and  N_4
REMARK    5  A    between atoms: C_7  and  O_8
REMARK    6  A    between atoms: O_8  and  C_9
REMARK    7  A    between atoms: C_9  and  C_10
REMARK    8  A    between atoms: C_18  and  C_20
REMARK                            x       y       z     vdW  Elec       q    Type
REMARK                         _______ _______ _______ _____ _____    ______ ____
ROOT
ATOM      1  C   UNL     1      46.953   7.298  12.538  0.00  0.00    +0.000 C 
ENDROOT
BRANCH   1   2
ATOM      2  N   UNL     1      48.023   7.928  11.722  0.00  0.00    +0.000 NA
ATOM      3  H   UNL     1      48.096   7.418  10.841  0.00  0.00    +0.000 HD
ATOM      4  H   UNL     1      48.913   7.767  12.199  0.00  0.00    +0.000 HD
ENDBRANCH   1   2
BRANCH   1   5
ATOM      5  C   UNL     1      45.636   7.234  11.729  0.00  0.00    +0.000 C 
ATOM      6  O   UNL     1      44.950   8.251  11.602  0.00  0.00    +0.000 OA
BRANCH   5   7
ATOM      7  C   UNL     1      45.255   6.002  11.008  0.00  0.00    +0.000 A 
ATOM      8  C   UNL     1      45.668   5.819   9.696  0.00  0.00    +0.000 A 
ATOM      9  S   UNL     1      45.266   4.287   9.063  0.00  0.00    +0.000 S 
ATOM     10  C   UNL     1      44.485   3.837  10.506  0.00  0.00    +0.000 A 
ATOM     11  N   UNL     1      43.943   2.599  10.652  0.00  0.00    +0.000 NA
ATOM     12  C   UNL     1      43.393   2.389  11.803  0.00  0.00    +0.000 A 
ATOM     13  N   UNL     1      43.306   3.319  12.805  0.00  0.00    +0.000 N 
ATOM     14  C   UNL     1      43.677   4.628  12.624  0.00  0.00    +0.000 A 
ATOM     15  O   UNL     1      43.288   5.506  13.385  0.00  0.00    +0.000 OA
ATOM     16  C   UNL     1      44.470   4.868  11.430  0.00  0.00    +0.000 A 
ATOM     17  H   UNL     1      42.767   3.125  13.636  0.00  0.00    +0.000 HD
ENDBRANCH   5   7
ENDBRANCH   1   5
BRANCH   1  18
ATOM     18  C   UNL     1      47.320   5.874  13.037  0.00  0.00    +0.000 C 
BRANCH  18  19
ATOM     19  N   UNL     1      47.350   5.689  14.507  0.00  0.00    +0.000 NA
ATOM     20  C   UNL     1      47.226   4.278  14.906  0.00  0.00    +0.000 C 
ATOM     21  C   UNL     1      47.187   4.146  16.431  0.00  0.00    +0.000 C 
ATOM     22  C   UNL     1      48.454   4.728  17.057  0.00  0.00    +0.000 C 
ATOM     23  C   UNL     1      48.590   6.181  16.596  0.00  0.00    +0.000 C 
ATOM     24  C   UNL     1      48.574   6.283  15.069  0.00  0.00    +0.000 C 
BRANCH  22  25
ATOM     25  O   UNL     1      49.554   3.898  16.651  0.00  0.00    +0.000 OA
BRANCH  25  26
ATOM     26  C   UNL     1      49.650   2.670  17.373  0.00  0.00    +0.000 C 
BRANCH  26  27
ATOM     27  C   UNL     1      51.095   2.303  17.618  0.00  0.00    +0.000 A 
ATOM     28  C   UNL     1      52.024   3.279  17.969  0.00  0.00    +0.000 A 
ATOM     29  C   UNL     1      53.356   2.910  18.133  0.00  0.00    +0.000 A 
ATOM     30  C   UNL     1      53.724   1.582  17.950  0.00  0.00    +0.000 A 
ATOM     31  C   UNL     1      52.740   0.672  17.615  0.00  0.00    +0.000 A 
ATOM     32  N   UNL     1      51.441   1.001  17.439  0.00  0.00    +0.000 NA
ENDBRANCH  26  27
ENDBRANCH  25  26
ENDBRANCH  22  25
ENDBRANCH  18  19
ENDBRANCH   1  18
TORSDOF 8
ENDMDL
MODEL 9
REMARK VINA RESULT:    -6.799      2.214      3.118
REMARK INTER + INTRA:         -10.673
REMARK INTER:                 -10.650
REMARK INTRA:                  -0.023
REMARK UNBOUND:                -0.894
REMARK  Name = 
REMARK  8 active torsions:
REMARK  status: ('A' for Active; 'I' for Inactive)
REMARK    1  A    between atoms: N_1  and  C_2
REMARK    2  A    between atoms: C_2  and  C_3
REMARK    3  A    between atoms: C_2  and  C_18
REMARK    4  A    between atoms: C_3  and  N_4
REMARK    5  A    between atoms: C_7  and  O_8
REMARK    6  A    between atoms: O_8  and  C_9
REMARK    7  A    between atoms: C_9  and  C_10
REMARK    8  A    between atoms: C_18  and  C_20
REMARK                            x       y       z     vdW  Elec       q    Type
REMARK                         _______ _______ _______ _____ _____    ______ ____
ROOT
ATOM      1  C   UNL     1      47.484   4.623  15.379  0.00  0.00    +0.000 C 
ENDROOT
BRANCH   1   2
ATOM      2  N   UNL     1      47.521   3.227  14.870  0.00  0.00    +0.000 NA
ATOM      3  H   UNL     1      46.967   2.643  15.496  0.00  0.00    +0.000 HD
ATOM      4  H   UNL     1      48.481   2.888  14.965  0.00  0.00    +0.000 HD
ENDBRANCH   1   2
BRANCH   1   5
ATOM      5  C   UNL     1      48.601   4.835  16.428  0.00  0.00    +0.000 C 
ATOM      6  O   UNL     1      49.197   3.859  16.889  0.00  0.00    +0.000 OA
BRANCH   5   7
ATOM      7  C   UNL     1      49.042   6.198  16.792  0.00  0.00    +0.000 A 
ATOM      8  C   UNL     1      50.112   6.774  16.122  0.00  0.00    +0.000 A 
ATOM      9  S   UNL     1      50.398   8.397  16.565  0.00  0.00    +0.000 S 
ATOM     10  C   UNL     1      49.130   8.367  17.699  0.00  0.00    +0.000 A 
ATOM     11  N   UNL     1      48.803   9.476  18.414  0.00  0.00    +0.000 NA
ATOM     12  C   UNL     1      47.814   9.313  19.229  0.00  0.00    +0.000 A 
ATOM     13  N   UNL     1      47.148   8.130  19.419  0.00  0.00    +0.000 N 
ATOM     14  C   UNL     1      47.570   6.954  18.854  0.00  0.00    +0.000 A 
ATOM     15  O   UNL     1      47.191   5.872  19.288  0.00  0.00    +0.000 OA
ATOM     16  C   UNL     1      48.546   7.114  17.790  0.00  0.00    +0.000 A 
ATOM     17  H   UNL     1      46.458   8.045  20.151  0.00  0.00    +0.000 HD
ENDBRANCH   5   7
ENDBRANCH   1   5
BRANCH   1  18
ATOM     18  C   UNL     1      47.620   5.689  14.260  0.00  0.00    +0.000 C 
BRANCH  18  19
ATOM     19  N   UNL     1      46.419   5.903  13.417  0.00  0.00    +0.000 NA
ATOM     20  C   UNL     1      46.753   6.219  12.019  0.00  0.00    +0.000 C 
ATOM     21  C   UNL     1      45.486   6.505  11.209  0.00  0.00    +0.000 C 
ATOM     22  C   UNL     1      44.546   5.300  11.233  0.00  0.00    +0.000 C 
ATOM     23  C   UNL     1      44.245   4.958  12.694  0.00  0.00    +0.000 C 
ATOM     24  C   UNL     1      45.533   4.730  13.488  0.00  0.00    +0.000 C 
BRANCH  22  25
ATOM     25  O   UNL     1      45.196   4.233  10.523  0.00  0.00    +0.000 OA
BRANCH  25  26
ATOM     26  C   UNL     1      44.600   3.931   9.261  0.00  0.00    +0.000 C 
BRANCH  26  27
ATOM     27  C   UNL     1      45.523   3.078   8.423  0.00  0.00    +0.000 A 
ATOM     28  C   UNL     1      46.250   3.638   7.376  0.00  0.00    +0.000 A 
ATOM     29  C   UNL     1      47.048   2.809   6.594  0.00  0.00    +0.000 A 
ATOM     30  C   UNL     1      47.106   1.449   6.879  0.00  0.00    +0.000 A 
ATOM     31  C   UNL     1      46.364   0.974   7.943  0.00  0.00    +0.000 A 
ATOM     32  N   UNL     1      45.573   1.751   8.714  0.00  0.00    +0.000 NA
ENDBRANCH  26  27
ENDBRANCH  25  26
ENDBRANCH  22  25
ENDBRANCH  18  19
ENDBRANCH   1  18
TORSDOF 8
ENDMDL
