MODEL 1
REMARK VINA RESULT:    -8.264      0.000      0.000
REMARK INTER + INTRA:         -13.096
REMARK INTER:                 -11.646
REMARK INTRA:                  -1.450
REMARK UNBOUND:                -1.450
REMARK  Name = 
REMARK  7 active torsions:
REMARK  status: ('A' for Active; 'I' for Inactive)
REMARK    1  A    between atoms: C_2  and  C_20
REMARK    2  A    between atoms: N_3  and  C_4
REMARK    3  A    between atoms: C_4  and  C_5
REMARK    4  A    between atoms: C_8  and  C_9
REMARK    5  A    between atoms: C_9  and  O_10
REMARK    6  A    between atoms: O_10  and  C_11
REMARK    7  A    between atoms: C_11  and  C_12
REMARK                            x       y       z     vdW  Elec       q    Type
REMARK                         _______ _______ _______ _____ _____    ______ ____
ROOT
ATOM      1  C   UNL     1      47.935   7.335  13.231  0.00  0.00    +0.000 C 
ENDROOT
BRANCH   1   2
ATOM      2  C   UNL     1      47.034   6.269  12.564  0.00  0.00    +0.000 C 
ATOM      3  C   UNL     1      46.644   6.719  11.155  0.00  0.00    +0.000 C 
ATOM      4  C   UNL     1      45.746   5.692  10.471  0.00  0.00    +0.000 C 
ATOM      5  C   UNL     1      44.539   5.335  11.348  0.00  0.00    +0.000 C 
ATOM      6  C   UNL     1      44.985   4.966  12.775  0.00  0.00    +0.000 C 
ATOM      7  N   UNL     1      45.827   6.011  13.360  0.00  0.00    +0.000 NA
ATOM      8  H   UNL     1      46.071   5.789  14.326  0.00  0.00    +0.000 HD
BRANCH   5   9
ATOM      9  C   UNL     1      43.734   4.199  10.701  0.00  0.00    +0.000 C 
BRANCH   9  10
ATOM     10  O   UNL     1      44.337   3.841   9.461  0.00  0.00    +0.000 OA
BRANCH  10  11
ATOM     11  C   UNL     1      44.538   2.429   9.346  0.00  0.00    +0.000 C 
BRANCH  11  12
ATOM     12  C   UNL     1      45.692   2.137   8.415  0.00  0.00    +0.000 A 
ATOM     13  C   UNL     1      46.335   3.161   7.740  0.00  0.00    +0.000 A 
ATOM     14  C   UNL     1      47.381   2.798   6.922  0.00  0.00    +0.000 A 
ATOM     15  N   UNL     1      47.800   1.529   6.774  0.00  0.00    +0.000 NA
ATOM     16  C   UNL     1      47.126   0.613   7.484  0.00  0.00    +0.000 A 
ATOM     17  N   UNL     1      46.090   0.848   8.305  0.00  0.00    +0.000 NA
ENDBRANCH  11  12
ENDBRANCH  10  11
ENDBRANCH   9  10
ENDBRANCH   5   9
ENDBRANCH   1   2
BRANCH   1  20
ATOM     18  O   UNL     1      50.158   6.903  14.979  0.00  0.00    +0.000 OA
ATOM     19  C   UNL     1      49.022   6.972  15.424  0.00  0.00    +0.000 C 
ATOM     20  N   UNL     1      47.897   7.237  14.677  0.00  0.00    +0.000 N 
ATOM     21  H   UNL     1      47.008   6.969  15.079  0.00  0.00    +0.000 HD
BRANCH  19  22
ATOM     22  C   UNL     1      48.661   6.557  16.779  0.00  0.00    +0.000 A 
ATOM     23  C   UNL     1      48.772   7.396  17.873  0.00  0.00    +0.000 A 
ATOM     24  S   UNL     1      48.848   6.505  19.337  0.00  0.00    +0.000 S 
ATOM     25  C   UNL     1      48.581   5.029  18.522  0.00  0.00    +0.000 A 
ATOM     26  N   UNL     1      48.673   3.823  19.138  0.00  0.00    +0.000 NA
ATOM     27  C   UNL     1      48.368   2.817  18.386  0.00  0.00    +0.000 A 
ATOM     28  N   UNL     1      47.930   2.909  17.087  0.00  0.00    +0.000 N 
ATOM     29  C   UNL     1      47.819   4.105  16.422  0.00  0.00    +0.000 A 
ATOM     30  O   UNL     1      47.395   4.174  15.275  0.00  0.00    +0.000 OA
ATOM     31  C   UNL     1      48.283   5.239  17.196  0.00  0.00    +0.000 A 
ATOM     32  H   UNL     1      47.617   2.092  16.583  0.00  0.00    +0.000 HD
ENDBRANCH  19  22
ENDBRANCH   1  20
TORSDOF 7
ENDMDL
MODEL 2
REMARK VINA RESULT:    -7.521      1.980      2.590
REMARK INTER + INTRA:         -12.048
REMARK INTER:                 -11.109
REMARK INTRA:                  -0.939
REMARK UNBOUND:                -1.450
REMARK  Name = 
REMARK  7 active torsions:
REMARK  status: ('A' for Active; 'I' for Inactive)
REMARK    1  A    between atoms: C_2  and  C_20
REMARK    2  A    between atoms: N_3  and  C_4
REMARK    3  A    between atoms: C_4  and  C_5
REMARK    4  A    between atoms: C_8  and  C_9
REMARK    5  A    between atoms: C_9  and  O_10
REMARK    6  A    between atoms: O_10  and  C_11
REMARK    7  A    between atoms: C_11  and  C_12
REMARK                            x       y       z     vdW  Elec       q    Type
REMARK                         _______ _______ _______ _____ _____    ______ ____
ROOT
ATOM      1  C   UNL     1      47.208   4.124  14.989  0.00  0.00    +0.000 C 
ENDROOT
BRANCH   1   2
ATOM      2  C   UNL     1      46.596   4.298  13.580  0.00  0.00    +0.000 C 
ATOM      3  C   UNL     1      45.716   5.548  13.540  0.00  0.00    +0.000 C 
ATOM      4  C   UNL     1      45.089   5.745  12.162  0.00  0.00    +0.000 C 
ATOM      5  C   UNL     1      44.361   4.478  11.695  0.00  0.00    +0.000 C 
ATOM      6  C   UNL     1      45.268   3.241  11.830  0.00  0.00    +0.000 C 
ATOM      7  N   UNL     1      45.812   3.120  13.184  0.00  0.00    +0.000 NA
ATOM      8  H   UNL     1      46.363   2.267  13.284  0.00  0.00    +0.000 HD
BRANCH   5   9
ATOM      9  C   UNL     1      43.866   4.655  10.253  0.00  0.00    +0.000 C 
BRANCH   9  10
ATOM     10  O   UNL     1      44.388   3.606   9.443  0.00  0.00    +0.000 OA
BRANCH  10  11
ATOM     11  C   UNL     1      45.083   4.104   8.295  0.00  0.00    +0.000 C 
BRANCH  11  12
ATOM     12  C   UNL     1      46.046   3.064   7.772  0.00  0.00    +0.000 A 
ATOM     13  C   UNL     1      47.043   3.408   6.874  0.00  0.00    +0.000 A 
ATOM     14  C   UNL     1      47.877   2.394   6.462  0.00  0.00    +0.000 A 
ATOM     15  N   UNL     1      47.774   1.126   6.898  0.00  0.00    +0.000 NA
ATOM     16  C   UNL     1      46.790   0.898   7.779  0.00  0.00    +0.000 A 
ATOM     17  N   UNL     1      45.915   1.803   8.247  0.00  0.00    +0.000 NA
ENDBRANCH  11  12
ENDBRANCH  10  11
ENDBRANCH   9  10
ENDBRANCH   5   9
ENDBRANCH   1   2
BRANCH   1  20
ATOM     18  O   UNL     1      49.548   4.654  16.546  0.00  0.00    +0.000 OA
ATOM     19  C   UNL     1      48.723   5.533  16.345  0.00  0.00    +0.000 C 
ATOM     20  N   UNL     1      47.599   5.397  15.562  0.00  0.00    +0.000 N 
ATOM     21  H   UNL     1      46.852   6.062  15.714  0.00  0.00    +0.000 HD
BRANCH  19  22
ATOM     22  C   UNL     1      48.687   6.790  17.091  0.00  0.00    +0.000 A 
ATOM     23  C   UNL     1      49.300   7.945  16.641  0.00  0.00    +0.000 A 
ATOM     24  S   UNL     1      49.594   9.040  17.930  0.00  0.00    +0.000 S 
ATOM     25  C   UNL     1      48.770   8.041  19.043  0.00  0.00    +0.000 A 
ATOM     26  N   UNL     1      48.760   8.283  20.378  0.00  0.00    +0.000 NA
ATOM     27  C   UNL     1      48.027   7.466  21.061  0.00  0.00    +0.000 A 
ATOM     28  N   UNL     1      47.263   6.458  20.526  0.00  0.00    +0.000 N 
ATOM     29  C   UNL     1      47.240   6.175  19.182  0.00  0.00    +0.000 A 
ATOM     30  O   UNL     1      46.528   5.294  18.716  0.00  0.00    +0.000 OA
ATOM     31  C   UNL     1      48.156   6.987  18.407  0.00  0.00    +0.000 A 
ATOM     32  H   UNL     1      46.638   5.913  21.103  0.00  0.00    +0.000 HD
ENDBRANCH  19  22
ENDBRANCH   1  20
TORSDOF 7
ENDMDL
MODEL 3
REMARK VINA RESULT:    -7.184      1.825      3.302
REMARK INTER + INTRA:         -11.574
REMARK INTER:                 -10.676
REMARK INTRA:                  -0.897
REMARK UNBOUND:                -1.450
REMARK  Name = 
REMARK  7 active torsions:
REMARK  status: ('A' for Active; 'I' for Inactive)
REMARK    1  A    between atoms: C_2  and  C_20
REMARK    2  A    between atoms: N_3  and  C_4
REMARK    3  A    between atoms: C_4  and  C_5
REMARK    4  A    between atoms: C_8  and  C_9
REMARK    5  A    between atoms: C_9  and  O_10
REMARK    6  A    between atoms: O_10  and  C_11
REMARK    7  A    between atoms: C_11  and  C_12
REMARK                            x       y       z     vdW  Elec       q    Type
REMARK                         _______ _______ _______ _____ _____    ______ ____
ROOT
ATOM      1  C   UNL     1      47.174   3.876  14.973  0.00  0.00    +0.000 C 
ENDROOT
BRANCH   1   2
ATOM      2  C   UNL     1      46.616   4.121  13.552  0.00  0.00    +0.000 C 
ATOM      3  C   UNL     1      45.823   5.429  13.518  0.00  0.00    +0.000 C 
ATOM      4  C   UNL     1      45.250   5.697  12.129  0.00  0.00    +0.000 C 
ATOM      5  C   UNL     1      44.452   4.492  11.613  0.00  0.00    +0.000 C 
ATOM      6  C   UNL     1      45.270   3.194  11.743  0.00  0.00    +0.000 C 
ATOM      7  N   UNL     1      45.766   3.008  13.108  0.00  0.00    +0.000 NA
ATOM      8  H   UNL     1      46.257   2.118  13.203  0.00  0.00    +0.000 HD
BRANCH   5   9
ATOM      9  C   UNL     1      44.011   4.733  10.162  0.00  0.00    +0.000 C 
BRANCH   9  10
ATOM     10  O   UNL     1      44.398   3.620   9.361  0.00  0.00    +0.000 OA
BRANCH  10  11
ATOM     11  C   UNL     1      45.037   4.026   8.146  0.00  0.00    +0.000 C 
BRANCH  11  12
ATOM     12  C   UNL     1      46.058   2.996   7.721  0.00  0.00    +0.000 A 
ATOM     13  C   UNL     1      45.946   1.677   8.127  0.00  0.00    +0.000 A 
ATOM     14  C   UNL     1      46.919   0.811   7.682  0.00  0.00    +0.000 A 
ATOM     15  N   UNL     1      47.932   1.183   6.879  0.00  0.00    +0.000 NA
ATOM     16  C   UNL     1      47.942   2.477   6.527  0.00  0.00    +0.000 A 
ATOM     17  N   UNL     1      47.053   3.411   6.903  0.00  0.00    +0.000 NA
ENDBRANCH  11  12
ENDBRANCH  10  11
ENDBRANCH   9  10
ENDBRANCH   5   9
ENDBRANCH   1   2
BRANCH   1  20
ATOM     18  O   UNL     1      49.363   4.213  16.783  0.00  0.00    +0.000 OA
ATOM     19  C   UNL     1      48.638   5.156  16.502  0.00  0.00    +0.000 C 
ATOM     20  N   UNL     1      47.601   5.112  15.599  0.00  0.00    +0.000 N 
ATOM     21  H   UNL     1      46.897   5.835  15.676  0.00  0.00    +0.000 HD
BRANCH  19  22
ATOM     22  C   UNL     1      48.621   6.410  17.254  0.00  0.00    +0.000 A 
ATOM     23  C   UNL     1      48.094   6.512  18.528  0.00  0.00    +0.000 A 
ATOM     24  S   UNL     1      47.684   8.134  18.907  0.00  0.00    +0.000 S 
ATOM     25  C   UNL     1      48.349   8.706  17.442  0.00  0.00    +0.000 A 
ATOM     26  N   UNL     1      48.214   9.991  17.027  0.00  0.00    +0.000 NA
ATOM     27  C   UNL     1      48.843  10.264  15.931  0.00  0.00    +0.000 A 
ATOM     28  N   UNL     1      49.636   9.383  15.237  0.00  0.00    +0.000 N 
ATOM     29  C   UNL     1      49.805   8.074  15.618  0.00  0.00    +0.000 A 
ATOM     30  O   UNL     1      50.542   7.310  15.008  0.00  0.00    +0.000 OA
ATOM     31  C   UNL     1      49.005   7.702  16.767  0.00  0.00    +0.000 A 
ATOM     32  H   UNL     1      50.177   9.684  14.439  0.00  0.00    +0.000 HD
ENDBRANCH  19  22
ENDBRANCH   1  20
TORSDOF 7
ENDMDL
MODEL 4
REMARK VINA RESULT:    -7.177      1.649      1.939
REMARK INTER + INTRA:         -11.564
REMARK INTER:                 -10.618
REMARK INTRA:                  -0.947
REMARK UNBOUND:                -1.450
REMARK  Name = 
REMARK  7 active torsions:
REMARK  status: ('A' for Active; 'I' for Inactive)
REMARK    1  A    between atoms: C_2  and  C_20
REMARK    2  A    between atoms: N_3  and  C_4
REMARK    3  A    between atoms: C_4  and  C_5
REMARK    4  A    between atoms: C_8  and  C_9
REMARK    5  A    between atoms: C_9  and  O_10
REMARK    6  A    between atoms: O_10  and  C_11
REMARK    7  A    between atoms: C_11  and  C_12
REMARK                            x       y       z     vdW  Elec       q    Type
REMARK                         _______ _______ _______ _____ _____    ______ ____
ROOT
ATOM      1  C   UNL     1      48.371   6.701  14.366  0.00  0.00    +0.000 C 
ENDROOT
BRANCH   1   2
ATOM      2  C   UNL     1      47.505   5.908  13.359  0.00  0.00    +0.000 C 
ATOM      3  C   UNL     1      47.080   6.816  12.203  0.00  0.00    +0.000 C 
ATOM      4  C   UNL     1      46.216   6.064  11.194  0.00  0.00    +0.000 C 
ATOM      5  C   UNL     1      45.035   5.366  11.882  0.00  0.00    +0.000 C 
ATOM      6  C   UNL     1      45.514   4.530  13.083  0.00  0.00    +0.000 C 
ATOM      7  N   UNL     1      46.320   5.331  14.006  0.00  0.00    +0.000 NA
ATOM      8  H   UNL     1      46.584   4.789  14.829  0.00  0.00    +0.000 HD
BRANCH   5   9
ATOM      9  C   UNL     1      44.269   4.504  10.868  0.00  0.00    +0.000 C 
BRANCH   9  10
ATOM     10  O   UNL     1      45.124   3.472  10.387  0.00  0.00    +0.000 OA
BRANCH  10  11
ATOM     11  C   UNL     1      44.618   2.865   9.193  0.00  0.00    +0.000 C 
BRANCH  11  12
ATOM     12  C   UNL     1      45.759   2.385   8.325  0.00  0.00    +0.000 A 
ATOM     13  C   UNL     1      46.510   3.280   7.582  0.00  0.00    +0.000 A 
ATOM     14  C   UNL     1      47.533   2.749   6.829  0.00  0.00    +0.000 A 
ATOM     15  N   UNL     1      47.831   1.438   6.804  0.00  0.00    +0.000 NA
ATOM     16  C   UNL     1      47.058   0.656   7.571  0.00  0.00    +0.000 A 
ATOM     17  N   UNL     1      46.033   1.060   8.339  0.00  0.00    +0.000 NA
ENDBRANCH  11  12
ENDBRANCH  10  11
ENDBRANCH   9  10
ENDBRANCH   5   9
ENDBRANCH   1   2
BRANCH   1  20
ATOM     18  O   UNL     1      48.869   8.216  16.741  0.00  0.00    +0.000 OA
ATOM     19  C   UNL     1      48.448   7.070  16.811  0.00  0.00    +0.000 C 
ATOM     20  N   UNL     1      48.120   6.283  15.731  0.00  0.00    +0.000 N 
ATOM     21  H   UNL     1      48.082   5.284  15.889  0.00  0.00    +0.000 HD
BRANCH  19  22
ATOM     22  C   UNL     1      48.447   6.287  18.046  0.00  0.00    +0.000 A 
ATOM     23  C   UNL     1      47.383   6.284  18.929  0.00  0.00    +0.000 A 
ATOM     24  S   UNL     1      47.872   5.781  20.495  0.00  0.00    +0.000 S 
ATOM     25  C   UNL     1      49.452   5.427  19.951  0.00  0.00    +0.000 A 
ATOM     26  N   UNL     1      50.461   5.094  20.795  0.00  0.00    +0.000 NA
ATOM     27  C   UNL     1      51.569   4.788  20.204  0.00  0.00    +0.000 A 
ATOM     28  N   UNL     1      51.747   4.736  18.844  0.00  0.00    +0.000 N 
ATOM     29  C   UNL     1      50.758   5.062  17.950  0.00  0.00    +0.000 A 
ATOM     30  O   UNL     1      50.922   4.979  16.739  0.00  0.00    +0.000 OA
ATOM     31  C   UNL     1      49.545   5.539  18.584  0.00  0.00    +0.000 A 
ATOM     32  H   UNL     1      52.611   4.399  18.443  0.00  0.00    +0.000 HD
ENDBRANCH  19  22
ENDBRANCH   1  20
TORSDOF 7
ENDMDL
MODEL 5
REMARK VINA RESULT:    -6.944      1.767      2.114
REMARK INTER + INTRA:         -11.235
REMARK INTER:                 -10.269
REMARK INTRA:                  -0.966
REMARK UNBOUND:                -1.450
REMARK  Name = 
REMARK  7 active torsions:
REMARK  status: ('A' for Active; 'I' for Inactive)
REMARK    1  A    between atoms: C_2  and  C_20
REMARK    2  A    between atoms: N_3  and  C_4
REMARK    3  A    between atoms: C_4  and  C_5
REMARK    4  A    between atoms: C_8  and  C_9
REMARK    5  A    between atoms: C_9  and  O_10
REMARK    6  A    between atoms: O_10  and  C_11
REMARK    7  A    between atoms: C_11  and  C_12
REMARK                            x       y       z     vdW  Elec       q    Type
REMARK                         _______ _______ _______ _____ _____    ______ ____
ROOT
ATOM      1  C   UNL     1      49.022   7.230  13.540  0.00  0.00    +0.000 C 
ENDROOT
BRANCH   1   2
ATOM      2  C   UNL     1      47.937   6.323  12.915  0.00  0.00    +0.000 C 
ATOM      3  C   UNL     1      47.182   7.084  11.823  0.00  0.00    +0.000 C 
ATOM      4  C   UNL     1      46.097   6.217  11.190  0.00  0.00    +0.000 C 
ATOM      5  C   UNL     1      45.173   5.614  12.256  0.00  0.00    +0.000 C 
ATOM      6  C   UNL     1      45.989   4.930  13.368  0.00  0.00    +0.000 C 
ATOM      7  N   UNL     1      46.993   5.835  13.929  0.00  0.00    +0.000 NA
ATOM      8  H   UNL     1      47.490   5.397  14.706  0.00  0.00    +0.000 HD
BRANCH   5   9
ATOM      9  C   UNL     1      44.183   4.637  11.605  0.00  0.00    +0.000 C 
BRANCH   9  10
ATOM     10  O   UNL     1      44.874   3.450  11.225  0.00  0.00    +0.000 OA
BRANCH  10  11
ATOM     11  C   UNL     1      44.273   2.815  10.092  0.00  0.00    +0.000 C 
BRANCH  11  12
ATOM     12  C   UNL     1      45.264   2.724   8.954  0.00  0.00    +0.000 A 
ATOM     13  C   UNL     1      45.627   3.852   8.238  0.00  0.00    +0.000 A 
ATOM     14  C   UNL     1      46.543   3.671   7.227  0.00  0.00    +0.000 A 
ATOM     15  N   UNL     1      47.092   2.480   6.929  0.00  0.00    +0.000 NA
ATOM     16  C   UNL     1      46.690   1.453   7.691  0.00  0.00    +0.000 A 
ATOM     17  N   UNL     1      45.802   1.509   8.697  0.00  0.00    +0.000 NA
ENDBRANCH  11  12
ENDBRANCH  10  11
ENDBRANCH   9  10
ENDBRANCH   5   9
ENDBRANCH   1   2
BRANCH   1  20
ATOM     18  O   UNL     1      51.419   7.507  15.076  0.00  0.00    +0.000 OA
ATOM     19  C   UNL     1      50.395   7.087  15.593  0.00  0.00    +0.000 C 
ATOM     20  N   UNL     1      49.179   6.975  14.959  0.00  0.00    +0.000 N 
ATOM     21  H   UNL     1      48.504   6.345  15.373  0.00  0.00    +0.000 HD
BRANCH  19  22
ATOM     22  C   UNL     1      50.365   6.426  16.897  0.00  0.00    +0.000 A 
ATOM     23  C   UNL     1      51.283   5.461  17.269  0.00  0.00    +0.000 A 
ATOM     24  S   UNL     1      50.680   4.483  18.543  0.00  0.00    +0.000 S 
ATOM     25  C   UNL     1      49.275   5.440  18.692  0.00  0.00    +0.000 A 
ATOM     26  N   UNL     1      48.234   5.096  19.491  0.00  0.00    +0.000 NA
ATOM     27  C   UNL     1      47.285   5.973  19.537  0.00  0.00    +0.000 A 
ATOM     28  N   UNL     1      47.305   7.187  18.896  0.00  0.00    +0.000 N 
ATOM     29  C   UNL     1      48.335   7.582  18.078  0.00  0.00    +0.000 A 
ATOM     30  O   UNL     1      48.354   8.682  17.540  0.00  0.00    +0.000 OA
ATOM     31  C   UNL     1      49.350   6.562  17.900  0.00  0.00    +0.000 A 
ATOM     32  H   UNL     1      46.575   7.870  19.047  0.00  0.00    +0.000 HD
ENDBRANCH  19  22
ENDBRANCH   1  20
TORSDOF 7
ENDMDL
MODEL 6
REMARK VINA RESULT:    -6.877      3.309      7.953
REMARK INTER + INTRA:         -11.142
REMARK INTER:                  -9.964
REMARK INTRA:                  -1.178
REMARK UNBOUND:                -1.450
REMARK  Name = 
REMARK  7 active torsions:
REMARK  status: ('A' for Active; 'I' for Inactive)
REMARK    1  A    between atoms: C_2  and  C_20
REMARK    2  A    between atoms: N_3  and  C_4
REMARK    3  A    between atoms: C_4  and  C_5
REMARK    4  A    between atoms: C_8  and  C_9
REMARK    5  A    between atoms: C_9  and  O_10
REMARK    6  A    between atoms: O_10  and  C_11
REMARK    7  A    between atoms: C_11  and  C_12
REMARK                            x       y       z     vdW  Elec       q    Type
REMARK                         _______ _______ _______ _____ _____    ______ ____
ROOT
ATOM      1  C   UNL     1      46.458   8.456  13.220  0.00  0.00    +0.000 C 
ENDROOT
BRANCH   1   2
ATOM      2  C   UNL     1      47.737   8.424  14.090  0.00  0.00    +0.000 C 
ATOM      3  C   UNL     1      48.316   7.009  14.120  0.00  0.00    +0.000 C 
ATOM      4  C   UNL     1      49.577   6.942  14.978  0.00  0.00    +0.000 C 
ATOM      5  C   UNL     1      49.331   7.525  16.376  0.00  0.00    +0.000 C 
ATOM      6  C   UNL     1      48.677   8.916  16.284  0.00  0.00    +0.000 C 
ATOM      7  N   UNL     1      47.469   8.886  15.458  0.00  0.00    +0.000 NA
ATOM      8  H   UNL     1      47.006   9.796  15.449  0.00  0.00    +0.000 HD
BRANCH   5   9
ATOM      9  C   UNL     1      50.647   7.576  17.165  0.00  0.00    +0.000 C 
BRANCH   9  10
ATOM     10  O   UNL     1      50.720   6.450  18.034  0.00  0.00    +0.000 OA
BRANCH  10  11
ATOM     11  C   UNL     1      49.461   5.778  18.153  0.00  0.00    +0.000 C 
BRANCH  11  12
ATOM     12  C   UNL     1      49.572   4.361  17.640  0.00  0.00    +0.000 A 
ATOM     13  C   UNL     1      48.493   3.740  17.035  0.00  0.00    +0.000 A 
ATOM     14  C   UNL     1      48.693   2.452  16.591  0.00  0.00    +0.000 A 
ATOM     15  N   UNL     1      49.865   1.802  16.705  0.00  0.00    +0.000 NA
ATOM     16  C   UNL     1      50.853   2.495  17.288  0.00  0.00    +0.000 A 
ATOM     17  N   UNL     1      50.773   3.749  17.762  0.00  0.00    +0.000 NA
ENDBRANCH  11  12
ENDBRANCH  10  11
ENDBRANCH   9  10
ENDBRANCH   5   9
ENDBRANCH   1   2
BRANCH   1  20
ATOM     18  O   UNL     1      44.527   8.027  11.154  0.00  0.00    +0.000 OA
ATOM     19  C   UNL     1      45.422   7.217  11.346  0.00  0.00    +0.000 C 
ATOM     20  N   UNL     1      46.432   7.361  12.270  0.00  0.00    +0.000 N 
ATOM     21  H   UNL     1      46.918   6.519  12.551  0.00  0.00    +0.000 HD
BRANCH  19  22
ATOM     22  C   UNL     1      45.423   5.869  10.780  0.00  0.00    +0.000 A 
ATOM     23  C   UNL     1      45.820   5.602   9.482  0.00  0.00    +0.000 A 
ATOM     24  S   UNL     1      45.182   4.108   8.929  0.00  0.00    +0.000 S 
ATOM     25  C   UNL     1      44.515   3.758  10.461  0.00  0.00    +0.000 A 
ATOM     26  N   UNL     1      43.693   2.701  10.679  0.00  0.00    +0.000 NA
ATOM     27  C   UNL     1      43.341   2.547  11.914  0.00  0.00    +0.000 A 
ATOM     28  N   UNL     1      43.775   3.325  12.959  0.00  0.00    +0.000 N 
ATOM     29  C   UNL     1      44.607   4.404  12.789  0.00  0.00    +0.000 A 
ATOM     30  O   UNL     1      45.012   5.067  13.735  0.00  0.00    +0.000 OA
ATOM     31  C   UNL     1      44.911   4.682  11.400  0.00  0.00    +0.000 A 
ATOM     32  H   UNL     1      43.538   3.096  13.914  0.00  0.00    +0.000 HD
ENDBRANCH  19  22
ENDBRANCH   1  20
TORSDOF 7
ENDMDL
MODEL 7
REMARK VINA RESULT:    -6.848      1.797      2.032
REMARK INTER + INTRA:         -11.100
REMARK INTER:                 -10.204
REMARK INTRA:                  -0.896
REMARK UNBOUND:                -1.450
REMARK  Name = 
REMARK  7 active torsions:
REMARK  status: ('A' for Active; 'I' for Inactive)
REMARK    1  A    between atoms: C_2  and  C_20
REMARK    2  A    between atoms: N_3  and  C_4
REMARK    3  A    between atoms: C_4  and  C_5
REMARK    4  A    between atoms: C_8  and  C_9
REMARK    5  A    between atoms: C_9  and  O_10
REMARK    6  A    between atoms: O_10  and  C_11
REMARK    7  A    between atoms: C_11  and  C_12
REMARK                            x       y       z     vdW  Elec       q    Type
REMARK                         _______ _______ _______ _____ _____    ______ ____
ROOT
ATOM      1  C   UNL     1      48.680   7.484  14.434  0.00  0.00    +0.000 C 
ENDROOT
BRANCH   1   2
ATOM      2  C   UNL     1      47.448   6.930  13.681  0.00  0.00    +0.000 C 
ATOM      3  C   UNL     1      47.200   5.474  14.080  0.00  0.00    +0.000 C 
ATOM      4  C   UNL     1      45.993   4.895  13.347  0.00  0.00    +0.000 C 
ATOM      5  C   UNL     1      46.113   5.095  11.830  0.00  0.00    +0.000 C 
ATOM      6  C   UNL     1      46.440   6.561  11.493  0.00  0.00    +0.000 C 
ATOM      7  N   UNL     1      47.618   7.029  12.226  0.00  0.00    +0.000 NA
ATOM      8  H   UNL     1      47.866   7.981  11.954  0.00  0.00    +0.000 HD
BRANCH   5   9
ATOM      9  C   UNL     1      44.825   4.633  11.133  0.00  0.00    +0.000 C 
BRANCH   9  10
ATOM     10  O   UNL     1      45.081   4.450   9.744  0.00  0.00    +0.000 OA
BRANCH  10  11
ATOM     11  C   UNL     1      44.618   3.181   9.272  0.00  0.00    +0.000 C 
BRANCH  11  12
ATOM     12  C   UNL     1      45.641   2.559   8.350  0.00  0.00    +0.000 A 
ATOM     13  C   UNL     1      46.372   3.340   7.471  0.00  0.00    +0.000 A 
ATOM     14  C   UNL     1      47.286   2.685   6.678  0.00  0.00    +0.000 A 
ATOM     15  N   UNL     1      47.502   1.359   6.735  0.00  0.00    +0.000 NA
ATOM     16  C   UNL     1      46.758   0.693   7.630  0.00  0.00    +0.000 A 
ATOM     17  N   UNL     1      45.835   1.223   8.450  0.00  0.00    +0.000 NA
ENDBRANCH  11  12
ENDBRANCH  10  11
ENDBRANCH   9  10
ENDBRANCH   5   9
ENDBRANCH   1   2
BRANCH   1  20
ATOM     18  O   UNL     1      48.911   7.903  17.254  0.00  0.00    +0.000 OA
ATOM     19  C   UNL     1      49.297   6.860  16.748  0.00  0.00    +0.000 C 
ATOM     20  N   UNL     1      49.175   6.537  15.415  0.00  0.00    +0.000 N 
ATOM     21  H   UNL     1      49.787   5.813  15.063  0.00  0.00    +0.000 HD
BRANCH  19  22
ATOM     22  C   UNL     1      50.151   5.896  17.440  0.00  0.00    +0.000 A 
ATOM     23  C   UNL     1      51.341   6.253  18.049  0.00  0.00    +0.000 A 
ATOM     24  S   UNL     1      52.371   4.895  18.249  0.00  0.00    +0.000 S 
ATOM     25  C   UNL     1      51.173   3.826  17.668  0.00  0.00    +0.000 A 
ATOM     26  N   UNL     1      51.417   2.515  17.421  0.00  0.00    +0.000 NA
ATOM     27  C   UNL     1      50.376   1.840  17.056  0.00  0.00    +0.000 A 
ATOM     28  N   UNL     1      49.103   2.346  16.963  0.00  0.00    +0.000 N 
ATOM     29  C   UNL     1      48.806   3.664  17.203  0.00  0.00    +0.000 A 
ATOM     30  O   UNL     1      47.660   4.093  17.149  0.00  0.00    +0.000 OA
ATOM     31  C   UNL     1      49.974   4.475  17.484  0.00  0.00    +0.000 A 
ATOM     32  H   UNL     1      48.316   1.745  16.763  0.00  0.00    +0.000 HD
ENDBRANCH  19  22
ENDBRANCH   1  20
TORSDOF 7
ENDMDL
MODEL 8
REMARK VINA RESULT:    -6.766      2.325      3.745
REMARK INTER + INTRA:         -10.985
REMARK INTER:                 -10.143
REMARK INTRA:                  -0.842
REMARK UNBOUND:                -1.450
REMARK  Name = 
REMARK  7 active torsions:
REMARK  status: ('A' for Active; 'I' for Inactive)
REMARK    1  A    between atoms: C_2  and  C_20
REMARK    2  A    between atoms: N_3  and  C_4
REMARK    3  A    between atoms: C_4  and  C_5
REMARK    4  A    between atoms: C_8  and  C_9
REMARK    5  A    between atoms: C_9  and  O_10
REMARK    6  A    between atoms: O_10  and  C_11
REMARK    7  A    between atoms: C_11  and  C_12
REMARK                            x       y       z     vdW  Elec       q    Type
REMARK                         _______ _______ _______ _____ _____    ______ ____
ROOT
ATOM      1  C   UNL     1      47.401   4.731  15.693  0.00  0.00    +0.000 C 
ENDROOT
BRANCH   1   2
ATOM      2  C   UNL     1      46.364   4.623  14.551  0.00  0.00    +0.000 C 
ATOM      3  C   UNL     1      46.771   3.517  13.575  0.00  0.00    +0.000 C 
ATOM      4  C   UNL     1      45.770   3.391  12.429  0.00  0.00    +0.000 C 
ATOM      5  C   UNL     1      45.530   4.743  11.745  0.00  0.00    +0.000 C 
ATOM      6  C   UNL     1      45.202   5.833  12.783  0.00  0.00    +0.000 C 
ATOM      7  N   UNL     1      46.219   5.897  13.834  0.00  0.00    +0.000 NA
ATOM      8  H   UNL     1      46.028   6.659  14.485  0.00  0.00    +0.000 HD
BRANCH   5   9
ATOM      9  C   UNL     1      44.417   4.615  10.696  0.00  0.00    +0.000 C 
BRANCH   9  10
ATOM     10  O   UNL     1      45.000   4.388   9.416  0.00  0.00    +0.000 OA
BRANCH  10  11
ATOM     11  C   UNL     1      44.616   3.124   8.865  0.00  0.00    +0.000 C 
BRANCH  11  12
ATOM     12  C   UNL     1      45.773   2.507   8.112  0.00  0.00    +0.000 A 
ATOM     13  C   UNL     1      46.582   3.280   7.297  0.00  0.00    +0.000 A 
ATOM     14  C   UNL     1      47.615   2.630   6.661  0.00  0.00    +0.000 A 
ATOM     15  N   UNL     1      47.870   1.318   6.811  0.00  0.00    +0.000 NA
ATOM     16  C   UNL     1      47.042   0.661   7.635  0.00  0.00    +0.000 A 
ATOM     17  N   UNL     1      46.001   1.187   8.303  0.00  0.00    +0.000 NA
ENDBRANCH  11  12
ENDBRANCH  10  11
ENDBRANCH   9  10
ENDBRANCH   5   9
ENDBRANCH   1   2
BRANCH   1  20
ATOM     18  O   UNL     1      48.572   6.318  17.764  0.00  0.00    +0.000 OA
ATOM     19  C   UNL     1      48.735   6.612  16.589  0.00  0.00    +0.000 C 
ATOM     20  N   UNL     1      48.267   5.881  15.521  0.00  0.00    +0.000 N 
ATOM     21  H   UNL     1      48.191   6.364  14.635  0.00  0.00    +0.000 HD
BRANCH  19  22
ATOM     22  C   UNL     1      49.255   7.905  16.147  0.00  0.00    +0.000 A 
ATOM     23  C   UNL     1      48.487   9.055  16.132  0.00  0.00    +0.000 A 
ATOM     24  S   UNL     1      49.137  10.226  15.059  0.00  0.00    +0.000 S 
ATOM     25  C   UNL     1      50.509   9.260  14.743  0.00  0.00    +0.000 A 
ATOM     26  N   UNL     1      51.423   9.573  13.790  0.00  0.00    +0.000 NA
ATOM     27  C   UNL     1      52.434   8.769  13.738  0.00  0.00    +0.000 A 
ATOM     28  N   UNL     1      52.640   7.708  14.586  0.00  0.00    +0.000 N 
ATOM     29  C   UNL     1      51.746   7.352  15.565  0.00  0.00    +0.000 A 
ATOM     30  O   UNL     1      51.960   6.423  16.334  0.00  0.00    +0.000 OA
ATOM     31  C   UNL     1      50.538   8.153  15.560  0.00  0.00    +0.000 A 
ATOM     32  H   UNL     1      53.497   7.173  14.555  0.00  0.00    +0.000 HD
ENDBRANCH  19  22
ENDBRANCH   1  20
TORSDOF 7
ENDMDL
MODEL 9
REMARK VINA RESULT:    -6.632      2.866      3.624
REMARK INTER + INTRA:         -10.795
REMARK INTER:                  -9.706
REMARK INTRA:                  -1.089
REMARK UNBOUND:                -1.450
REMARK  Name = 
REMARK  7 active torsions:
REMARK  status: ('A' for Active; 'I' for Inactive)
REMARK    1  A    between atoms: C_2  and  C_20
REMARK    2  A    between atoms: N_3  and  C_4
REMARK    3  A    between atoms: C_4  and  C_5
REMARK    4  A    between atoms: C_8  and  C_9
REMARK    5  A    between atoms: C_9  and  O_10
REMARK    6  A    between atoms: O_10  and  C_11
REMARK    7  A    between atoms: C_11  and  C_12
REMARK                            x       y       z     vdW  Elec       q    Type
REMARK                         _______ _______ _______ _____ _____    ______ ____
ROOT
ATOM      1  C   UNL     1      49.215   6.916  16.737  0.00  0.00    +0.000 C 
ENDROOT
BRANCH   1   2
ATOM      2  C   UNL     1      48.627   5.973  15.661  0.00  0.00    +0.000 C 
ATOM      3  C   UNL     1      48.154   6.785  14.454  0.00  0.00    +0.000 C 
ATOM      4  C   UNL     1      47.560   5.883  13.375  0.00  0.00    +0.000 C 
ATOM      5  C   UNL     1      46.473   4.967  13.951  0.00  0.00    +0.000 C 
ATOM      6  C   UNL     1      46.979   4.235  15.208  0.00  0.00    +0.000 C 
ATOM      7  N   UNL     1      47.516   5.174  16.195  0.00  0.00    +0.000 NA
ATOM      8  H   UNL     1      47.795   4.690  17.049  0.00  0.00    +0.000 HD
BRANCH   5   9
ATOM      9  C   UNL     1      45.996   3.975  12.880  0.00  0.00    +0.000 C 
BRANCH   9  10
ATOM     10  O   UNL     1      44.626   4.227  12.582  0.00  0.00    +0.000 OA
BRANCH  10  11
ATOM     11  C   UNL     1      44.467   5.002  11.389  0.00  0.00    +0.000 C 
BRANCH  11  12
ATOM     12  C   UNL     1      44.786   4.164  10.173  0.00  0.00    +0.000 A 
ATOM     13  C   UNL     1      45.485   4.700   9.105  0.00  0.00    +0.000 A 
ATOM     14  C   UNL     1      45.736   3.857   8.047  0.00  0.00    +0.000 A 
ATOM     15  N   UNL     1      45.354   2.568   8.020  0.00  0.00    +0.000 NA
ATOM     16  C   UNL     1      44.700   2.138   9.108  0.00  0.00    +0.000 A 
ATOM     17  N   UNL     1      44.395   2.868  10.193  0.00  0.00    +0.000 NA
ENDBRANCH  11  12
ENDBRANCH  10  11
ENDBRANCH   9  10
ENDBRANCH   5   9
ENDBRANCH   1   2
BRANCH   1  20
ATOM     18  O   UNL     1      51.953   6.233  16.265  0.00  0.00    +0.000 OA
ATOM     19  C   UNL     1      51.392   5.880  17.292  0.00  0.00    +0.000 C 
ATOM     20  N   UNL     1      50.101   6.208  17.640  0.00  0.00    +0.000 N 
ATOM     21  H   UNL     1      49.653   5.624  18.334  0.00  0.00    +0.000 HD
BRANCH  19  22
ATOM     22  C   UNL     1      51.933   4.866  18.197  0.00  0.00    +0.000 A 
ATOM     23  C   UNL     1      52.816   5.168  19.217  0.00  0.00    +0.000 A 
ATOM     24  S   UNL     1      53.702   3.783  19.708  0.00  0.00    +0.000 S 
ATOM     25  C   UNL     1      52.800   2.768  18.672  0.00  0.00    +0.000 A 
ATOM     26  N   UNL     1      53.119   1.466  18.462  0.00  0.00    +0.000 NA
ATOM     27  C   UNL     1      52.285   0.830  17.705  0.00  0.00    +0.000 A 
ATOM     28  N   UNL     1      51.134   1.365  17.179  0.00  0.00    +0.000 N 
ATOM     29  C   UNL     1      50.769   2.675  17.365  0.00  0.00    +0.000 A 
ATOM     30  O   UNL     1      49.723   3.128  16.917  0.00  0.00    +0.000 OA
ATOM     31  C   UNL     1      51.752   3.448  18.096  0.00  0.00    +0.000 A 
ATOM     32  H   UNL     1      50.475   0.790  16.673  0.00  0.00    +0.000 HD
ENDBRANCH  19  22
ENDBRANCH   1  20
TORSDOF 7
ENDMDL
