MODEL 1
REMARK VINA RESULT:    -8.491      0.000      0.000
REMARK INTER + INTRA:         -12.781
REMARK INTER:                 -11.717
REMARK INTRA:                  -1.065
REMARK UNBOUND:                -1.065
REMARK  Name = 
REMARK  7 active torsions:
REMARK  status: ('A' for Active; 'I' for Inactive)
REMARK    1  A    between atoms: C_2  and  C_4
REMARK    2  A    between atoms: C_7  and  O_8
REMARK    3  A    between atoms: O_8  and  C_9
REMARK    4  A    between atoms: C_9  and  C_10
REMARK    5  A    between atoms: C_14  and  N_15
REMARK    6  A    between atoms: C_19  and  C_20
REMARK    7  A    between atoms: C_20  and  O_22
REMARK                            x       y       z     vdW  Elec       q    Type
REMARK                         _______ _______ _______ _____ _____    ______ ____
ROOT
ATOM      1  C   UNL     1      44.766   4.846  11.903  0.00  0.00    +0.000 A 
ATOM      2  C   UNL     1      45.151   3.684  12.576  0.00  0.00    +0.000 A 
ATOM      3  C   UNL     1      46.295   3.689  13.366  0.00  0.00    +0.000 A 
ATOM      4  C   UNL     1      47.058   4.854  13.488  0.00  0.00    +0.000 A 
ATOM      5  C   UNL     1      46.690   6.049  12.855  0.00  0.00    +0.000 A 
ATOM      6  C   UNL     1      45.516   6.023  12.085  0.00  0.00    +0.000 A 
ENDROOT
BRANCH   5   7
ATOM      7  N   UNL     1      47.465   7.188  12.957  0.00  0.00    +0.000 N 
ATOM      8  C   UNL     1      46.876   8.503  13.212  0.00  0.00    +0.000 C 
ATOM      9  C   UNL     1      47.209   9.435  12.048  0.00  0.00    +0.000 C 
ATOM     10  C   UNL     1      48.716   9.475  11.786  0.00  0.00    +0.000 C 
ATOM     11  C   UNL     1      49.293   8.063  11.616  0.00  0.00    +0.000 C 
ATOM     12  C   UNL     1      48.921   7.160  12.799  0.00  0.00    +0.000 C 
BRANCH  11  13
ATOM     13  C   UNL     1      50.796   8.125  11.491  0.00  0.00    +0.000 C 
ATOM     14  O   UNL     1      51.476   9.101  11.769  0.00  0.00    +0.000 OA
BRANCH  13  15
ATOM     15  O   UNL     1      51.340   6.990  10.995  0.00  0.00    +0.000 OA
ATOM     16  H   UNL     1      52.201   6.750  11.386  0.00  0.00    +0.000 HD
ENDBRANCH  13  15
ENDBRANCH  11  13
ENDBRANCH   5   7
BRANCH   1  17
ATOM     17  C   UNL     1      43.625   4.811  10.914  0.00  0.00    +0.000 C 
BRANCH  17  18
ATOM     18  O   UNL     1      43.557   3.563  10.229  0.00  0.00    +0.000 OA
BRANCH  18  22
ATOM     19  C   UNL     1      46.595   2.632   7.503  0.00  0.00    +0.000 A 
ATOM     20  C   UNL     1      46.189   3.964   7.623  0.00  0.00    +0.000 A 
ATOM     21  C   UNL     1      45.176   4.312   8.526  0.00  0.00    +0.000 A 
ATOM     22  C   UNL     1      44.559   3.336   9.316  0.00  0.00    +0.000 A 
ATOM     23  C   UNL     1      44.965   2.006   9.188  0.00  0.00    +0.000 A 
ATOM     24  C   UNL     1      45.972   1.652   8.283  0.00  0.00    +0.000 A 
BRANCH  19  26
ATOM     25  N   UNL     1      47.797   2.987   5.412  0.00  0.00    +0.000 N 
ATOM     26  C   UNL     1      47.650   2.226   6.541  0.00  0.00    +0.000 C 
ATOM     27  O   UNL     1      48.380   1.267   6.752  0.00  0.00    +0.000 OA
ATOM     28  H   UNL     1      48.579   2.751   4.814  0.00  0.00    +0.000 HD
ATOM     29  H   UNL     1      47.406   3.913   5.328  0.00  0.00    +0.000 HD
ENDBRANCH  19  26
ENDBRANCH  18  22
ENDBRANCH  17  18
ENDBRANCH   1  17
TORSDOF 7
ENDMDL
MODEL 2
REMARK VINA RESULT:    -8.167      2.394      3.031
REMARK INTER + INTRA:         -12.335
REMARK INTER:                 -11.238
REMARK INTRA:                  -1.097
REMARK UNBOUND:                -1.065
REMARK  Name = 
REMARK  7 active torsions:
REMARK  status: ('A' for Active; 'I' for Inactive)
REMARK    1  A    between atoms: C_2  and  C_4
REMARK    2  A    between atoms: C_7  and  O_8
REMARK    3  A    between atoms: O_8  and  C_9
REMARK    4  A    between atoms: C_9  and  C_10
REMARK    5  A    between atoms: C_14  and  N_15
REMARK    6  A    between atoms: C_19  and  C_20
REMARK    7  A    between atoms: C_20  and  O_22
REMARK                            x       y       z     vdW  Elec       q    Type
REMARK                         _______ _______ _______ _____ _____    ______ ____
ROOT
ATOM      1  C   UNL     1      44.748   4.200  12.263  0.00  0.00    +0.000 A 
ATOM      2  C   UNL     1      45.640   3.516  13.091  0.00  0.00    +0.000 A 
ATOM      3  C   UNL     1      46.794   4.148  13.538  0.00  0.00    +0.000 A 
ATOM      4  C   UNL     1      47.061   5.467  13.160  0.00  0.00    +0.000 A 
ATOM      5  C   UNL     1      46.179   6.201  12.355  0.00  0.00    +0.000 A 
ATOM      6  C   UNL     1      45.007   5.546  11.942  0.00  0.00    +0.000 A 
ENDROOT
BRANCH   5   7
ATOM      7  N   UNL     1      46.463   7.494  11.963  0.00  0.00    +0.000 N 
ATOM      8  C   UNL     1      47.788   8.086  12.153  0.00  0.00    +0.000 C 
ATOM      9  C   UNL     1      47.663   9.314  13.051  0.00  0.00    +0.000 C 
ATOM     10  C   UNL     1      46.623  10.295  12.506  0.00  0.00    +0.000 C 
ATOM     11  C   UNL     1      45.282   9.599  12.241  0.00  0.00    +0.000 C 
ATOM     12  C   UNL     1      45.458   8.364  11.348  0.00  0.00    +0.000 C 
BRANCH  11  13
ATOM     13  C   UNL     1      44.318  10.556  11.582  0.00  0.00    +0.000 C 
ATOM     14  O   UNL     1      44.551  11.182  10.560  0.00  0.00    +0.000 OA
BRANCH  13  15
ATOM     15  O   UNL     1      43.155  10.696  12.259  0.00  0.00    +0.000 OA
ATOM     16  H   UNL     1      42.638  11.488  12.015  0.00  0.00    +0.000 HD
ENDBRANCH  13  15
ENDBRANCH  11  13
ENDBRANCH   5   7
BRANCH   1  17
ATOM     17  C   UNL     1      43.579   3.477  11.638  0.00  0.00    +0.000 C 
BRANCH  17  18
ATOM     18  O   UNL     1      43.391   3.854  10.275  0.00  0.00    +0.000 OA
BRANCH  18  22
ATOM     19  C   UNL     1      46.390   2.429   7.725  0.00  0.00    +0.000 A 
ATOM     20  C   UNL     1      46.092   3.794   7.710  0.00  0.00    +0.000 A 
ATOM     21  C   UNL     1      45.096   4.306   8.551  0.00  0.00    +0.000 A 
ATOM     22  C   UNL     1      44.387   3.462   9.412  0.00  0.00    +0.000 A 
ATOM     23  C   UNL     1      44.685   2.097   9.420  0.00  0.00    +0.000 A 
ATOM     24  C   UNL     1      45.675   1.580   8.576  0.00  0.00    +0.000 A 
BRANCH  19  26
ATOM     25  N   UNL     1      48.462   2.663   6.462  0.00  0.00    +0.000 N 
ATOM     26  C   UNL     1      47.424   1.850   6.831  0.00  0.00    +0.000 C 
ATOM     27  O   UNL     1      47.373   0.686   6.456  0.00  0.00    +0.000 OA
ATOM     28  H   UNL     1      49.203   2.226   5.929  0.00  0.00    +0.000 HD
ATOM     29  H   UNL     1      48.677   3.522   6.947  0.00  0.00    +0.000 HD
ENDBRANCH  19  26
ENDBRANCH  18  22
ENDBRANCH  17  18
ENDBRANCH   1  17
TORSDOF 7
ENDMDL
MODEL 3
REMARK VINA RESULT:    -8.075      2.210      3.345
REMARK INTER + INTRA:         -12.208
REMARK INTER:                 -11.044
REMARK INTRA:                  -1.164
REMARK UNBOUND:                -1.065
REMARK  Name = 
REMARK  7 active torsions:
REMARK  status: ('A' for Active; 'I' for Inactive)
REMARK    1  A    between atoms: C_2  and  C_4
REMARK    2  A    between atoms: C_7  and  O_8
REMARK    3  A    between atoms: O_8  and  C_9
REMARK    4  A    between atoms: C_9  and  C_10
REMARK    5  A    between atoms: C_14  and  N_15
REMARK    6  A    between atoms: C_19  and  C_20
REMARK    7  A    between atoms: C_20  and  O_22
REMARK                            x       y       z     vdW  Elec       q    Type
REMARK                         _______ _______ _______ _____ _____    ______ ____
ROOT
ATOM      1  C   UNL     1      44.556   5.655  11.651  0.00  0.00    +0.000 A 
ATOM      2  C   UNL     1      44.512   7.033  11.430  0.00  0.00    +0.000 A 
ATOM      3  C   UNL     1      45.416   7.867  12.077  0.00  0.00    +0.000 A 
ATOM      4  C   UNL     1      46.368   7.328  12.947  0.00  0.00    +0.000 A 
ATOM      5  C   UNL     1      46.467   5.948  13.174  0.00  0.00    +0.000 A 
ATOM      6  C   UNL     1      45.560   5.127  12.486  0.00  0.00    +0.000 A 
ENDROOT
BRANCH   5   7
ATOM      7  N   UNL     1      47.392   5.426  14.056  0.00  0.00    +0.000 N 
ATOM      8  C   UNL     1      47.188   4.136  14.717  0.00  0.00    +0.000 C 
ATOM      9  C   UNL     1      47.162   4.347  16.229  0.00  0.00    +0.000 C 
ATOM     10  C   UNL     1      48.410   5.092  16.706  0.00  0.00    +0.000 C 
ATOM     11  C   UNL     1      48.623   6.391  15.917  0.00  0.00    +0.000 C 
ATOM     12  C   UNL     1      48.627   6.133  14.404  0.00  0.00    +0.000 C 
BRANCH  11  13
ATOM     13  C   UNL     1      49.928   7.036  16.315  0.00  0.00    +0.000 C 
ATOM     14  O   UNL     1      50.065   7.798  17.260  0.00  0.00    +0.000 OA
BRANCH  13  15
ATOM     15  O   UNL     1      50.954   6.723  15.492  0.00  0.00    +0.000 OA
ATOM     16  H   UNL     1      50.983   5.785  15.221  0.00  0.00    +0.000 HD
ENDBRANCH  13  15
ENDBRANCH  11  13
ENDBRANCH   5   7
BRANCH   1  17
ATOM     17  C   UNL     1      43.481   4.757  11.087  0.00  0.00    +0.000 C 
BRANCH  17  18
ATOM     18  O   UNL     1      43.512   4.725   9.662  0.00  0.00    +0.000 OA
BRANCH  18  22
ATOM     19  C   UNL     1      46.335   2.212   7.863  0.00  0.00    +0.000 A 
ATOM     20  C   UNL     1      45.408   1.653   8.745  0.00  0.00    +0.000 A 
ATOM     21  C   UNL     1      44.448   2.463   9.364  0.00  0.00    +0.000 A 
ATOM     22  C   UNL     1      44.405   3.838   9.111  0.00  0.00    +0.000 A 
ATOM     23  C   UNL     1      45.338   4.393   8.232  0.00  0.00    +0.000 A 
ATOM     24  C   UNL     1      46.304   3.588   7.616  0.00  0.00    +0.000 A 
BRANCH  19  26
ATOM     25  N   UNL     1      48.396   2.047   6.570  0.00  0.00    +0.000 N 
ATOM     26  C   UNL     1      47.379   1.386   7.207  0.00  0.00    +0.000 C 
ATOM     27  O   UNL     1      47.357   0.163   7.251  0.00  0.00    +0.000 OA
ATOM     28  H   UNL     1      49.145   1.471   6.209  0.00  0.00    +0.000 HD
ATOM     29  H   UNL     1      48.591   3.024   6.730  0.00  0.00    +0.000 HD
ENDBRANCH  19  26
ENDBRANCH  18  22
ENDBRANCH  17  18
ENDBRANCH   1  17
TORSDOF 7
ENDMDL
MODEL 4
REMARK VINA RESULT:    -7.614      3.146      4.263
REMARK INTER + INTRA:         -11.571
REMARK INTER:                 -10.939
REMARK INTRA:                  -0.632
REMARK UNBOUND:                -1.065
REMARK  Name = 
REMARK  7 active torsions:
REMARK  status: ('A' for Active; 'I' for Inactive)
REMARK    1  A    between atoms: C_2  and  C_4
REMARK    2  A    between atoms: C_7  and  O_8
REMARK    3  A    between atoms: O_8  and  C_9
REMARK    4  A    between atoms: C_9  and  C_10
REMARK    5  A    between atoms: C_14  and  N_15
REMARK    6  A    between atoms: C_19  and  C_20
REMARK    7  A    between atoms: C_20  and  O_22
REMARK                            x       y       z     vdW  Elec       q    Type
REMARK                         _______ _______ _______ _____ _____    ______ ____
ROOT
ATOM      1  C   UNL     1      45.818   5.326  12.181  0.00  0.00    +0.000 A 
ATOM      2  C   UNL     1      46.418   6.243  11.315  0.00  0.00    +0.000 A 
ATOM      3  C   UNL     1      47.473   7.030  11.762  0.00  0.00    +0.000 A 
ATOM      4  C   UNL     1      47.934   6.904  13.075  0.00  0.00    +0.000 A 
ATOM      5  C   UNL     1      47.382   5.975  13.968  0.00  0.00    +0.000 A 
ATOM      6  C   UNL     1      46.336   5.174  13.482  0.00  0.00    +0.000 A 
ENDROOT
BRANCH   5   7
ATOM      7  N   UNL     1      47.824   5.877  15.272  0.00  0.00    +0.000 N 
ATOM      8  C   UNL     1      48.671   6.902  15.882  0.00  0.00    +0.000 C 
ATOM      9  C   UNL     1      49.995   6.271  16.305  0.00  0.00    +0.000 C 
ATOM     10  C   UNL     1      49.766   5.051  17.200  0.00  0.00    +0.000 C 
ATOM     11  C   UNL     1      48.799   4.053  16.548  0.00  0.00    +0.000 C 
ATOM     12  C   UNL     1      47.491   4.733  16.126  0.00  0.00    +0.000 C 
BRANCH  11  13
ATOM     13  C   UNL     1      48.488   2.927  17.505  0.00  0.00    +0.000 C 
ATOM     14  O   UNL     1      47.362   2.575  17.820  0.00  0.00    +0.000 OA
BRANCH  13  15
ATOM     15  O   UNL     1      49.593   2.349  18.029  0.00  0.00    +0.000 OA
ATOM     16  H   UNL     1      49.900   1.555  17.551  0.00  0.00    +0.000 HD
ENDBRANCH  13  15
ENDBRANCH  11  13
ENDBRANCH   5   7
BRANCH   1  17
ATOM     17  C   UNL     1      44.570   4.585  11.764  0.00  0.00    +0.000 C 
BRANCH  17  18
ATOM     18  O   UNL     1      44.288   4.765  10.378  0.00  0.00    +0.000 OA
BRANCH  18  22
ATOM     19  C   UNL     1      46.477   2.454   7.659  0.00  0.00    +0.000 A 
ATOM     20  C   UNL     1      45.734   1.802   8.646  0.00  0.00    +0.000 A 
ATOM     21  C   UNL     1      44.989   2.542   9.572  0.00  0.00    +0.000 A 
ATOM     22  C   UNL     1      44.978   3.940   9.523  0.00  0.00    +0.000 A 
ATOM     23  C   UNL     1      45.727   4.588   8.537  0.00  0.00    +0.000 A 
ATOM     24  C   UNL     1      46.478   3.852   7.614  0.00  0.00    +0.000 A 
BRANCH  19  26
ATOM     25  N   UNL     1      48.314   2.374   6.058  0.00  0.00    +0.000 N 
ATOM     26  C   UNL     1      47.295   1.700   6.677  0.00  0.00    +0.000 C 
ATOM     27  O   UNL     1      47.092   0.516   6.442  0.00  0.00    +0.000 OA
ATOM     28  H   UNL     1      48.918   1.822   5.463  0.00  0.00    +0.000 HD
ATOM     29  H   UNL     1      48.674   3.251   6.407  0.00  0.00    +0.000 HD
ENDBRANCH  19  26
ENDBRANCH  18  22
ENDBRANCH  17  18
ENDBRANCH   1  17
TORSDOF 7
ENDMDL
MODEL 5
REMARK VINA RESULT:    -7.071      4.838      8.313
REMARK INTER + INTRA:         -10.823
REMARK INTER:                  -9.923
REMARK INTRA:                  -0.900
REMARK UNBOUND:                -1.065
REMARK  Name = 
REMARK  7 active torsions:
REMARK  status: ('A' for Active; 'I' for Inactive)
REMARK    1  A    between atoms: C_2  and  C_4
REMARK    2  A    between atoms: C_7  and  O_8
REMARK    3  A    between atoms: O_8  and  C_9
REMARK    4  A    between atoms: C_9  and  C_10
REMARK    5  A    between atoms: C_14  and  N_15
REMARK    6  A    between atoms: C_19  and  C_20
REMARK    7  A    between atoms: C_20  and  O_22
REMARK                            x       y       z     vdW  Elec       q    Type
REMARK                         _______ _______ _______ _____ _____    ______ ____
ROOT
ATOM      1  C   UNL     1      47.417   4.960  15.174  0.00  0.00    +0.000 A 
ATOM      2  C   UNL     1      48.204   6.078  14.890  0.00  0.00    +0.000 A 
ATOM      3  C   UNL     1      47.961   6.822  13.742  0.00  0.00    +0.000 A 
ATOM      4  C   UNL     1      46.930   6.454  12.873  0.00  0.00    +0.000 A 
ATOM      5  C   UNL     1      46.096   5.358  13.136  0.00  0.00    +0.000 A 
ATOM      6  C   UNL     1      46.347   4.640  14.317  0.00  0.00    +0.000 A 
ENDROOT
BRANCH   5   7
ATOM      7  N   UNL     1      45.098   4.983  12.259  0.00  0.00    +0.000 N 
ATOM      8  C   UNL     1      43.870   4.332  12.716  0.00  0.00    +0.000 C 
ATOM      9  C   UNL     1      43.759   2.957  12.062  0.00  0.00    +0.000 C 
ATOM     10  C   UNL     1      43.871   3.058  10.539  0.00  0.00    +0.000 C 
ATOM     11  C   UNL     1      45.130   3.828  10.121  0.00  0.00    +0.000 C 
ATOM     12  C   UNL     1      45.207   5.195  10.813  0.00  0.00    +0.000 C 
BRANCH  11  13
ATOM     13  C   UNL     1      45.147   4.026   8.624  0.00  0.00    +0.000 C 
ATOM     14  O   UNL     1      45.989   4.673   8.019  0.00  0.00    +0.000 OA
BRANCH  13  15
ATOM     15  O   UNL     1      44.101   3.444   7.994  0.00  0.00    +0.000 OA
ATOM     16  H   UNL     1      44.345   2.709   7.401  0.00  0.00    +0.000 HD
ENDBRANCH  13  15
ENDBRANCH  11  13
ENDBRANCH   5   7
BRANCH   1  17
ATOM     17  C   UNL     1      47.773   4.049  16.325  0.00  0.00    +0.000 C 
BRANCH  17  18
ATOM     18  O   UNL     1      48.767   4.626  17.168  0.00  0.00    +0.000 OA
BRANCH  18  22
ATOM     19  C   UNL     1      52.004   2.045  17.790  0.00  0.00    +0.000 A 
ATOM     20  C   UNL     1      52.162   3.400  18.089  0.00  0.00    +0.000 A 
ATOM     21  C   UNL     1      51.101   4.293  17.895  0.00  0.00    +0.000 A 
ATOM     22  C   UNL     1      49.872   3.842  17.399  0.00  0.00    +0.000 A 
ATOM     23  C   UNL     1      49.721   2.487  17.097  0.00  0.00    +0.000 A 
ATOM     24  C   UNL     1      50.781   1.593  17.283  0.00  0.00    +0.000 A 
BRANCH  19  26
ATOM     25  N   UNL     1      53.238   0.087  17.024  0.00  0.00    +0.000 N 
ATOM     26  C   UNL     1      53.115   1.077  17.963  0.00  0.00    +0.000 C 
ATOM     27  O   UNL     1      53.910   1.166  18.889  0.00  0.00    +0.000 OA
ATOM     28  H   UNL     1      54.054  -0.507  17.106  0.00  0.00    +0.000 HD
ATOM     29  H   UNL     1      52.779   0.132  16.126  0.00  0.00    +0.000 HD
ENDBRANCH  19  26
ENDBRANCH  18  22
ENDBRANCH  17  18
ENDBRANCH   1  17
TORSDOF 7
ENDMDL
MODEL 6
REMARK VINA RESULT:    -7.008      3.891      6.198
REMARK INTER + INTRA:         -10.735
REMARK INTER:                  -9.624
REMARK INTRA:                  -1.111
REMARK UNBOUND:                -1.065
REMARK  Name = 
REMARK  7 active torsions:
REMARK  status: ('A' for Active; 'I' for Inactive)
REMARK    1  A    between atoms: C_2  and  C_4
REMARK    2  A    between atoms: C_7  and  O_8
REMARK    3  A    between atoms: O_8  and  C_9
REMARK    4  A    between atoms: C_9  and  C_10
REMARK    5  A    between atoms: C_14  and  N_15
REMARK    6  A    between atoms: C_19  and  C_20
REMARK    7  A    between atoms: C_20  and  O_22
REMARK                            x       y       z     vdW  Elec       q    Type
REMARK                         _______ _______ _______ _____ _____    ______ ____
ROOT
ATOM      1  C   UNL     1      49.108   7.828  13.143  0.00  0.00    +0.000 A 
ATOM      2  C   UNL     1      50.281   8.552  12.922  0.00  0.00    +0.000 A 
ATOM      3  C   UNL     1      51.295   8.535  13.872  0.00  0.00    +0.000 A 
ATOM      4  C   UNL     1      51.141   7.794  15.047  0.00  0.00    +0.000 A 
ATOM      5  C   UNL     1      49.993   7.029  15.296  0.00  0.00    +0.000 A 
ATOM      6  C   UNL     1      48.997   7.042  14.306  0.00  0.00    +0.000 A 
ENDROOT
BRANCH   5   7
ATOM      7  N   UNL     1      49.837   6.322  16.471  0.00  0.00    +0.000 N 
ATOM      8  C   UNL     1      50.980   5.923  17.293  0.00  0.00    +0.000 C 
ATOM      9  C   UNL     1      51.011   4.400  17.402  0.00  0.00    +0.000 C 
ATOM     10  C   UNL     1      49.673   3.854  17.904  0.00  0.00    +0.000 C 
ATOM     11  C   UNL     1      48.503   4.378  17.061  0.00  0.00    +0.000 C 
ATOM     12  C   UNL     1      48.521   5.909  16.966  0.00  0.00    +0.000 C 
BRANCH  11  13
ATOM     13  C   UNL     1      47.189   3.931  17.656  0.00  0.00    +0.000 C 
ATOM     14  O   UNL     1      46.632   2.876  17.396  0.00  0.00    +0.000 OA
BRANCH  13  15
ATOM     15  O   UNL     1      46.645   4.841  18.497  0.00  0.00    +0.000 OA
ATOM     16  H   UNL     1      46.650   5.757  18.159  0.00  0.00    +0.000 HD
ENDBRANCH  13  15
ENDBRANCH  11  13
ENDBRANCH   5   7
BRANCH   1  17
ATOM     17  C   UNL     1      47.935   7.968  12.201  0.00  0.00    +0.000 C 
BRANCH  17  18
ATOM     18  O   UNL     1      46.709   7.592  12.824  0.00  0.00    +0.000 OA
BRANCH  18  22
ATOM     19  C   UNL     1      44.749   4.185  11.385  0.00  0.00    +0.000 A 
ATOM     20  C   UNL     1      45.240   5.114  10.464  0.00  0.00    +0.000 A 
ATOM     21  C   UNL     1      45.902   6.264  10.909  0.00  0.00    +0.000 A 
ATOM     22  C   UNL     1      46.079   6.501  12.276  0.00  0.00    +0.000 A 
ATOM     23  C   UNL     1      45.582   5.572  13.194  0.00  0.00    +0.000 A 
ATOM     24  C   UNL     1      44.914   4.423  12.753  0.00  0.00    +0.000 A 
BRANCH  19  26
ATOM     25  N   UNL     1      44.589   2.222   9.948  0.00  0.00    +0.000 N 
ATOM     26  C   UNL     1      44.023   2.967  10.948  0.00  0.00    +0.000 C 
ATOM     27  O   UNL     1      42.973   2.618  11.472  0.00  0.00    +0.000 OA
ATOM     28  H   UNL     1      44.130   1.348   9.727  0.00  0.00    +0.000 HD
ATOM     29  H   UNL     1      45.557   2.325   9.678  0.00  0.00    +0.000 HD
ENDBRANCH  19  26
ENDBRANCH  18  22
ENDBRANCH  17  18
ENDBRANCH   1  17
TORSDOF 7
ENDMDL
MODEL 7
REMARK VINA RESULT:    -6.986      3.890      8.462
REMARK INTER + INTRA:         -10.705
REMARK INTER:                  -9.675
REMARK INTRA:                  -1.030
REMARK UNBOUND:                -1.065
REMARK  Name = 
REMARK  7 active torsions:
REMARK  status: ('A' for Active; 'I' for Inactive)
REMARK    1  A    between atoms: C_2  and  C_4
REMARK    2  A    between atoms: C_7  and  O_8
REMARK    3  A    between atoms: O_8  and  C_9
REMARK    4  A    between atoms: C_9  and  C_10
REMARK    5  A    between atoms: C_14  and  N_15
REMARK    6  A    between atoms: C_19  and  C_20
REMARK    7  A    between atoms: C_20  and  O_22
REMARK                            x       y       z     vdW  Elec       q    Type
REMARK                         _______ _______ _______ _____ _____    ______ ____
ROOT
ATOM      1  C   UNL     1      46.951   7.348  13.234  0.00  0.00    +0.000 A 
ATOM      2  C   UNL     1      46.636   8.667  12.901  0.00  0.00    +0.000 A 
ATOM      3  C   UNL     1      45.532   8.936  12.102  0.00  0.00    +0.000 A 
ATOM      4  C   UNL     1      44.735   7.887  11.633  0.00  0.00    +0.000 A 
ATOM      5  C   UNL     1      44.996   6.551  11.968  0.00  0.00    +0.000 A 
ATOM      6  C   UNL     1      46.102   6.312  12.799  0.00  0.00    +0.000 A 
ENDROOT
BRANCH   5   7
ATOM      7  N   UNL     1      44.222   5.519  11.477  0.00  0.00    +0.000 N 
ATOM      8  C   UNL     1      43.103   4.961  12.239  0.00  0.00    +0.000 C 
ATOM      9  C   UNL     1      43.364   3.480  12.499  0.00  0.00    +0.000 C 
ATOM     10  C   UNL     1      43.655   2.731  11.196  0.00  0.00    +0.000 C 
ATOM     11  C   UNL     1      44.774   3.413  10.397  0.00  0.00    +0.000 C 
ATOM     12  C   UNL     1      44.477   4.901  10.173  0.00  0.00    +0.000 C 
BRANCH  11  13
ATOM     13  C   UNL     1      44.949   2.734   9.060  0.00  0.00    +0.000 C 
ATOM     14  O   UNL     1      45.661   1.762   8.864  0.00  0.00    +0.000 OA
BRANCH  13  15
ATOM     15  O   UNL     1      44.262   3.333   8.061  0.00  0.00    +0.000 OA
ATOM     16  H   UNL     1      44.271   2.846   7.215  0.00  0.00    +0.000 HD
ENDBRANCH  13  15
ENDBRANCH  11  13
ENDBRANCH   5   7
BRANCH   1  17
ATOM     17  C   UNL     1      48.236   7.029  13.960  0.00  0.00    +0.000 C 
BRANCH  17  18
ATOM     18  O   UNL     1      48.286   5.665  14.372  0.00  0.00    +0.000 OA
BRANCH  18  22
ATOM     19  C   UNL     1      48.170   5.226  18.534  0.00  0.00    +0.000 A 
ATOM     20  C   UNL     1      47.482   4.302  17.744  0.00  0.00    +0.000 A 
ATOM     21  C   UNL     1      47.500   4.417  16.349  0.00  0.00    +0.000 A 
ATOM     22  C   UNL     1      48.202   5.455  15.728  0.00  0.00    +0.000 A 
ATOM     23  C   UNL     1      48.885   6.380  16.522  0.00  0.00    +0.000 A 
ATOM     24  C   UNL     1      48.864   6.273  17.917  0.00  0.00    +0.000 A 
BRANCH  19  26
ATOM     25  N   UNL     1      48.580   3.977  20.587  0.00  0.00    +0.000 N 
ATOM     26  C   UNL     1      48.154   5.146  20.015  0.00  0.00    +0.000 C 
ATOM     27  O   UNL     1      47.800   6.091  20.709  0.00  0.00    +0.000 OA
ATOM     28  H   UNL     1      48.650   3.973  21.596  0.00  0.00    +0.000 HD
ATOM     29  H   UNL     1      49.114   3.288  20.077  0.00  0.00    +0.000 HD
ENDBRANCH  19  26
ENDBRANCH  18  22
ENDBRANCH  17  18
ENDBRANCH   1  17
TORSDOF 7
ENDMDL
MODEL 8
REMARK VINA RESULT:    -6.802      4.656      6.999
REMARK INTER + INTRA:         -10.451
REMARK INTER:                  -9.374
REMARK INTRA:                  -1.078
REMARK UNBOUND:                -1.065
REMARK  Name = 
REMARK  7 active torsions:
REMARK  status: ('A' for Active; 'I' for Inactive)
REMARK    1  A    between atoms: C_2  and  C_4
REMARK    2  A    between atoms: C_7  and  O_8
REMARK    3  A    between atoms: O_8  and  C_9
REMARK    4  A    between atoms: C_9  and  C_10
REMARK    5  A    between atoms: C_14  and  N_15
REMARK    6  A    between atoms: C_19  and  C_20
REMARK    7  A    between atoms: C_20  and  O_22
REMARK                            x       y       z     vdW  Elec       q    Type
REMARK                         _______ _______ _______ _____ _____    ______ ____
ROOT
ATOM      1  C   UNL     1      48.811   7.638  15.274  0.00  0.00    +0.000 A 
ATOM      2  C   UNL     1      48.362   8.761  15.974  0.00  0.00    +0.000 A 
ATOM      3  C   UNL     1      48.426   8.783  17.362  0.00  0.00    +0.000 A 
ATOM      4  C   UNL     1      48.941   7.684  18.057  0.00  0.00    +0.000 A 
ATOM      5  C   UNL     1      49.430   6.551  17.393  0.00  0.00    +0.000 A 
ATOM      6  C   UNL     1      49.379   6.567  15.990  0.00  0.00    +0.000 A 
ENDROOT
BRANCH   5   7
ATOM      7  N   UNL     1      49.910   5.458  18.088  0.00  0.00    +0.000 N 
ATOM      8  C   UNL     1      50.760   5.605  19.270  0.00  0.00    +0.000 C 
ATOM      9  C   UNL     1      52.104   4.930  19.007  0.00  0.00    +0.000 C 
ATOM     10  C   UNL     1      51.916   3.478  18.560  0.00  0.00    +0.000 C 
ATOM     11  C   UNL     1      50.945   3.378  17.376  0.00  0.00    +0.000 C 
ATOM     12  C   UNL     1      49.617   4.082  17.679  0.00  0.00    +0.000 C 
BRANCH  11  13
ATOM     13  C   UNL     1      50.677   1.930  17.042  0.00  0.00    +0.000 C 
ATOM     14  O   UNL     1      51.301   0.985  17.499  0.00  0.00    +0.000 OA
BRANCH  13  15
ATOM     15  O   UNL     1      49.684   1.764  16.139  0.00  0.00    +0.000 OA
ATOM     16  H   UNL     1      49.169   0.942  16.250  0.00  0.00    +0.000 HD
ENDBRANCH  13  15
ENDBRANCH  11  13
ENDBRANCH   5   7
BRANCH   1  17
ATOM     17  C   UNL     1      48.596   7.533  13.783  0.00  0.00    +0.000 C 
BRANCH  17  18
ATOM     18  O   UNL     1      48.405   6.181  13.371  0.00  0.00    +0.000 OA
BRANCH  18  22
ATOM     19  C   UNL     1      44.497   5.304  12.155  0.00  0.00    +0.000 A 
ATOM     20  C   UNL     1      45.004   4.665  13.289  0.00  0.00    +0.000 A 
ATOM     21  C   UNL     1      46.307   4.935  13.726  0.00  0.00    +0.000 A 
ATOM     22  C   UNL     1      47.117   5.843  13.035  0.00  0.00    +0.000 A 
ATOM     23  C   UNL     1      46.607   6.475  11.898  0.00  0.00    +0.000 A 
ATOM     24  C   UNL     1      45.308   6.203  11.454  0.00  0.00    +0.000 A 
BRANCH  19  26
ATOM     25  N   UNL     1      42.217   6.044  11.711  0.00  0.00    +0.000 N 
ATOM     26  C   UNL     1      43.129   5.024  11.652  0.00  0.00    +0.000 C 
ATOM     27  O   UNL     1      42.825   3.937  11.178  0.00  0.00    +0.000 OA
ATOM     28  H   UNL     1      41.319   5.865  11.281  0.00  0.00    +0.000 HD
ATOM     29  H   UNL     1      42.489   7.007  11.845  0.00  0.00    +0.000 HD
ENDBRANCH  19  26
ENDBRANCH  18  22
ENDBRANCH  17  18
ENDBRANCH   1  17
TORSDOF 7
ENDMDL
MODEL 9
REMARK VINA RESULT:    -6.116      5.078      8.524
REMARK INTER + INTRA:          -9.505
REMARK INTER:                  -8.462
REMARK INTRA:                  -1.043
REMARK UNBOUND:                -1.065
REMARK  Name = 
REMARK  7 active torsions:
REMARK  status: ('A' for Active; 'I' for Inactive)
REMARK    1  A    between atoms: C_2  and  C_4
REMARK    2  A    between atoms: C_7  and  O_8
REMARK    3  A    between atoms: O_8  and  C_9
REMARK    4  A    between atoms: C_9  and  C_10
REMARK    5  A    between atoms: C_14  and  N_15
REMARK    6  A    between atoms: C_19  and  C_20
REMARK    7  A    between atoms: C_20  and  O_22
REMARK                            x       y       z     vdW  Elec       q    Type
REMARK                         _______ _______ _______ _____ _____    ______ ____
ROOT
ATOM      1  C   UNL     1      49.284   6.471  16.094  0.00  0.00    +0.000 A 
ATOM      2  C   UNL     1      50.309   7.345  15.726  0.00  0.00    +0.000 A 
ATOM      3  C   UNL     1      50.358   7.848  14.431  0.00  0.00    +0.000 A 
ATOM      4  C   UNL     1      49.383   7.480  13.499  0.00  0.00    +0.000 A 
ATOM      5  C   UNL     1      48.320   6.629  13.836  0.00  0.00    +0.000 A 
ATOM      6  C   UNL     1      48.280   6.159  15.158  0.00  0.00    +0.000 A 
ENDROOT
BRANCH   5   7
ATOM      7  N   UNL     1      47.377   6.248  12.902  0.00  0.00    +0.000 N 
ATOM      8  C   UNL     1      46.988   7.120  11.794  0.00  0.00    +0.000 C 
ATOM      9  C   UNL     1      45.495   7.422  11.894  0.00  0.00    +0.000 C 
ATOM     10  C   UNL     1      44.674   6.133  11.979  0.00  0.00    +0.000 C 
ATOM     11  C   UNL     1      45.185   5.217  13.100  0.00  0.00    +0.000 C 
ATOM     12  C   UNL     1      46.691   4.955  12.968  0.00  0.00    +0.000 C 
BRANCH  11  13
ATOM     13  C   UNL     1      44.446   3.901  13.077  0.00  0.00    +0.000 C 
ATOM     14  O   UNL     1      43.293   3.745  13.447  0.00  0.00    +0.000 OA
BRANCH  13  15
ATOM     15  O   UNL     1      45.202   2.870  12.634  0.00  0.00    +0.000 OA
ATOM     16  H   UNL     1      44.994   2.010  13.045  0.00  0.00    +0.000 HD
ENDBRANCH  13  15
ENDBRANCH  11  13
ENDBRANCH   5   7
BRANCH   1  17
ATOM     17  C   UNL     1      49.311   5.790  17.442  0.00  0.00    +0.000 C 
BRANCH  17  18
ATOM     18  O   UNL     1      49.028   4.396  17.336  0.00  0.00    +0.000 OA
BRANCH  18  22
ATOM     19  C   UNL     1      52.461   2.049  17.810  0.00  0.00    +0.000 A 
ATOM     20  C   UNL     1      51.292   1.439  17.350  0.00  0.00    +0.000 A 
ATOM     21  C   UNL     1      50.125   2.193  17.179  0.00  0.00    +0.000 A 
ATOM     22  C   UNL     1      50.112   3.562  17.465  0.00  0.00    +0.000 A 
ATOM     23  C   UNL     1      51.283   4.167  17.929  0.00  0.00    +0.000 A 
ATOM     24  C   UNL     1      52.450   3.416  18.108  0.00  0.00    +0.000 A 
BRANCH  19  26
ATOM     25  N   UNL     1      54.245   1.282  19.285  0.00  0.00    +0.000 N 
ATOM     26  C   UNL     1      53.709   1.275  18.024  0.00  0.00    +0.000 C 
ATOM     27  O   UNL     1      54.232   0.631  17.123  0.00  0.00    +0.000 OA
ATOM     28  H   UNL     1      55.042   0.676  19.434  0.00  0.00    +0.000 HD
ATOM     29  H   UNL     1      53.719   1.574  20.095  0.00  0.00    +0.000 HD
ENDBRANCH  19  26
ENDBRANCH  18  22
ENDBRANCH  17  18
ENDBRANCH   1  17
TORSDOF 7
ENDMDL
