MODEL 1
REMARK VINA RESULT:    -7.663      0.000      0.000
REMARK INTER + INTRA:         -11.828
REMARK INTER:                 -11.023
REMARK INTRA:                  -0.806
REMARK UNBOUND:                -0.806
REMARK  Name = 
REMARK  8 active torsions:
REMARK  status: ('A' for Active; 'I' for Inactive)
REMARK    1  A    between atoms: C_2  and  C_4
REMARK    2  A    between atoms: N_8  and  C_9
REMARK    3  A    between atoms: C_9  and  C_10
REMARK    4  A    between atoms: C_10  and  C_11
REMARK    5  A    between atoms: C_15  and  C_16
REMARK    6  A    between atoms: N_19  and  C_20
REMARK    7  A    between atoms: C_20  and  C_21
REMARK    8  A    between atoms: C_21  and  O_22
REMARK                            x       y       z     vdW  Elec       q    Type
REMARK                         _______ _______ _______ _____ _____    ______ ____
ROOT
ATOM      1  C   UNL     1      45.436   5.524  12.803  0.00  0.00    +0.000 A 
ATOM      2  C   UNL     1      46.151   4.715  13.683  0.00  0.00    +0.000 A 
ATOM      3  N   UNL     1      47.452   4.882  13.988  0.00  0.00    +0.000 NA
ATOM      4  C   UNL     1      48.090   5.897  13.378  0.00  0.00    +0.000 A 
ATOM      5  C   UNL     1      47.497   6.785  12.476  0.00  0.00    +0.000 A 
ATOM      6  C   UNL     1      46.133   6.592  12.214  0.00  0.00    +0.000 A 
ENDROOT
BRANCH   5   7
ATOM      7  C   UNL     1      48.400   7.797  11.792  0.00  0.00    +0.000 C 
ATOM      8  C   UNL     1      49.886   7.803  12.169  0.00  0.00    +0.000 C 
ATOM      9  C   UNL     1      50.243   8.659  13.388  0.00  0.00    +0.000 C 
ATOM     10  N   UNL     1      49.654  10.005  13.326  0.00  0.00    +0.000 NA
ATOM     11  C   UNL     1      48.188   9.915  13.189  0.00  0.00    +0.000 C 
ATOM     12  C   UNL     1      47.803   9.208  11.893  0.00  0.00    +0.000 C 
BRANCH  10  13
ATOM     13  C   UNL     1      49.978  10.800  14.538  0.00  0.00    +0.000 C 
BRANCH  13  14
ATOM     14  C   UNL     1      49.500  10.157  15.850  0.00  0.00    +0.000 C 
BRANCH  14  15
ATOM     15  O   UNL     1      48.299  10.773  16.301  0.00  0.00    +0.000 OA
ATOM     16  H   UNL     1      48.064  11.420  15.607  0.00  0.00    +0.000 HD
ENDBRANCH  14  15
ENDBRANCH  13  14
ENDBRANCH  10  13
ENDBRANCH   5   7
BRANCH   1  17
ATOM     17  C   UNL     1      43.980   5.271  12.447  0.00  0.00    +0.000 C 
BRANCH  17  18
ATOM     18  C   UNL     1      43.676   5.290  10.939  0.00  0.00    +0.000 C 
BRANCH  18  23
ATOM     19  C   UNL     1      46.404   2.414   7.853  0.00  0.00    +0.000 A 
ATOM     20  C   UNL     1      46.136   3.765   7.764  0.00  0.00    +0.000 A 
ATOM     21  C   UNL     1      45.166   4.300   8.612  0.00  0.00    +0.000 A 
ATOM     22  C   UNL     1      44.517   3.487   9.535  0.00  0.00    +0.000 A 
ATOM     23  N   UNL     1      43.512   3.952  10.387  0.00  0.00    +0.000 N 
ATOM     24  N   UNL     1      44.819   2.171   9.587  0.00  0.00    +0.000 NA
ATOM     25  N   UNL     1      45.768   1.619   8.743  0.00  0.00    +0.000 NA
ATOM     26  H   UNL     1      43.315   3.213  11.059  0.00  0.00    +0.000 HD
BRANCH  19  28
ATOM     27  N   UNL     1      48.446   2.556   6.541  0.00  0.00    +0.000 N 
ATOM     28  C   UNL     1      47.396   1.775   6.943  0.00  0.00    +0.000 C 
ATOM     29  O   UNL     1      47.290   0.612   6.579  0.00  0.00    +0.000 OA
ATOM     30  H   UNL     1      49.159   2.153   5.949  0.00  0.00    +0.000 HD
ATOM     31  H   UNL     1      48.546   3.510   6.870  0.00  0.00    +0.000 HD
ENDBRANCH  19  28
ENDBRANCH  18  23
ENDBRANCH  17  18
ENDBRANCH   1  17
TORSDOF 8
ENDMDL
MODEL 2
REMARK VINA RESULT:    -7.626      1.891      2.261
REMARK INTER + INTRA:         -11.776
REMARK INTER:                 -10.761
REMARK INTRA:                  -1.015
REMARK UNBOUND:                -0.806
REMARK  Name = 
REMARK  8 active torsions:
REMARK  status: ('A' for Active; 'I' for Inactive)
REMARK    1  A    between atoms: C_2  and  C_4
REMARK    2  A    between atoms: N_8  and  C_9
REMARK    3  A    between atoms: C_9  and  C_10
REMARK    4  A    between atoms: C_10  and  C_11
REMARK    5  A    between atoms: C_15  and  C_16
REMARK    6  A    between atoms: N_19  and  C_20
REMARK    7  A    between atoms: C_20  and  C_21
REMARK    8  A    between atoms: C_21  and  O_22
REMARK                            x       y       z     vdW  Elec       q    Type
REMARK                         _______ _______ _______ _____ _____    ______ ____
ROOT
ATOM      1  C   UNL     1      45.165   5.474  11.851  0.00  0.00    +0.000 A 
ATOM      2  C   UNL     1      44.129   6.379  11.643  0.00  0.00    +0.000 A 
ATOM      3  N   UNL     1      44.289   7.712  11.530  0.00  0.00    +0.000 NA
ATOM      4  C   UNL     1      45.544   8.181  11.646  0.00  0.00    +0.000 A 
ATOM      5  C   UNL     1      46.677   7.387  11.855  0.00  0.00    +0.000 A 
ATOM      6  C   UNL     1      46.464   6.004  11.932  0.00  0.00    +0.000 A 
ENDROOT
BRANCH   5   7
ATOM      7  C   UNL     1      48.000   8.098  12.081  0.00  0.00    +0.000 C 
ATOM      8  C   UNL     1      49.205   7.251  12.509  0.00  0.00    +0.000 C 
ATOM      9  C   UNL     1      49.337   7.025  14.018  0.00  0.00    +0.000 C 
ATOM     10  N   UNL     1      49.196   8.268  14.791  0.00  0.00    +0.000 NA
ATOM     11  C   UNL     1      47.904   8.911  14.491  0.00  0.00    +0.000 C 
ATOM     12  C   UNL     1      47.814   9.299  13.018  0.00  0.00    +0.000 C 
BRANCH  10  13
ATOM     13  C   UNL     1      49.285   8.015  16.252  0.00  0.00    +0.000 C 
BRANCH  13  14
ATOM     14  C   UNL     1      49.090   6.542  16.641  0.00  0.00    +0.000 C 
BRANCH  14  15
ATOM     15  O   UNL     1      47.862   6.367  17.340  0.00  0.00    +0.000 OA
ATOM     16  H   UNL     1      48.033   5.655  17.987  0.00  0.00    +0.000 HD
ENDBRANCH  14  15
ENDBRANCH  13  14
ENDBRANCH  10  13
ENDBRANCH   5   7
BRANCH   1  17
ATOM     17  C   UNL     1      44.936   3.981  12.022  0.00  0.00    +0.000 C 
BRANCH  17  18
ATOM     18  C   UNL     1      43.687   3.438  11.306  0.00  0.00    +0.000 C 
BRANCH  18  23
ATOM     19  C   UNL     1      46.484   2.657   7.207  0.00  0.00    +0.000 A 
ATOM     20  C   UNL     1      45.646   3.715   7.493  0.00  0.00    +0.000 A 
ATOM     21  C   UNL     1      44.797   3.603   8.594  0.00  0.00    +0.000 A 
ATOM     22  C   UNL     1      44.827   2.462   9.389  0.00  0.00    +0.000 A 
ATOM     23  N   UNL     1      43.980   2.272  10.483  0.00  0.00    +0.000 N 
ATOM     24  N   UNL     1      45.671   1.455   9.070  0.00  0.00    +0.000 NA
ATOM     25  N   UNL     1      46.509   1.542   7.973  0.00  0.00    +0.000 NA
ATOM     26  H   UNL     1      44.304   1.444  10.981  0.00  0.00    +0.000 HD
BRANCH  19  28
ATOM     27  N   UNL     1      48.698   2.397   6.237  0.00  0.00    +0.000 N 
ATOM     28  C   UNL     1      47.381   2.697   6.018  0.00  0.00    +0.000 C 
ATOM     29  O   UNL     1      46.967   2.975   4.900  0.00  0.00    +0.000 OA
ATOM     30  H   UNL     1      49.335   2.381   5.453  0.00  0.00    +0.000 HD
ATOM     31  H   UNL     1      49.030   2.137   7.160  0.00  0.00    +0.000 HD
ENDBRANCH  19  28
ENDBRANCH  18  23
ENDBRANCH  17  18
ENDBRANCH   1  17
TORSDOF 8
ENDMDL
MODEL 3
REMARK VINA RESULT:    -7.402      2.216      2.786
REMARK INTER + INTRA:         -11.453
REMARK INTER:                 -10.559
REMARK INTRA:                  -0.894
REMARK UNBOUND:                -0.806
REMARK  Name = 
REMARK  8 active torsions:
REMARK  status: ('A' for Active; 'I' for Inactive)
REMARK    1  A    between atoms: C_2  and  C_4
REMARK    2  A    between atoms: N_8  and  C_9
REMARK    3  A    between atoms: C_9  and  C_10
REMARK    4  A    between atoms: C_10  and  C_11
REMARK    5  A    between atoms: C_15  and  C_16
REMARK    6  A    between atoms: N_19  and  C_20
REMARK    7  A    between atoms: C_20  and  C_21
REMARK    8  A    between atoms: C_21  and  O_22
REMARK                            x       y       z     vdW  Elec       q    Type
REMARK                         _______ _______ _______ _____ _____    ______ ____
ROOT
ATOM      1  C   UNL     1      45.130   5.345  12.027  0.00  0.00    +0.000 A 
ATOM      2  C   UNL     1      44.262   6.234  11.400  0.00  0.00    +0.000 A 
ATOM      3  N   UNL     1      44.419   7.572  11.382  0.00  0.00    +0.000 NA
ATOM      4  C   UNL     1      45.487   8.064  12.035  0.00  0.00    +0.000 A 
ATOM      5  C   UNL     1      46.438   7.288  12.705  0.00  0.00    +0.000 A 
ATOM      6  C   UNL     1      46.251   5.899  12.669  0.00  0.00    +0.000 A 
ENDROOT
BRANCH   5   7
ATOM      7  C   UNL     1      47.514   8.020  13.490  0.00  0.00    +0.000 C 
ATOM      8  C   UNL     1      47.960   9.397  12.982  0.00  0.00    +0.000 C 
ATOM      9  C   UNL     1      49.074   9.372  11.932  0.00  0.00    +0.000 C 
ATOM     10  N   UNL     1      50.195   8.503  12.317  0.00  0.00    +0.000 NA
ATOM     11  C   UNL     1      49.716   7.132  12.571  0.00  0.00    +0.000 C 
ATOM     12  C   UNL     1      48.723   7.106  13.730  0.00  0.00    +0.000 C 
BRANCH  10  13
ATOM     13  C   UNL     1      51.242   8.462  11.264  0.00  0.00    +0.000 C 
BRANCH  13  14
ATOM     14  C   UNL     1      52.649   8.810  11.773  0.00  0.00    +0.000 C 
BRANCH  14  15
ATOM     15  O   UNL     1      53.302   7.648  12.274  0.00  0.00    +0.000 OA
ATOM     16  H   UNL     1      53.103   6.942  11.630  0.00  0.00    +0.000 HD
ENDBRANCH  14  15
ENDBRANCH  13  14
ENDBRANCH  10  13
ENDBRANCH   5   7
BRANCH   1  17
ATOM     17  C   UNL     1      44.890   3.845  12.066  0.00  0.00    +0.000 C 
BRANCH  17  18
ATOM     18  C   UNL     1      43.629   3.377  11.318  0.00  0.00    +0.000 C 
BRANCH  18  23
ATOM     19  C   UNL     1      46.480   2.651   7.246  0.00  0.00    +0.000 A 
ATOM     20  C   UNL     1      45.684   3.732   7.562  0.00  0.00    +0.000 A 
ATOM     21  C   UNL     1      44.807   3.611   8.640  0.00  0.00    +0.000 A 
ATOM     22  C   UNL     1      44.767   2.436   9.382  0.00  0.00    +0.000 A 
ATOM     23  N   UNL     1      43.887   2.237  10.449  0.00  0.00    +0.000 N 
ATOM     24  N   UNL     1      45.571   1.406   9.036  0.00  0.00    +0.000 NA
ATOM     25  N   UNL     1      46.437   1.503   7.961  0.00  0.00    +0.000 NA
ATOM     26  H   UNL     1      44.162   1.374  10.915  0.00  0.00    +0.000 HD
BRANCH  19  28
ATOM     27  N   UNL     1      48.732   2.494   6.342  0.00  0.00    +0.000 N 
ATOM     28  C   UNL     1      47.404   2.702   6.079  0.00  0.00    +0.000 C 
ATOM     29  O   UNL     1      47.004   2.910   4.941  0.00  0.00    +0.000 OA
ATOM     30  H   UNL     1      49.389   2.489   5.575  0.00  0.00    +0.000 HD
ATOM     31  H   UNL     1      49.054   2.291   7.282  0.00  0.00    +0.000 HD
ENDBRANCH  19  28
ENDBRANCH  18  23
ENDBRANCH  17  18
ENDBRANCH   1  17
TORSDOF 8
ENDMDL
MODEL 4
REMARK VINA RESULT:    -7.320      3.845      8.581
REMARK INTER + INTRA:         -11.335
REMARK INTER:                 -10.619
REMARK INTRA:                  -0.716
REMARK UNBOUND:                -0.806
REMARK  Name = 
REMARK  8 active torsions:
REMARK  status: ('A' for Active; 'I' for Inactive)
REMARK    1  A    between atoms: C_2  and  C_4
REMARK    2  A    between atoms: N_8  and  C_9
REMARK    3  A    between atoms: C_9  and  C_10
REMARK    4  A    between atoms: C_10  and  C_11
REMARK    5  A    between atoms: C_15  and  C_16
REMARK    6  A    between atoms: N_19  and  C_20
REMARK    7  A    between atoms: C_20  and  C_21
REMARK    8  A    between atoms: C_21  and  O_22
REMARK                            x       y       z     vdW  Elec       q    Type
REMARK                         _______ _______ _______ _____ _____    ______ ____
ROOT
ATOM      1  C   UNL     1      46.262   5.527  12.978  0.00  0.00    +0.000 A 
ATOM      2  C   UNL     1      45.949   6.872  12.807  0.00  0.00    +0.000 A 
ATOM      3  N   UNL     1      45.039   7.340  11.930  0.00  0.00    +0.000 NA
ATOM      4  C   UNL     1      44.413   6.428  11.165  0.00  0.00    +0.000 A 
ATOM      5  C   UNL     1      44.629   5.048  11.232  0.00  0.00    +0.000 A 
ATOM      6  C   UNL     1      45.561   4.606  12.182  0.00  0.00    +0.000 A 
ENDROOT
BRANCH   5   7
ATOM      7  C   UNL     1      43.921   4.176  10.208  0.00  0.00    +0.000 C 
ATOM      8  C   UNL     1      44.063   2.655  10.340  0.00  0.00    +0.000 C 
ATOM      9  C   UNL     1      45.293   2.055   9.654  0.00  0.00    +0.000 C 
ATOM     10  N   UNL     1      45.462   2.537   8.274  0.00  0.00    +0.000 NA
ATOM     11  C   UNL     1      45.545   4.009   8.254  0.00  0.00    +0.000 C 
ATOM     12  C   UNL     1      44.258   4.636   8.783  0.00  0.00    +0.000 C 
BRANCH  10  13
ATOM     13  C   UNL     1      46.685   1.975   7.645  0.00  0.00    +0.000 C 
BRANCH  13  14
ATOM     14  C   UNL     1      47.523   3.011   6.881  0.00  0.00    +0.000 C 
BRANCH  14  15
ATOM     15  O   UNL     1      48.618   2.383   6.224  0.00  0.00    +0.000 OA
ATOM     16  H   UNL     1      48.373   1.440   6.156  0.00  0.00    +0.000 HD
ENDBRANCH  14  15
ENDBRANCH  13  14
ENDBRANCH  10  13
ENDBRANCH   5   7
BRANCH   1  17
ATOM     17  C   UNL     1      47.332   5.044  13.944  0.00  0.00    +0.000 C 
BRANCH  17  18
ATOM     18  C   UNL     1      46.806   4.638  15.332  0.00  0.00    +0.000 C 
BRANCH  18  23
ATOM     19  C   UNL     1      50.858   2.430  17.318  0.00  0.00    +0.000 A 
ATOM     20  C   UNL     1      49.661   1.859  16.937  0.00  0.00    +0.000 A 
ATOM     21  C   UNL     1      48.598   2.705  16.622  0.00  0.00    +0.000 A 
ATOM     22  C   UNL     1      48.764   4.085  16.670  0.00  0.00    +0.000 A 
ATOM     23  N   UNL     1      47.730   4.986  16.402  0.00  0.00    +0.000 N 
ATOM     24  N   UNL     1      49.957   4.597  17.044  0.00  0.00    +0.000 NA
ATOM     25  N   UNL     1      51.019   3.773  17.374  0.00  0.00    +0.000 NA
ATOM     26  H   UNL     1      48.142   5.917  16.351  0.00  0.00    +0.000 HD
BRANCH  19  28
ATOM     27  N   UNL     1      51.730   0.294  18.082  0.00  0.00    +0.000 N 
ATOM     28  C   UNL     1      52.016   1.580  17.710  0.00  0.00    +0.000 C 
ATOM     29  O   UNL     1      53.166   1.998  17.693  0.00  0.00    +0.000 OA
ATOM     30  H   UNL     1      52.489  -0.327  18.325  0.00  0.00    +0.000 HD
ATOM     31  H   UNL     1      50.779  -0.058  18.065  0.00  0.00    +0.000 HD
ENDBRANCH  19  28
ENDBRANCH  18  23
ENDBRANCH  17  18
ENDBRANCH   1  17
TORSDOF 8
ENDMDL
MODEL 5
REMARK VINA RESULT:    -6.843      2.571      7.911
REMARK INTER + INTRA:         -10.649
REMARK INTER:                  -9.853
REMARK INTRA:                  -0.796
REMARK UNBOUND:                -0.806
REMARK  Name = 
REMARK  8 active torsions:
REMARK  status: ('A' for Active; 'I' for Inactive)
REMARK    1  A    between atoms: C_2  and  C_4
REMARK    2  A    between atoms: N_8  and  C_9
REMARK    3  A    between atoms: C_9  and  C_10
REMARK    4  A    between atoms: C_10  and  C_11
REMARK    5  A    between atoms: C_15  and  C_16
REMARK    6  A    between atoms: N_19  and  C_20
REMARK    7  A    between atoms: C_20  and  C_21
REMARK    8  A    between atoms: C_21  and  O_22
REMARK                            x       y       z     vdW  Elec       q    Type
REMARK                         _______ _______ _______ _____ _____    ______ ____
ROOT
ATOM      1  C   UNL     1      46.414   5.725  13.002  0.00  0.00    +0.000 A 
ATOM      2  C   UNL     1      46.697   4.649  13.839  0.00  0.00    +0.000 A 
ATOM      3  N   UNL     1      46.342   3.373  13.591  0.00  0.00    +0.000 NA
ATOM      4  C   UNL     1      45.652   3.148  12.459  0.00  0.00    +0.000 A 
ATOM      5  C   UNL     1      45.301   4.131  11.529  0.00  0.00    +0.000 A 
ATOM      6  C   UNL     1      45.721   5.438  11.813  0.00  0.00    +0.000 A 
ENDROOT
BRANCH   5   7
ATOM      7  C   UNL     1      44.417   3.714  10.366  0.00  0.00    +0.000 C 
ATOM      8  C   UNL     1      44.575   2.290   9.819  0.00  0.00    +0.000 C 
ATOM      9  C   UNL     1      45.660   2.122   8.751  0.00  0.00    +0.000 C 
ATOM     10  N   UNL     1      45.577   3.143   7.696  0.00  0.00    +0.000 NA
ATOM     11  C   UNL     1      45.660   4.492   8.285  0.00  0.00    +0.000 C 
ATOM     12  C   UNL     1      44.492   4.748   9.234  0.00  0.00    +0.000 C 
BRANCH  10  13
ATOM     13  C   UNL     1      46.664   2.984   6.696  0.00  0.00    +0.000 C 
BRANCH  13  14
ATOM     14  C   UNL     1      47.554   1.755   6.936  0.00  0.00    +0.000 C 
BRANCH  14  15
ATOM     15  O   UNL     1      48.561   1.663   5.934  0.00  0.00    +0.000 OA
ATOM     16  H   UNL     1      49.336   2.129   6.303  0.00  0.00    +0.000 HD
ENDBRANCH  14  15
ENDBRANCH  13  14
ENDBRANCH  10  13
ENDBRANCH   5   7
BRANCH   1  17
ATOM     17  C   UNL     1      46.790   7.157  13.342  0.00  0.00    +0.000 C 
BRANCH  17  18
ATOM     18  C   UNL     1      46.968   8.081  12.124  0.00  0.00    +0.000 C 
BRANCH  18  23
ATOM     19  C   UNL     1      51.684   8.930  10.616  0.00  0.00    +0.000 A 
ATOM     20  C   UNL     1      51.108   7.746  11.030  0.00  0.00    +0.000 A 
ATOM     21  C   UNL     1      49.845   7.799  11.619  0.00  0.00    +0.000 A 
ATOM     22  C   UNL     1      49.185   9.016  11.753  0.00  0.00    +0.000 A 
ATOM     23  N   UNL     1      47.936   9.142  12.366  0.00  0.00    +0.000 N 
ATOM     24  N   UNL     1      49.789  10.147  11.327  0.00  0.00    +0.000 NA
ATOM     25  N   UNL     1      51.048  10.116  10.754  0.00  0.00    +0.000 NA
ATOM     26  H   UNL     1      47.608  10.092  12.198  0.00  0.00    +0.000 HD
BRANCH  19  28
ATOM     27  N   UNL     1      53.145   8.587   8.703  0.00  0.00    +0.000 N 
ATOM     28  C   UNL     1      53.050   8.944  10.021  0.00  0.00    +0.000 C 
ATOM     29  O   UNL     1      54.038   9.266  10.668  0.00  0.00    +0.000 OA
ATOM     30  H   UNL     1      54.048   8.614   8.252  0.00  0.00    +0.000 HD
ATOM     31  H   UNL     1      52.319   8.351   8.163  0.00  0.00    +0.000 HD
ENDBRANCH  19  28
ENDBRANCH  18  23
ENDBRANCH  17  18
ENDBRANCH   1  17
TORSDOF 8
ENDMDL
MODEL 6
REMARK VINA RESULT:    -6.683      3.032      7.955
REMARK INTER + INTRA:         -10.419
REMARK INTER:                  -9.236
REMARK INTRA:                  -1.183
REMARK UNBOUND:                -0.806
REMARK  Name = 
REMARK  8 active torsions:
REMARK  status: ('A' for Active; 'I' for Inactive)
REMARK    1  A    between atoms: C_2  and  C_4
REMARK    2  A    between atoms: N_8  and  C_9
REMARK    3  A    between atoms: C_9  and  C_10
REMARK    4  A    between atoms: C_10  and  C_11
REMARK    5  A    between atoms: C_15  and  C_16
REMARK    6  A    between atoms: N_19  and  C_20
REMARK    7  A    between atoms: C_20  and  C_21
REMARK    8  A    between atoms: C_21  and  O_22
REMARK                            x       y       z     vdW  Elec       q    Type
REMARK                         _______ _______ _______ _____ _____    ______ ____
ROOT
ATOM      1  C   UNL     1      46.918   8.317  12.187  0.00  0.00    +0.000 A 
ATOM      2  C   UNL     1      46.134   9.355  11.692  0.00  0.00    +0.000 A 
ATOM      3  N   UNL     1      44.801   9.286  11.509  0.00  0.00    +0.000 NA
ATOM      4  C   UNL     1      44.209   8.119  11.817  0.00  0.00    +0.000 A 
ATOM      5  C   UNL     1      44.872   6.996  12.322  0.00  0.00    +0.000 A 
ATOM      6  C   UNL     1      46.253   7.126  12.526  0.00  0.00    +0.000 A 
ENDROOT
BRANCH   5   7
ATOM      7  C   UNL     1      44.063   5.723  12.499  0.00  0.00    +0.000 C 
ATOM      8  C   UNL     1      44.822   4.429  12.819  0.00  0.00    +0.000 C 
ATOM      9  C   UNL     1      45.332   3.657  11.599  0.00  0.00    +0.000 C 
ATOM     10  N   UNL     1      44.300   3.484  10.567  0.00  0.00    +0.000 NA
ATOM     11  C   UNL     1      43.775   4.796  10.145  0.00  0.00    +0.000 C 
ATOM     12  C   UNL     1      43.110   5.520  11.313  0.00  0.00    +0.000 C 
BRANCH  10  13
ATOM     13  C   UNL     1      44.831   2.771   9.377  0.00  0.00    +0.000 C 
BRANCH  13  14
ATOM     14  C   UNL     1      44.754   3.587   8.078  0.00  0.00    +0.000 C 
BRANCH  14  15
ATOM     15  O   UNL     1      46.056   3.975   7.653  0.00  0.00    +0.000 OA
ATOM     16  H   UNL     1      46.568   4.107   8.475  0.00  0.00    +0.000 HD
ENDBRANCH  14  15
ENDBRANCH  13  14
ENDBRANCH  10  13
ENDBRANCH   5   7
BRANCH   1  17
ATOM     17  C   UNL     1      48.427   8.418  12.332  0.00  0.00    +0.000 C 
BRANCH  17  18
ATOM     18  C   UNL     1      49.104   7.158  12.898  0.00  0.00    +0.000 C 
BRANCH  18  23
ATOM     19  C   UNL     1      48.041   4.232  16.841  0.00  0.00    +0.000 A 
ATOM     20  C   UNL     1      47.243   4.551  15.761  0.00  0.00    +0.000 A 
ATOM     21  C   UNL     1      47.671   5.565  14.904  0.00  0.00    +0.000 A 
ATOM     22  C   UNL     1      48.883   6.207  15.129  0.00  0.00    +0.000 A 
ATOM     23  N   UNL     1      49.352   7.253  14.330  0.00  0.00    +0.000 N 
ATOM     24  N   UNL     1      49.632   5.855  16.197  0.00  0.00    +0.000 NA
ATOM     25  N   UNL     1      49.217   4.862  17.067  0.00  0.00    +0.000 NA
ATOM     26  H   UNL     1      50.315   7.440  14.604  0.00  0.00    +0.000 HD
BRANCH  19  28
ATOM     27  N   UNL     1      48.382   3.065  18.946  0.00  0.00    +0.000 N 
ATOM     28  C   UNL     1      47.617   3.190  17.817  0.00  0.00    +0.000 C 
ATOM     29  O   UNL     1      46.633   2.486  17.632  0.00  0.00    +0.000 OA
ATOM     30  H   UNL     1      48.112   2.392  19.649  0.00  0.00    +0.000 HD
ATOM     31  H   UNL     1      49.178   3.671  19.110  0.00  0.00    +0.000 HD
ENDBRANCH  19  28
ENDBRANCH  18  23
ENDBRANCH  17  18
ENDBRANCH   1  17
TORSDOF 8
ENDMDL
MODEL 7
REMARK VINA RESULT:    -6.569      3.800      6.157
REMARK INTER + INTRA:         -10.255
REMARK INTER:                  -9.384
REMARK INTRA:                  -0.871
REMARK UNBOUND:                -0.806
REMARK  Name = 
REMARK  8 active torsions:
REMARK  status: ('A' for Active; 'I' for Inactive)
REMARK    1  A    between atoms: C_2  and  C_4
REMARK    2  A    between atoms: N_8  and  C_9
REMARK    3  A    between atoms: C_9  and  C_10
REMARK    4  A    between atoms: C_10  and  C_11
REMARK    5  A    between atoms: C_15  and  C_16
REMARK    6  A    between atoms: N_19  and  C_20
REMARK    7  A    between atoms: C_20  and  C_21
REMARK    8  A    between atoms: C_21  and  O_22
REMARK                            x       y       z     vdW  Elec       q    Type
REMARK                         _______ _______ _______ _____ _____    ______ ____
ROOT
ATOM      1  C   UNL     1      48.998   8.234  15.208  0.00  0.00    +0.000 A 
ATOM      2  C   UNL     1      48.650   9.548  15.509  0.00  0.00    +0.000 A 
ATOM      3  N   UNL     1      48.415  10.011  16.751  0.00  0.00    +0.000 NA
ATOM      4  C   UNL     1      48.513   9.123  17.756  0.00  0.00    +0.000 A 
ATOM      5  C   UNL     1      48.854   7.776  17.599  0.00  0.00    +0.000 A 
ATOM      6  C   UNL     1      49.122   7.347  16.291  0.00  0.00    +0.000 A 
ENDROOT
BRANCH   5   7
ATOM      7  C   UNL     1      48.799   6.889  18.832  0.00  0.00    +0.000 C 
ATOM      8  C   UNL     1      49.893   5.827  19.001  0.00  0.00    +0.000 C 
ATOM      9  C   UNL     1      49.610   4.488  18.313  0.00  0.00    +0.000 C 
ATOM     10  N   UNL     1      48.259   3.982  18.597  0.00  0.00    +0.000 NA
ATOM     11  C   UNL     1      47.246   4.975  18.195  0.00  0.00    +0.000 C 
ATOM     12  C   UNL     1      47.404   6.269  18.989  0.00  0.00    +0.000 C 
BRANCH  10  13
ATOM     13  C   UNL     1      47.993   2.705  17.885  0.00  0.00    +0.000 C 
BRANCH  13  14
ATOM     14  C   UNL     1      48.259   2.770  16.373  0.00  0.00    +0.000 C 
BRANCH  14  15
ATOM     15  O   UNL     1      49.249   1.820  15.997  0.00  0.00    +0.000 OA
ATOM     16  H   UNL     1      48.918   1.413  15.173  0.00  0.00    +0.000 HD
ENDBRANCH  14  15
ENDBRANCH  13  14
ENDBRANCH  10  13
ENDBRANCH   5   7
BRANCH   1  17
ATOM     17  C   UNL     1      49.206   7.739  13.786  0.00  0.00    +0.000 C 
BRANCH  17  18
ATOM     18  C   UNL     1      47.918   7.616  12.955  0.00  0.00    +0.000 C 
BRANCH  18  23
ATOM     19  C   UNL     1      44.771   3.920  11.661  0.00  0.00    +0.000 A 
ATOM     20  C   UNL     1      45.143   5.032  10.935  0.00  0.00    +0.000 A 
ATOM     21  C   UNL     1      45.853   6.039  11.589  0.00  0.00    +0.000 A 
ATOM     22  C   UNL     1      46.193   5.897  12.930  0.00  0.00    +0.000 A 
ATOM     23  N   UNL     1      46.872   6.881  13.653  0.00  0.00    +0.000 N 
ATOM     24  N   UNL     1      45.811   4.785  13.597  0.00  0.00    +0.000 NA
ATOM     25  N   UNL     1      45.093   3.783  12.968  0.00  0.00    +0.000 NA
ATOM     26  H   UNL     1      47.134   6.476  14.550  0.00  0.00    +0.000 HD
BRANCH  19  28
ATOM     27  N   UNL     1      44.499   2.264   9.901  0.00  0.00    +0.000 N 
ATOM     28  C   UNL     1      43.972   2.832  11.030  0.00  0.00    +0.000 C 
ATOM     29  O   UNL     1      42.905   2.454  11.496  0.00  0.00    +0.000 OA
ATOM     30  H   UNL     1      44.006   1.502   9.460  0.00  0.00    +0.000 HD
ATOM     31  H   UNL     1      45.399   2.560   9.537  0.00  0.00    +0.000 HD
ENDBRANCH  19  28
ENDBRANCH  18  23
ENDBRANCH  17  18
ENDBRANCH   1  17
TORSDOF 8
ENDMDL
MODEL 8
REMARK VINA RESULT:    -6.481      3.525      5.797
REMARK INTER + INTRA:         -10.128
REMARK INTER:                  -9.410
REMARK INTRA:                  -0.717
REMARK UNBOUND:                -0.806
REMARK  Name = 
REMARK  8 active torsions:
REMARK  status: ('A' for Active; 'I' for Inactive)
REMARK    1  A    between atoms: C_2  and  C_4
REMARK    2  A    between atoms: N_8  and  C_9
REMARK    3  A    between atoms: C_9  and  C_10
REMARK    4  A    between atoms: C_10  and  C_11
REMARK    5  A    between atoms: C_15  and  C_16
REMARK    6  A    between atoms: N_19  and  C_20
REMARK    7  A    between atoms: C_20  and  C_21
REMARK    8  A    between atoms: C_21  and  O_22
REMARK                            x       y       z     vdW  Elec       q    Type
REMARK                         _______ _______ _______ _____ _____    ______ ____
ROOT
ATOM      1  C   UNL     1      49.701   7.809  13.083  0.00  0.00    +0.000 A 
ATOM      2  C   UNL     1      50.945   8.345  12.764  0.00  0.00    +0.000 A 
ATOM      3  N   UNL     1      51.965   8.483  13.633  0.00  0.00    +0.000 NA
ATOM      4  C   UNL     1      51.739   8.083  14.897  0.00  0.00    +0.000 A 
ATOM      5  C   UNL     1      50.541   7.527  15.356  0.00  0.00    +0.000 A 
ATOM      6  C   UNL     1      49.520   7.373  14.407  0.00  0.00    +0.000 A 
ENDROOT
BRANCH   5   7
ATOM      7  C   UNL     1      50.423   7.244  16.844  0.00  0.00    +0.000 C 
ATOM      8  C   UNL     1      51.391   6.225  17.459  0.00  0.00    +0.000 C 
ATOM      9  C   UNL     1      50.933   4.766  17.383  0.00  0.00    +0.000 C 
ATOM     10  N   UNL     1      49.542   4.586  17.825  0.00  0.00    +0.000 NA
ATOM     11  C   UNL     1      48.639   5.436  17.028  0.00  0.00    +0.000 C 
ATOM     12  C   UNL     1      48.971   6.914  17.216  0.00  0.00    +0.000 C 
BRANCH  10  13
ATOM     13  C   UNL     1      49.108   3.170  17.701  0.00  0.00    +0.000 C 
BRANCH  13  14
ATOM     14  C   UNL     1      50.146   2.259  17.027  0.00  0.00    +0.000 C 
BRANCH  14  15
ATOM     15  O   UNL     1      49.588   1.628  15.880  0.00  0.00    +0.000 OA
ATOM     16  H   UNL     1      50.024   2.051  15.115  0.00  0.00    +0.000 HD
ENDBRANCH  14  15
ENDBRANCH  13  14
ENDBRANCH  10  13
ENDBRANCH   5   7
BRANCH   1  17
ATOM     17  C   UNL     1      48.560   7.717  12.084  0.00  0.00    +0.000 C 
BRANCH  17  18
ATOM     18  C   UNL     1      47.286   8.475  12.494  0.00  0.00    +0.000 C 
BRANCH  18  23
ATOM     19  C   UNL     1      44.668   4.245  11.790  0.00  0.00    +0.000 A 
ATOM     20  C   UNL     1      44.824   5.318  10.936  0.00  0.00    +0.000 A 
ATOM     21  C   UNL     1      45.409   6.480  11.439  0.00  0.00    +0.000 A 
ATOM     22  C   UNL     1      45.844   6.530  12.759  0.00  0.00    +0.000 A 
ATOM     23  N   UNL     1      46.406   7.673  13.334  0.00  0.00    +0.000 N 
ATOM     24  N   UNL     1      45.675   5.451  13.555  0.00  0.00    +0.000 NA
ATOM     25  N   UNL     1      45.082   4.295  13.077  0.00  0.00    +0.000 NA
ATOM     26  H   UNL     1      46.778   7.406  14.244  0.00  0.00    +0.000 HD
BRANCH  19  28
ATOM     27  N   UNL     1      43.629   2.107  12.297  0.00  0.00    +0.000 N 
ATOM     28  C   UNL     1      44.008   2.993  11.325  0.00  0.00    +0.000 C 
ATOM     29  O   UNL     1      43.805   2.766  10.139  0.00  0.00    +0.000 OA
ATOM     30  H   UNL     1      43.149   1.259  12.027  0.00  0.00    +0.000 HD
ATOM     31  H   UNL     1      43.771   2.313  13.280  0.00  0.00    +0.000 HD
ENDBRANCH  19  28
ENDBRANCH  18  23
ENDBRANCH  17  18
ENDBRANCH   1  17
TORSDOF 8
ENDMDL
MODEL 9
REMARK VINA RESULT:    -6.478      4.295      6.259
REMARK INTER + INTRA:         -10.123
REMARK INTER:                  -9.413
REMARK INTRA:                  -0.710
REMARK UNBOUND:                -0.806
REMARK  Name = 
REMARK  8 active torsions:
REMARK  status: ('A' for Active; 'I' for Inactive)
REMARK    1  A    between atoms: C_2  and  C_4
REMARK    2  A    between atoms: N_8  and  C_9
REMARK    3  A    between atoms: C_9  and  C_10
REMARK    4  A    between atoms: C_10  and  C_11
REMARK    5  A    between atoms: C_15  and  C_16
REMARK    6  A    between atoms: N_19  and  C_20
REMARK    7  A    between atoms: C_20  and  C_21
REMARK    8  A    between atoms: C_21  and  O_22
REMARK                            x       y       z     vdW  Elec       q    Type
REMARK                         _______ _______ _______ _____ _____    ______ ____
ROOT
ATOM      1  C   UNL     1      48.575   7.715  15.034  0.00  0.00    +0.000 A 
ATOM      2  C   UNL     1      48.355   8.993  15.541  0.00  0.00    +0.000 A 
ATOM      3  N   UNL     1      48.368   9.308  16.850  0.00  0.00    +0.000 NA
ATOM      4  C   UNL     1      48.596   8.301  17.712  0.00  0.00    +0.000 A 
ATOM      5  C   UNL     1      48.833   6.974  17.342  0.00  0.00    +0.000 A 
ATOM      6  C   UNL     1      48.843   6.700  15.967  0.00  0.00    +0.000 A 
ENDROOT
BRANCH   5   7
ATOM      7  C   UNL     1      48.952   5.946  18.455  0.00  0.00    +0.000 C 
ATOM      8  C   UNL     1      50.349   5.409  18.790  0.00  0.00    +0.000 C 
ATOM      9  C   UNL     1      50.802   4.210  17.952  0.00  0.00    +0.000 C 
ATOM     10  N   UNL     1      49.779   3.157  17.872  0.00  0.00    +0.000 NA
ATOM     11  C   UNL     1      48.524   3.705  17.325  0.00  0.00    +0.000 C 
ATOM     12  C   UNL     1      47.961   4.794  18.233  0.00  0.00    +0.000 C 
BRANCH  10  13
ATOM     13  C   UNL     1      50.226   2.025  17.020  0.00  0.00    +0.000 C 
BRANCH  13  14
ATOM     14  C   UNL     1      51.604   1.465  17.403  0.00  0.00    +0.000 C 
BRANCH  14  15
ATOM     15  O   UNL     1      51.467   0.260  18.147  0.00  0.00    +0.000 OA
ATOM     16  H   UNL     1      51.597   0.516  19.080  0.00  0.00    +0.000 HD
ENDBRANCH  14  15
ENDBRANCH  13  14
ENDBRANCH  10  13
ENDBRANCH   5   7
BRANCH   1  17
ATOM     17  C   UNL     1      48.503   7.392  13.550  0.00  0.00    +0.000 C 
BRANCH  17  18
ATOM     18  C   UNL     1      47.374   8.111  12.791  0.00  0.00    +0.000 C 
BRANCH  18  23
ATOM     19  C   UNL     1      44.489   4.197  11.531  0.00  0.00    +0.000 A 
ATOM     20  C   UNL     1      45.258   5.002  10.716  0.00  0.00    +0.000 A 
ATOM     21  C   UNL     1      45.794   6.169  11.260  0.00  0.00    +0.000 A 
ATOM     22  C   UNL     1      45.573   6.484  12.597  0.00  0.00    +0.000 A 
ATOM     23  N   UNL     1      46.052   7.653  13.193  0.00  0.00    +0.000 N 
ATOM     24  N   UNL     1      44.818   5.659  13.356  0.00  0.00    +0.000 NA
ATOM     25  N   UNL     1      44.265   4.505  12.829  0.00  0.00    +0.000 NA
ATOM     26  H   UNL     1      45.893   7.571  14.197  0.00  0.00    +0.000 HD
BRANCH  19  28
ATOM     27  N   UNL     1      44.196   2.600   9.721  0.00  0.00    +0.000 N 
ATOM     28  C   UNL     1      43.851   2.961  10.996  0.00  0.00    +0.000 C 
ATOM     29  O   UNL     1      43.068   2.294  11.658  0.00  0.00    +0.000 OA
ATOM     30  H   UNL     1      43.812   1.751   9.331  0.00  0.00    +0.000 HD
ATOM     31  H   UNL     1      44.870   3.139   9.187  0.00  0.00    +0.000 HD
ENDBRANCH  19  28
ENDBRANCH  18  23
ENDBRANCH  17  18
ENDBRANCH   1  17
TORSDOF 8
ENDMDL
