MODEL 1
REMARK VINA RESULT:    -7.431      0.000      0.000
REMARK INTER + INTRA:          -9.582
REMARK INTER:                  -9.169
REMARK INTRA:                  -0.413
REMARK UNBOUND:                -0.413
REMARK  Name = 
REMARK  4 active torsions:
REMARK  status: ('A' for Active; 'I' for Inactive)
REMARK    1  A    between atoms: C_2  and  C_4
REMARK    2  A    between atoms: C_7  and  C_8
REMARK    3  A    between atoms: N_10  and  C_11
REMARK    4  A    between atoms: C_11  and  C_12
REMARK                            x       y       z     vdW  Elec       q    Type
REMARK                         _______ _______ _______ _____ _____    ______ ____
ROOT
ATOM      1  C   UNL     1      47.230   5.034  14.761  0.00  0.00    +0.000 A 
ATOM      2  C   UNL     1      46.951   6.077  13.875  0.00  0.00    +0.000 A 
ATOM      3  C   UNL     1      46.252   5.800  12.698  0.00  0.00    +0.000 A 
ATOM      4  C   UNL     1      45.853   4.489  12.448  0.00  0.00    +0.000 A 
ATOM      5  N   UNL     1      46.105   3.452  13.294  0.00  0.00    +0.000 NA
ATOM      6  C   UNL     1      46.800   3.754  14.423  0.00  0.00    +0.000 A 
ENDROOT
BRANCH   1   8
ATOM      7  N   UNL     1      47.329   5.071  17.196  0.00  0.00    +0.000 N 
ATOM      8  C   UNL     1      47.996   5.220  16.013  0.00  0.00    +0.000 C 
ATOM      9  O   UNL     1      49.194   5.473  15.990  0.00  0.00    +0.000 OA
ATOM     10  H   UNL     1      47.894   5.115  18.038  0.00  0.00    +0.000 HD
ATOM     11  H   UNL     1      46.421   4.639  17.269  0.00  0.00    +0.000 HD
ENDBRANCH   1   8
BRANCH   4  12
ATOM     12  C   UNL     1      45.104   4.171  11.186  0.00  0.00    +0.000 C 
ATOM     13  O   UNL     1      44.499   5.046  10.574  0.00  0.00    +0.000 OA
ATOM     14  N   UNL     1      45.150   2.855  10.786  0.00  0.00    +0.000 N 
ATOM     15  H   UNL     1      45.761   2.229  11.302  0.00  0.00    +0.000 HD
BRANCH  14  16
ATOM     16  C   UNL     1      44.530   2.389   9.563  0.00  0.00    +0.000 C 
BRANCH  16  17
ATOM     17  C   UNL     1      45.504   2.286   8.409  0.00  0.00    +0.000 A 
ATOM     18  C   UNL     1      45.661   3.358   7.530  0.00  0.00    +0.000 A 
ATOM     19  C   UNL     1      46.560   3.240   6.474  0.00  0.00    +0.000 A 
ATOM     20  C   UNL     1      47.284   2.064   6.325  0.00  0.00    +0.000 A 
ATOM     21  C   UNL     1      47.076   1.050   7.242  0.00  0.00    +0.000 A 
ATOM     22  N   UNL     1      46.209   1.132   8.278  0.00  0.00    +0.000 NA
ENDBRANCH  16  17
ENDBRANCH  14  16
ENDBRANCH   4  12
TORSDOF 4
ENDMDL
MODEL 2
REMARK VINA RESULT:    -7.305      3.744      7.480
REMARK INTER + INTRA:          -9.426
REMARK INTER:                  -9.116
REMARK INTRA:                  -0.310
REMARK UNBOUND:                -0.413
REMARK  Name = 
REMARK  4 active torsions:
REMARK  status: ('A' for Active; 'I' for Inactive)
REMARK    1  A    between atoms: C_2  and  C_4
REMARK    2  A    between atoms: C_7  and  C_8
REMARK    3  A    between atoms: N_10  and  C_11
REMARK    4  A    between atoms: C_11  and  C_12
REMARK                            x       y       z     vdW  Elec       q    Type
REMARK                         _______ _______ _______ _____ _____    ______ ____
ROOT
ATOM      1  C   UNL     1      46.432   2.439   7.683  0.00  0.00    +0.000 A 
ATOM      2  C   UNL     1      45.646   1.786   8.635  0.00  0.00    +0.000 A 
ATOM      3  C   UNL     1      44.861   2.546   9.504  0.00  0.00    +0.000 A 
ATOM      4  C   UNL     1      44.885   3.934   9.390  0.00  0.00    +0.000 A 
ATOM      5  N   UNL     1      45.637   4.600   8.470  0.00  0.00    +0.000 NA
ATOM      6  C   UNL     1      46.402   3.830   7.649  0.00  0.00    +0.000 A 
ENDROOT
BRANCH   1   8
ATOM      7  N   UNL     1      48.362   2.423   6.194  0.00  0.00    +0.000 N 
ATOM      8  C   UNL     1      47.325   1.724   6.744  0.00  0.00    +0.000 C 
ATOM      9  O   UNL     1      47.156   0.538   6.489  0.00  0.00    +0.000 OA
ATOM     10  H   UNL     1      49.010   1.889   5.625  0.00  0.00    +0.000 HD
ATOM     11  H   UNL     1      48.678   3.313   6.546  0.00  0.00    +0.000 HD
ENDBRANCH   1   8
BRANCH   4  12
ATOM     12  C   UNL     1      44.051   4.768  10.319  0.00  0.00    +0.000 C 
ATOM     13  O   UNL     1      43.017   4.324  10.809  0.00  0.00    +0.000 OA
ATOM     14  N   UNL     1      44.527   6.036  10.565  0.00  0.00    +0.000 N 
ATOM     15  H   UNL     1      45.443   6.274  10.195  0.00  0.00    +0.000 HD
BRANCH  14  16
ATOM     16  C   UNL     1      43.876   6.950  11.480  0.00  0.00    +0.000 C 
BRANCH  16  17
ATOM     17  C   UNL     1      44.535   8.312  11.525  0.00  0.00    +0.000 A 
ATOM     18  C   UNL     1      45.781   8.464  12.133  0.00  0.00    +0.000 A 
ATOM     19  C   UNL     1      46.369   9.726  12.166  0.00  0.00    +0.000 A 
ATOM     20  C   UNL     1      45.705  10.800  11.588  0.00  0.00    +0.000 A 
ATOM     21  C   UNL     1      44.475  10.566  10.999  0.00  0.00    +0.000 A 
ATOM     22  N   UNL     1      43.877   9.353  10.952  0.00  0.00    +0.000 NA
ENDBRANCH  16  17
ENDBRANCH  14  16
ENDBRANCH   4  12
TORSDOF 4
ENDMDL
MODEL 3
REMARK VINA RESULT:    -6.909      2.094      2.385
REMARK INTER + INTRA:          -8.937
REMARK INTER:                  -8.549
REMARK INTRA:                  -0.389
REMARK UNBOUND:                -0.413
REMARK  Name = 
REMARK  4 active torsions:
REMARK  status: ('A' for Active; 'I' for Inactive)
REMARK    1  A    between atoms: C_2  and  C_4
REMARK    2  A    between atoms: C_7  and  C_8
REMARK    3  A    between atoms: N_10  and  C_11
REMARK    4  A    between atoms: C_11  and  C_12
REMARK                            x       y       z     vdW  Elec       q    Type
REMARK                         _______ _______ _______ _____ _____    ______ ____
ROOT
ATOM      1  C   UNL     1      47.285   7.799  13.395  0.00  0.00    +0.000 A 
ATOM      2  C   UNL     1      46.289   8.229  12.516  0.00  0.00    +0.000 A 
ATOM      3  C   UNL     1      45.618   7.285  11.736  0.00  0.00    +0.000 A 
ATOM      4  C   UNL     1      45.964   5.942  11.862  0.00  0.00    +0.000 A 
ATOM      5  N   UNL     1      46.927   5.491  12.713  0.00  0.00    +0.000 NA
ATOM      6  C   UNL     1      47.572   6.437  13.447  0.00  0.00    +0.000 A 
ENDROOT
BRANCH   1   8
ATOM      7  N   UNL     1      47.501   9.196  15.380  0.00  0.00    +0.000 N 
ATOM      8  C   UNL     1      48.077   8.725  14.234  0.00  0.00    +0.000 C 
ATOM      9  O   UNL     1      49.220   9.037  13.926  0.00  0.00    +0.000 OA
ATOM     10  H   UNL     1      48.095   9.756  15.983  0.00  0.00    +0.000 HD
ATOM     11  H   UNL     1      46.674   8.792  15.791  0.00  0.00    +0.000 HD
ENDBRANCH   1   8
BRANCH   4  12
ATOM     12  C   UNL     1      45.256   4.913  11.028  0.00  0.00    +0.000 C 
ATOM     13  O   UNL     1      44.671   3.970  11.552  0.00  0.00    +0.000 OA
ATOM     14  N   UNL     1      45.320   5.109   9.667  0.00  0.00    +0.000 N 
ATOM     15  H   UNL     1      45.739   5.973   9.336  0.00  0.00    +0.000 HD
BRANCH  14  16
ATOM     16  C   UNL     1      44.645   4.243   8.722  0.00  0.00    +0.000 C 
BRANCH  16  17
ATOM     17  C   UNL     1      45.571   3.231   8.082  0.00  0.00    +0.000 A 
ATOM     18  C   UNL     1      46.387   3.608   7.016  0.00  0.00    +0.000 A 
ATOM     19  C   UNL     1      47.229   2.660   6.440  0.00  0.00    +0.000 A 
ATOM     20  C   UNL     1      47.241   1.366   6.945  0.00  0.00    +0.000 A 
ATOM     21  C   UNL     1      46.407   1.073   8.009  0.00  0.00    +0.000 A 
ATOM     22  N   UNL     1      45.576   1.970   8.589  0.00  0.00    +0.000 NA
ENDBRANCH  16  17
ENDBRANCH  14  16
ENDBRANCH   4  12
TORSDOF 4
ENDMDL
MODEL 4
REMARK VINA RESULT:    -6.814      2.565      7.559
REMARK INTER + INTRA:          -8.820
REMARK INTER:                  -8.448
REMARK INTRA:                  -0.372
REMARK UNBOUND:                -0.413
REMARK  Name = 
REMARK  4 active torsions:
REMARK  status: ('A' for Active; 'I' for Inactive)
REMARK    1  A    between atoms: C_2  and  C_4
REMARK    2  A    between atoms: C_7  and  C_8
REMARK    3  A    between atoms: N_10  and  C_11
REMARK    4  A    between atoms: C_11  and  C_12
REMARK                            x       y       z     vdW  Elec       q    Type
REMARK                         _______ _______ _______ _____ _____    ______ ____
ROOT
ATOM      1  C   UNL     1      45.053   4.034  11.141  0.00  0.00    +0.000 A 
ATOM      2  C   UNL     1      45.530   5.336  11.300  0.00  0.00    +0.000 A 
ATOM      3  C   UNL     1      46.247   5.662  12.453  0.00  0.00    +0.000 A 
ATOM      4  C   UNL     1      46.466   4.672  13.409  0.00  0.00    +0.000 A 
ATOM      5  N   UNL     1      46.018   3.392  13.281  0.00  0.00    +0.000 NA
ATOM      6  C   UNL     1      45.311   3.113  12.153  0.00  0.00    +0.000 A 
ENDROOT
BRANCH   1   8
ATOM      7  N   UNL     1      43.985   4.530   9.007  0.00  0.00    +0.000 N 
ATOM      8  C   UNL     1      44.253   3.603   9.974  0.00  0.00    +0.000 C 
ATOM      9  O   UNL     1      43.866   2.446   9.865  0.00  0.00    +0.000 OA
ATOM     10  H   UNL     1      43.512   4.189   8.177  0.00  0.00    +0.000 HD
ATOM     11  H   UNL     1      44.470   5.412   8.935  0.00  0.00    +0.000 HD
ENDBRANCH   1   8
BRANCH   4  12
ATOM     12  C   UNL     1      47.231   5.004  14.658  0.00  0.00    +0.000 C 
ATOM     13  O   UNL     1      48.092   5.878  14.656  0.00  0.00    +0.000 OA
ATOM     14  N   UNL     1      46.897   4.264  15.770  0.00  0.00    +0.000 N 
ATOM     15  H   UNL     1      46.102   3.637  15.695  0.00  0.00    +0.000 HD
BRANCH  14  16
ATOM     16  C   UNL     1      47.497   4.494  17.068  0.00  0.00    +0.000 C 
BRANCH  16  17
ATOM     17  C   UNL     1      48.859   3.850  17.212  0.00  0.00    +0.000 A 
ATOM     18  C   UNL     1      49.926   4.584  17.730  0.00  0.00    +0.000 A 
ATOM     19  C   UNL     1      51.172   3.973  17.850  0.00  0.00    +0.000 A 
ATOM     20  C   UNL     1      51.320   2.648  17.460  0.00  0.00    +0.000 A 
ATOM     21  C   UNL     1      50.211   1.987  16.962  0.00  0.00    +0.000 A 
ATOM     22  N   UNL     1      48.988   2.553  16.830  0.00  0.00    +0.000 NA
ENDBRANCH  16  17
ENDBRANCH  14  16
ENDBRANCH   4  12
TORSDOF 4
ENDMDL
MODEL 5
REMARK VINA RESULT:    -6.793      2.961      3.826
REMARK INTER + INTRA:          -8.795
REMARK INTER:                  -8.450
REMARK INTRA:                  -0.344
REMARK UNBOUND:                -0.413
REMARK  Name = 
REMARK  4 active torsions:
REMARK  status: ('A' for Active; 'I' for Inactive)
REMARK    1  A    between atoms: C_2  and  C_4
REMARK    2  A    between atoms: C_7  and  C_8
REMARK    3  A    between atoms: N_10  and  C_11
REMARK    4  A    between atoms: C_11  and  C_12
REMARK                            x       y       z     vdW  Elec       q    Type
REMARK                         _______ _______ _______ _____ _____    ______ ____
ROOT
ATOM      1  C   UNL     1      45.082   8.680  11.893  0.00  0.00    +0.000 A 
ATOM      2  C   UNL     1      46.222   7.930  12.185  0.00  0.00    +0.000 A 
ATOM      3  C   UNL     1      46.203   6.551  11.960  0.00  0.00    +0.000 A 
ATOM      4  C   UNL     1      45.045   5.970  11.448  0.00  0.00    +0.000 A 
ATOM      5  N   UNL     1      43.920   6.676  11.149  0.00  0.00    +0.000 NA
ATOM      6  C   UNL     1      43.966   8.013  11.394  0.00  0.00    +0.000 A 
ENDROOT
BRANCH   1   8
ATOM      7  N   UNL     1      46.154  10.824  12.339  0.00  0.00    +0.000 N 
ATOM      8  C   UNL     1      44.991  10.137  12.131  0.00  0.00    +0.000 C 
ATOM      9  O   UNL     1      43.911  10.715  12.115  0.00  0.00    +0.000 OA
ATOM     10  H   UNL     1      46.073  11.832  12.411  0.00  0.00    +0.000 HD
ATOM     11  H   UNL     1      47.065  10.445  12.130  0.00  0.00    +0.000 HD
ENDBRANCH   1   8
BRANCH   4  12
ATOM     12  C   UNL     1      45.005   4.489  11.204  0.00  0.00    +0.000 C 
ATOM     13  O   UNL     1      45.166   3.694  12.124  0.00  0.00    +0.000 OA
ATOM     14  N   UNL     1      44.782   4.111   9.899  0.00  0.00    +0.000 N 
ATOM     15  H   UNL     1      44.559   4.841   9.230  0.00  0.00    +0.000 HD
BRANCH  14  16
ATOM     16  C   UNL     1      44.657   2.724   9.500  0.00  0.00    +0.000 C 
BRANCH  16  17
ATOM     17  C   UNL     1      45.635   2.331   8.414  0.00  0.00    +0.000 A 
ATOM     18  C   UNL     1      46.062   3.278   7.484  0.00  0.00    +0.000 A 
ATOM     19  C   UNL     1      46.960   2.895   6.491  0.00  0.00    +0.000 A 
ATOM     20  C   UNL     1      47.413   1.582   6.455  0.00  0.00    +0.000 A 
ATOM     21  C   UNL     1      46.946   0.704   7.417  0.00  0.00    +0.000 A 
ATOM     22  N   UNL     1      46.073   1.045   8.393  0.00  0.00    +0.000 NA
ENDBRANCH  16  17
ENDBRANCH  14  16
ENDBRANCH   4  12
TORSDOF 4
ENDMDL
MODEL 6
REMARK VINA RESULT:    -6.385      2.851      7.414
REMARK INTER + INTRA:          -8.291
REMARK INTER:                  -7.966
REMARK INTRA:                  -0.324
REMARK UNBOUND:                -0.413
REMARK  Name = 
REMARK  4 active torsions:
REMARK  status: ('A' for Active; 'I' for Inactive)
REMARK    1  A    between atoms: C_2  and  C_4
REMARK    2  A    between atoms: C_7  and  C_8
REMARK    3  A    between atoms: N_10  and  C_11
REMARK    4  A    between atoms: C_11  and  C_12
REMARK                            x       y       z     vdW  Elec       q    Type
REMARK                         _______ _______ _______ _____ _____    ______ ____
ROOT
ATOM      1  C   UNL     1      46.644   2.535   7.381  0.00  0.00    +0.000 A 
ATOM      2  C   UNL     1      46.720   3.927   7.310  0.00  0.00    +0.000 A 
ATOM      3  C   UNL     1      46.019   4.695   8.242  0.00  0.00    +0.000 A 
ATOM      4  C   UNL     1      45.268   4.044   9.217  0.00  0.00    +0.000 A 
ATOM      5  N   UNL     1      45.177   2.689   9.316  0.00  0.00    +0.000 NA
ATOM      6  C   UNL     1      45.860   1.972   8.384  0.00  0.00    +0.000 A 
ENDROOT
BRANCH   1   8
ATOM      7  N   UNL     1      48.248   2.186   5.579  0.00  0.00    +0.000 N 
ATOM      8  C   UNL     1      47.320   1.638   6.418  0.00  0.00    +0.000 C 
ATOM      9  O   UNL     1      47.074   0.439   6.392  0.00  0.00    +0.000 OA
ATOM     10  H   UNL     1      48.760   1.537   4.991  0.00  0.00    +0.000 HD
ATOM     11  H   UNL     1      48.650   3.101   5.719  0.00  0.00    +0.000 HD
ENDBRANCH   1   8
BRANCH   4  12
ATOM     12  C   UNL     1      44.504   4.853  10.226  0.00  0.00    +0.000 C 
ATOM     13  O   UNL     1      43.375   4.522  10.576  0.00  0.00    +0.000 OA
ATOM     14  N   UNL     1      45.156   5.965  10.709  0.00  0.00    +0.000 N 
ATOM     15  H   UNL     1      46.125   6.096  10.437  0.00  0.00    +0.000 HD
BRANCH  14  16
ATOM     16  C   UNL     1      44.586   6.822  11.729  0.00  0.00    +0.000 C 
BRANCH  16  17
ATOM     17  C   UNL     1      45.635   7.528  12.561  0.00  0.00    +0.000 A 
ATOM     18  C   UNL     1      45.617   8.917  12.674  0.00  0.00    +0.000 A 
ATOM     19  C   UNL     1      46.593   9.546  13.443  0.00  0.00    +0.000 A 
ATOM     20  C   UNL     1      47.555   8.776  14.084  0.00  0.00    +0.000 A 
ATOM     21  C   UNL     1      47.500   7.402  13.927  0.00  0.00    +0.000 A 
ATOM     22  N   UNL     1      46.567   6.761  13.186  0.00  0.00    +0.000 NA
ENDBRANCH  16  17
ENDBRANCH  14  16
ENDBRANCH   4  12
TORSDOF 4
ENDMDL
MODEL 7
REMARK VINA RESULT:    -6.054      2.945      7.810
REMARK INTER + INTRA:          -7.883
REMARK INTER:                  -7.481
REMARK INTRA:                  -0.402
REMARK UNBOUND:                -0.413
REMARK  Name = 
REMARK  4 active torsions:
REMARK  status: ('A' for Active; 'I' for Inactive)
REMARK    1  A    between atoms: C_2  and  C_4
REMARK    2  A    between atoms: C_7  and  C_8
REMARK    3  A    between atoms: N_10  and  C_11
REMARK    4  A    between atoms: C_11  and  C_12
REMARK                            x       y       z     vdW  Elec       q    Type
REMARK                         _______ _______ _______ _____ _____    ______ ____
ROOT
ATOM      1  C   UNL     1      45.382   4.753  11.456  0.00  0.00    +0.000 A 
ATOM      2  C   UNL     1      46.082   5.790  12.075  0.00  0.00    +0.000 A 
ATOM      3  C   UNL     1      46.742   5.539  13.280  0.00  0.00    +0.000 A 
ATOM      4  C   UNL     1      46.682   4.258  13.824  0.00  0.00    +0.000 A 
ATOM      5  N   UNL     1      46.011   3.225  13.242  0.00  0.00    +0.000 NA
ATOM      6  C   UNL     1      45.367   3.507  12.077  0.00  0.00    +0.000 A 
ENDROOT
BRANCH   1   8
ATOM      7  N   UNL     1      43.383   5.502  10.278  0.00  0.00    +0.000 N 
ATOM      8  C   UNL     1      44.621   4.929  10.199  0.00  0.00    +0.000 C 
ATOM      9  O   UNL     1      45.097   4.598   9.120  0.00  0.00    +0.000 OA
ATOM     10  H   UNL     1      42.920   5.693   9.395  0.00  0.00    +0.000 HD
ATOM     11  H   UNL     1      43.053   5.998  11.091  0.00  0.00    +0.000 HD
ENDBRANCH   1   8
BRANCH   4  12
ATOM     12  C   UNL     1      47.381   3.970  15.121  0.00  0.00    +0.000 C 
ATOM     13  O   UNL     1      47.841   2.857  15.356  0.00  0.00    +0.000 OA
ATOM     14  N   UNL     1      47.459   5.028  15.999  0.00  0.00    +0.000 N 
ATOM     15  H   UNL     1      47.140   5.935  15.670  0.00  0.00    +0.000 HD
BRANCH  14  16
ATOM     16  C   UNL     1      48.149   4.938  17.269  0.00  0.00    +0.000 C 
BRANCH  16  17
ATOM     17  C   UNL     1      49.630   5.234  17.159  0.00  0.00    +0.000 A 
ATOM     18  C   UNL     1      50.560   4.346  17.699  0.00  0.00    +0.000 A 
ATOM     19  C   UNL     1      51.917   4.639  17.589  0.00  0.00    +0.000 A 
ATOM     20  C   UNL     1      52.311   5.802  16.940  0.00  0.00    +0.000 A 
ATOM     21  C   UNL     1      51.327   6.628  16.426  0.00  0.00    +0.000 A 
ATOM     22  N   UNL     1      50.001   6.372  16.518  0.00  0.00    +0.000 NA
ENDBRANCH  16  17
ENDBRANCH  14  16
ENDBRANCH   4  12
TORSDOF 4
ENDMDL
MODEL 8
REMARK VINA RESULT:    -6.009      4.287      7.908
REMARK INTER + INTRA:          -7.828
REMARK INTER:                  -7.477
REMARK INTRA:                  -0.351
REMARK UNBOUND:                -0.413
REMARK  Name = 
REMARK  4 active torsions:
REMARK  status: ('A' for Active; 'I' for Inactive)
REMARK    1  A    between atoms: C_2  and  C_4
REMARK    2  A    between atoms: C_7  and  C_8
REMARK    3  A    between atoms: N_10  and  C_11
REMARK    4  A    between atoms: C_11  and  C_12
REMARK                            x       y       z     vdW  Elec       q    Type
REMARK                         _______ _______ _______ _____ _____    ______ ____
ROOT
ATOM      1  C   UNL     1      44.952   6.632  12.339  0.00  0.00    +0.000 A 
ATOM      2  C   UNL     1      46.261   6.921  12.729  0.00  0.00    +0.000 A 
ATOM      3  C   UNL     1      46.934   6.026  13.563  0.00  0.00    +0.000 A 
ATOM      4  C   UNL     1      46.276   4.870  13.978  0.00  0.00    +0.000 A 
ATOM      5  N   UNL     1      45.002   4.558  13.611  0.00  0.00    +0.000 NA
ATOM      6  C   UNL     1      44.370   5.458  12.810  0.00  0.00    +0.000 A 
ENDROOT
BRANCH   1   8
ATOM      7  N   UNL     1      42.899   7.113  11.116  0.00  0.00    +0.000 N 
ATOM      8  C   UNL     1      44.144   7.534  11.489  0.00  0.00    +0.000 C 
ATOM      9  O   UNL     1      44.567   8.633  11.152  0.00  0.00    +0.000 OA
ATOM     10  H   UNL     1      42.331   7.785  10.610  0.00  0.00    +0.000 HD
ATOM     11  H   UNL     1      42.422   6.340  11.553  0.00  0.00    +0.000 HD
ENDBRANCH   1   8
BRANCH   4  12
ATOM     12  C   UNL     1      46.982   3.898  14.879  0.00  0.00    +0.000 C 
ATOM     13  O   UNL     1      47.603   2.946  14.416  0.00  0.00    +0.000 OA
ATOM     14  N   UNL     1      46.875   4.157  16.227  0.00  0.00    +0.000 N 
ATOM     15  H   UNL     1      46.428   5.025  16.505  0.00  0.00    +0.000 HD
BRANCH  14  16
ATOM     16  C   UNL     1      47.542   3.352  17.230  0.00  0.00    +0.000 C 
BRANCH  16  17
ATOM     17  C   UNL     1      48.776   4.020  17.799  0.00  0.00    +0.000 A 
ATOM     18  C   UNL     1      48.872   4.255  19.170  0.00  0.00    +0.000 A 
ATOM     19  C   UNL     1      50.014   4.874  19.672  0.00  0.00    +0.000 A 
ATOM     20  C   UNL     1      51.032   5.235  18.797  0.00  0.00    +0.000 A 
ATOM     21  C   UNL     1      50.863   4.962  17.451  0.00  0.00    +0.000 A 
ATOM     22  N   UNL     1      49.765   4.364  16.933  0.00  0.00    +0.000 NA
ENDBRANCH  16  17
ENDBRANCH  14  16
ENDBRANCH   4  12
TORSDOF 4
ENDMDL
MODEL 9
REMARK VINA RESULT:    -5.959      2.011      2.899
REMARK INTER + INTRA:          -7.765
REMARK INTER:                  -7.356
REMARK INTRA:                  -0.409
REMARK UNBOUND:                -0.413
REMARK  Name = 
REMARK  4 active torsions:
REMARK  status: ('A' for Active; 'I' for Inactive)
REMARK    1  A    between atoms: C_2  and  C_4
REMARK    2  A    between atoms: C_7  and  C_8
REMARK    3  A    between atoms: N_10  and  C_11
REMARK    4  A    between atoms: C_11  and  C_12
REMARK                            x       y       z     vdW  Elec       q    Type
REMARK                         _______ _______ _______ _____ _____    ______ ____
ROOT
ATOM      1  C   UNL     1      48.359   4.346  16.652  0.00  0.00    +0.000 A 
ATOM      2  C   UNL     1      48.636   5.635  16.193  0.00  0.00    +0.000 A 
ATOM      3  C   UNL     1      48.031   6.081  15.016  0.00  0.00    +0.000 A 
ATOM      4  C   UNL     1      47.166   5.224  14.339  0.00  0.00    +0.000 A 
ATOM      5  N   UNL     1      46.873   3.963  14.764  0.00  0.00    +0.000 NA
ATOM      6  C   UNL     1      47.490   3.555  15.905  0.00  0.00    +0.000 A 
ENDROOT
BRANCH   1   8
ATOM      7  N   UNL     1      48.148   3.328  18.857  0.00  0.00    +0.000 N 
ATOM      8  C   UNL     1      48.978   3.770  17.866  0.00  0.00    +0.000 C 
ATOM      9  O   UNL     1      50.194   3.669  17.968  0.00  0.00    +0.000 OA
ATOM     10  H   UNL     1      48.593   2.857  19.638  0.00  0.00    +0.000 HD
ATOM     11  H   UNL     1      47.160   3.174  18.725  0.00  0.00    +0.000 HD
ENDBRANCH   1   8
BRANCH   4  12
ATOM     12  C   UNL     1      46.510   5.684  13.070  0.00  0.00    +0.000 C 
ATOM     13  O   UNL     1      47.105   6.410  12.279  0.00  0.00    +0.000 OA
ATOM     14  N   UNL     1      45.221   5.239  12.875  0.00  0.00    +0.000 N 
ATOM     15  H   UNL     1      44.854   4.561  13.535  0.00  0.00    +0.000 HD
BRANCH  14  16
ATOM     16  C   UNL     1      44.464   5.543  11.678  0.00  0.00    +0.000 C 
BRANCH  16  17
ATOM     17  C   UNL     1      44.714   4.559  10.555  0.00  0.00    +0.000 A 
ATOM     18  C   UNL     1      45.398   4.966   9.410  0.00  0.00    +0.000 A 
ATOM     19  C   UNL     1      45.614   4.045   8.388  0.00  0.00    +0.000 A 
ATOM     20  C   UNL     1      45.151   2.743   8.537  0.00  0.00    +0.000 A 
ATOM     21  C   UNL     1      44.487   2.417   9.706  0.00  0.00    +0.000 A 
ATOM     22  N   UNL     1      44.260   3.289  10.716  0.00  0.00    +0.000 NA
ENDBRANCH  16  17
ENDBRANCH  14  16
ENDBRANCH   4  12
TORSDOF 4
ENDMDL
