MODEL 1
REMARK VINA RESULT:    -7.845      0.000      0.000
REMARK INTER + INTRA:         -11.169
REMARK INTER:                 -10.368
REMARK INTRA:                  -0.801
REMARK UNBOUND:                -0.801
REMARK  Name = 
REMARK  6 active torsions:
REMARK  status: ('A' for Active; 'I' for Inactive)
REMARK    1  A    between atoms: N_1  and  C_2
REMARK    2  A    between atoms: C_2  and  C_3
REMARK    3  A    between atoms: C_3  and  C_4
REMARK    4  A    between atoms: C_7  and  C_8
REMARK    5  A    between atoms: C_8  and  N_9
REMARK    6  A    between atoms: C_14  and  C_15
REMARK                            x       y       z     vdW  Elec       q    Type
REMARK                         _______ _______ _______ _____ _____    ______ ____
ROOT
ATOM      1  N   UNL     1      43.498   4.277  10.537  0.00  0.00    +0.000 N 
ATOM      2  N   UNL     1      42.999   3.254  11.264  0.00  0.00    +0.000 NA
ATOM      3  N   UNL     1      43.627   2.156  10.873  0.00  0.00    +0.000 NA
ATOM      4  C   UNL     1      44.429   2.484   9.813  0.00  0.00    +0.000 A 
ATOM      5  C   UNL     1      45.376   1.729   9.115  0.00  0.00    +0.000 A 
ATOM      6  C   UNL     1      46.053   2.313   8.031  0.00  0.00    +0.000 A 
ATOM      7  C   UNL     1      45.730   3.623   7.627  0.00  0.00    +0.000 A 
ATOM      8  C   UNL     1      44.816   4.410   8.347  0.00  0.00    +0.000 A 
ATOM      9  C   UNL     1      44.227   3.812   9.465  0.00  0.00    +0.000 A 
ENDROOT
BRANCH   6  10
ATOM     10  C   UNL     1      47.126   1.495   7.395  0.00  0.00    +0.000 C 
ATOM     11  N   UNL     1      48.190   2.136   6.817  0.00  0.00    +0.000 N 
ATOM     12  O   UNL     1      47.083   0.272   7.394  0.00  0.00    +0.000 OA
ATOM     13  H   UNL     1      48.308   3.130   6.740  0.00  0.00    +0.000 HD
ATOM     14  H   UNL     1      48.898   1.536   6.408  0.00  0.00    +0.000 HD
ENDBRANCH   6  10
BRANCH   1  15
ATOM     15  C   UNL     1      43.625   5.586  11.164  0.00  0.00    +0.000 C 
BRANCH  15  19
ATOM     16  C   UNL     1      47.553   6.249  12.908  0.00  0.00    +0.000 A 
ATOM     17  C   UNL     1      46.638   5.384  13.522  0.00  0.00    +0.000 A 
ATOM     18  C   UNL     1      45.383   5.144  12.948  0.00  0.00    +0.000 A 
ATOM     19  C   UNL     1      45.018   5.758  11.742  0.00  0.00    +0.000 A 
ATOM     20  C   UNL     1      45.941   6.617  11.125  0.00  0.00    +0.000 A 
ATOM     21  C   UNL     1      47.195   6.854  11.698  0.00  0.00    +0.000 A 
BRANCH  16  22
ATOM     22  C   UNL     1      48.892   6.540  13.547  0.00  0.00    +0.000 C 
BRANCH  22  23
ATOM     23  C   UNL     1      48.772   6.923  15.028  0.00  0.00    +0.000 C 
BRANCH  23  24
ATOM     24  N   UNL     1      49.414   5.925  15.886  0.00  0.00    +0.000 NA
ATOM     25  H   UNL     1      49.047   6.009  16.833  0.00  0.00    +0.000 HD
ATOM     26  H   UNL     1      50.413   6.115  15.950  0.00  0.00    +0.000 HD
ENDBRANCH  23  24
ENDBRANCH  22  23
ENDBRANCH  16  22
ENDBRANCH  15  19
ENDBRANCH   1  15
TORSDOF 6
ENDMDL
MODEL 2
REMARK VINA RESULT:    -7.837      2.533      6.175
REMARK INTER + INTRA:         -11.158
REMARK INTER:                 -10.657
REMARK INTRA:                  -0.501
REMARK UNBOUND:                -0.801
REMARK  Name = 
REMARK  6 active torsions:
REMARK  status: ('A' for Active; 'I' for Inactive)
REMARK    1  A    between atoms: N_1  and  C_2
REMARK    2  A    between atoms: C_2  and  C_3
REMARK    3  A    between atoms: C_3  and  C_4
REMARK    4  A    between atoms: C_7  and  C_8
REMARK    5  A    between atoms: C_8  and  N_9
REMARK    6  A    between atoms: C_14  and  C_15
REMARK                            x       y       z     vdW  Elec       q    Type
REMARK                         _______ _______ _______ _____ _____    ______ ____
ROOT
ATOM      1  N   UNL     1      43.585   4.170  12.233  0.00  0.00    +0.000 N 
ATOM      2  N   UNL     1      42.810   5.268  12.091  0.00  0.00    +0.000 NA
ATOM      3  N   UNL     1      43.590   6.321  12.278  0.00  0.00    +0.000 NA
ATOM      4  C   UNL     1      44.825   5.870  12.661  0.00  0.00    +0.000 A 
ATOM      5  C   UNL     1      46.025   6.555  12.866  0.00  0.00    +0.000 A 
ATOM      6  C   UNL     1      47.158   5.838  13.287  0.00  0.00    +0.000 A 
ATOM      7  C   UNL     1      47.057   4.459  13.551  0.00  0.00    +0.000 A 
ATOM      8  C   UNL     1      45.870   3.748  13.305  0.00  0.00    +0.000 A 
ATOM      9  C   UNL     1      44.794   4.490  12.810  0.00  0.00    +0.000 A 
ENDROOT
BRANCH   6  10
ATOM     10  C   UNL     1      48.435   6.605  13.386  0.00  0.00    +0.000 C 
ATOM     11  N   UNL     1      48.833   7.362  12.316  0.00  0.00    +0.000 N 
ATOM     12  O   UNL     1      49.117   6.584  14.401  0.00  0.00    +0.000 OA
ATOM     13  H   UNL     1      48.363   7.427  11.431  0.00  0.00    +0.000 HD
ATOM     14  H   UNL     1      49.701   7.874  12.436  0.00  0.00    +0.000 HD
ENDBRANCH   6  10
BRANCH   1  15
ATOM     15  C   UNL     1      43.305   3.004  11.407  0.00  0.00    +0.000 C 
BRANCH  15  19
ATOM     16  C   UNL     1      45.853   3.179   7.888  0.00  0.00    +0.000 A 
ATOM     17  C   UNL     1      45.615   1.961   8.535  0.00  0.00    +0.000 A 
ATOM     18  C   UNL     1      44.771   1.894   9.650  0.00  0.00    +0.000 A 
ATOM     19  C   UNL     1      44.139   3.045  10.140  0.00  0.00    +0.000 A 
ATOM     20  C   UNL     1      44.373   4.264   9.484  0.00  0.00    +0.000 A 
ATOM     21  C   UNL     1      45.213   4.329   8.368  0.00  0.00    +0.000 A 
BRANCH  16  22
ATOM     22  C   UNL     1      46.795   3.260   6.708  0.00  0.00    +0.000 C 
BRANCH  22  23
ATOM     23  C   UNL     1      47.985   2.301   6.833  0.00  0.00    +0.000 C 
BRANCH  23  24
ATOM     24  N   UNL     1      48.447   1.857   5.516  0.00  0.00    +0.000 NA
ATOM     25  H   UNL     1      49.043   1.037   5.627  0.00  0.00    +0.000 HD
ATOM     26  H   UNL     1      49.031   2.577   5.093  0.00  0.00    +0.000 HD
ENDBRANCH  23  24
ENDBRANCH  22  23
ENDBRANCH  16  22
ENDBRANCH  15  19
ENDBRANCH   1  15
TORSDOF 6
ENDMDL
MODEL 3
REMARK VINA RESULT:    -7.249      3.107      7.114
REMARK INTER + INTRA:         -10.381
REMARK INTER:                  -9.835
REMARK INTRA:                  -0.546
REMARK UNBOUND:                -0.801
REMARK  Name = 
REMARK  6 active torsions:
REMARK  status: ('A' for Active; 'I' for Inactive)
REMARK    1  A    between atoms: N_1  and  C_2
REMARK    2  A    between atoms: C_2  and  C_3
REMARK    3  A    between atoms: C_3  and  C_4
REMARK    4  A    between atoms: C_7  and  C_8
REMARK    5  A    between atoms: C_8  and  N_9
REMARK    6  A    between atoms: C_14  and  C_15
REMARK                            x       y       z     vdW  Elec       q    Type
REMARK                         _______ _______ _______ _____ _____    ______ ____
ROOT
ATOM      1  N   UNL     1      45.898   4.569  12.445  0.00  0.00    +0.000 N 
ATOM      2  N   UNL     1      45.989   3.640  13.422  0.00  0.00    +0.000 NA
ATOM      3  N   UNL     1      46.633   4.203  14.433  0.00  0.00    +0.000 NA
ATOM      4  C   UNL     1      47.051   5.443  14.030  0.00  0.00    +0.000 A 
ATOM      5  C   UNL     1      47.664   6.477  14.743  0.00  0.00    +0.000 A 
ATOM      6  C   UNL     1      48.016   7.658  14.067  0.00  0.00    +0.000 A 
ATOM      7  C   UNL     1      47.801   7.762  12.680  0.00  0.00    +0.000 A 
ATOM      8  C   UNL     1      47.144   6.752  11.959  0.00  0.00    +0.000 A 
ATOM      9  C   UNL     1      46.741   5.630  12.690  0.00  0.00    +0.000 A 
ENDROOT
BRANCH   6  10
ATOM     10  C   UNL     1      48.569   8.765  14.902  0.00  0.00    +0.000 C 
ATOM     11  N   UNL     1      47.812   9.255  15.933  0.00  0.00    +0.000 N 
ATOM     12  O   UNL     1      49.683   9.227  14.696  0.00  0.00    +0.000 OA
ATOM     13  H   UNL     1      46.879   8.966  16.169  0.00  0.00    +0.000 HD
ATOM     14  H   UNL     1      48.235   9.998  16.478  0.00  0.00    +0.000 HD
ENDBRANCH   6  10
BRANCH   1  15
ATOM     15  C   UNL     1      44.706   4.591  11.608  0.00  0.00    +0.000 C 
BRANCH  15  19
ATOM     16  C   UNL     1      45.838   3.129   7.673  0.00  0.00    +0.000 A 
ATOM     17  C   UNL     1      45.287   2.261   8.623  0.00  0.00    +0.000 A 
ATOM     18  C   UNL     1      44.892   2.733   9.881  0.00  0.00    +0.000 A 
ATOM     19  C   UNL     1      45.034   4.088  10.214  0.00  0.00    +0.000 A 
ATOM     20  C   UNL     1      45.579   4.956   9.256  0.00  0.00    +0.000 A 
ATOM     21  C   UNL     1      45.970   4.484   7.999  0.00  0.00    +0.000 A 
BRANCH  16  22
ATOM     22  C   UNL     1      46.302   2.613   6.328  0.00  0.00    +0.000 C 
BRANCH  22  23
ATOM     23  C   UNL     1      47.390   1.539   6.449  0.00  0.00    +0.000 C 
BRANCH  23  24
ATOM     24  N   UNL     1      48.571   1.891   5.657  0.00  0.00    +0.000 NA
ATOM     25  H   UNL     1      48.775   1.136   5.003  0.00  0.00    +0.000 HD
ATOM     26  H   UNL     1      49.385   1.968   6.266  0.00  0.00    +0.000 HD
ENDBRANCH  23  24
ENDBRANCH  22  23
ENDBRANCH  16  22
ENDBRANCH  15  19
ENDBRANCH   1  15
TORSDOF 6
ENDMDL
MODEL 4
REMARK VINA RESULT:    -6.769      3.068      6.731
REMARK INTER + INTRA:          -9.746
REMARK INTER:                  -9.441
REMARK INTRA:                  -0.305
REMARK UNBOUND:                -0.801
REMARK  Name = 
REMARK  6 active torsions:
REMARK  status: ('A' for Active; 'I' for Inactive)
REMARK    1  A    between atoms: N_1  and  C_2
REMARK    2  A    between atoms: C_2  and  C_3
REMARK    3  A    between atoms: C_3  and  C_4
REMARK    4  A    between atoms: C_7  and  C_8
REMARK    5  A    between atoms: C_8  and  N_9
REMARK    6  A    between atoms: C_14  and  C_15
REMARK                            x       y       z     vdW  Elec       q    Type
REMARK                         _______ _______ _______ _____ _____    ______ ____
ROOT
ATOM      1  N   UNL     1      44.033   4.902  11.451  0.00  0.00    +0.000 N 
ATOM      2  N   UNL     1      43.217   4.880  12.528  0.00  0.00    +0.000 NA
ATOM      3  N   UNL     1      43.596   5.869  13.322  0.00  0.00    +0.000 NA
ATOM      4  C   UNL     1      44.729   6.426  12.794  0.00  0.00    +0.000 A 
ATOM      5  C   UNL     1      45.455   7.558  13.174  0.00  0.00    +0.000 A 
ATOM      6  C   UNL     1      46.616   7.898  12.459  0.00  0.00    +0.000 A 
ATOM      7  C   UNL     1      47.064   7.068  11.413  0.00  0.00    +0.000 A 
ATOM      8  C   UNL     1      46.320   5.954  10.989  0.00  0.00    +0.000 A 
ATOM      9  C   UNL     1      45.131   5.702  11.679  0.00  0.00    +0.000 A 
ENDROOT
BRANCH   6  10
ATOM     10  C   UNL     1      47.287   9.174  12.844  0.00  0.00    +0.000 C 
ATOM     11  N   UNL     1      46.655  10.359  12.575  0.00  0.00    +0.000 N 
ATOM     12  O   UNL     1      48.375   9.182  13.405  0.00  0.00    +0.000 OA
ATOM     13  H   UNL     1      45.778  10.464  12.097  0.00  0.00    +0.000 HD
ATOM     14  H   UNL     1      47.145  11.198  12.866  0.00  0.00    +0.000 HD
ENDBRANCH   6  10
BRANCH   1  15
ATOM     15  C   UNL     1      43.487   4.536  10.151  0.00  0.00    +0.000 C 
BRANCH  15  19
ATOM     16  C   UNL     1      46.249   2.166   7.773  0.00  0.00    +0.000 A 
ATOM     17  C   UNL     1      46.112   3.540   7.544  0.00  0.00    +0.000 A 
ATOM     18  C   UNL     1      45.246   4.313   8.328  0.00  0.00    +0.000 A 
ATOM     19  C   UNL     1      44.504   3.730   9.364  0.00  0.00    +0.000 A 
ATOM     20  C   UNL     1      44.651   2.353   9.596  0.00  0.00    +0.000 A 
ATOM     21  C   UNL     1      45.518   1.582   8.814  0.00  0.00    +0.000 A 
BRANCH  16  22
ATOM     22  C   UNL     1      47.153   1.321   6.902  0.00  0.00    +0.000 C 
BRANCH  22  23
ATOM     23  C   UNL     1      48.362   2.102   6.370  0.00  0.00    +0.000 C 
BRANCH  23  24
ATOM     24  N   UNL     1      48.287   2.267   4.917  0.00  0.00    +0.000 NA
ATOM     25  H   UNL     1      48.023   1.380   4.490  0.00  0.00    +0.000 HD
ATOM     26  H   UNL     1      49.208   2.498   4.547  0.00  0.00    +0.000 HD
ENDBRANCH  23  24
ENDBRANCH  22  23
ENDBRANCH  16  22
ENDBRANCH  15  19
ENDBRANCH   1  15
TORSDOF 6
ENDMDL
MODEL 5
REMARK VINA RESULT:    -6.565      1.833      2.033
REMARK INTER + INTRA:          -9.477
REMARK INTER:                  -8.617
REMARK INTRA:                  -0.860
REMARK UNBOUND:                -0.801
REMARK  Name = 
REMARK  6 active torsions:
REMARK  status: ('A' for Active; 'I' for Inactive)
REMARK    1  A    between atoms: N_1  and  C_2
REMARK    2  A    between atoms: C_2  and  C_3
REMARK    3  A    between atoms: C_3  and  C_4
REMARK    4  A    between atoms: C_7  and  C_8
REMARK    5  A    between atoms: C_8  and  N_9
REMARK    6  A    between atoms: C_14  and  C_15
REMARK                            x       y       z     vdW  Elec       q    Type
REMARK                         _______ _______ _______ _____ _____    ______ ____
ROOT
ATOM      1  N   UNL     1      43.562   4.593  12.215  0.00  0.00    +0.000 N 
ATOM      2  N   UNL     1      43.423   3.493  12.988  0.00  0.00    +0.000 NA
ATOM      3  N   UNL     1      43.933   2.476  12.312  0.00  0.00    +0.000 NA
ATOM      4  C   UNL     1      44.275   2.926  11.065  0.00  0.00    +0.000 A 
ATOM      5  C   UNL     1      44.950   2.293  10.018  0.00  0.00    +0.000 A 
ATOM      6  C   UNL     1      45.153   2.989   8.814  0.00  0.00    +0.000 A 
ATOM      7  C   UNL     1      44.626   4.286   8.658  0.00  0.00    +0.000 A 
ATOM      8  C   UNL     1      43.987   4.953   9.717  0.00  0.00    +0.000 A 
ATOM      9  C   UNL     1      43.881   4.249  10.920  0.00  0.00    +0.000 A 
ENDROOT
BRANCH   6  10
ATOM     10  C   UNL     1      45.971   2.300   7.774  0.00  0.00    +0.000 C 
ATOM     11  N   UNL     1      46.383   1.014   8.004  0.00  0.00    +0.000 N 
ATOM     12  O   UNL     1      46.264   2.851   6.721  0.00  0.00    +0.000 OA
ATOM     13  H   UNL     1      46.220   0.484   8.841  0.00  0.00    +0.000 HD
ATOM     14  H   UNL     1      46.927   0.585   7.263  0.00  0.00    +0.000 HD
ENDBRANCH   6  10
BRANCH   1  15
ATOM     15  C   UNL     1      43.827   5.872  12.858  0.00  0.00    +0.000 C 
BRANCH  15  19
ATOM     16  C   UNL     1      48.047   6.922  12.846  0.00  0.00    +0.000 A 
ATOM     17  C   UNL     1      47.586   5.835  13.600  0.00  0.00    +0.000 A 
ATOM     18  C   UNL     1      46.233   5.474  13.582  0.00  0.00    +0.000 A 
ATOM     19  C   UNL     1      45.311   6.189  12.804  0.00  0.00    +0.000 A 
ATOM     20  C   UNL     1      45.778   7.273  12.044  0.00  0.00    +0.000 A 
ATOM     21  C   UNL     1      47.131   7.629  12.060  0.00  0.00    +0.000 A 
BRANCH  16  22
ATOM     22  C   UNL     1      49.500   7.337  12.895  0.00  0.00    +0.000 C 
BRANCH  22  23
ATOM     23  C   UNL     1      49.967   8.012  11.598  0.00  0.00    +0.000 C 
BRANCH  23  24
ATOM     24  N   UNL     1      51.132   7.325  11.034  0.00  0.00    +0.000 NA
ATOM     25  H   UNL     1      51.278   7.641  10.077  0.00  0.00    +0.000 HD
ATOM     26  H   UNL     1      50.950   6.324  10.979  0.00  0.00    +0.000 HD
ENDBRANCH  23  24
ENDBRANCH  22  23
ENDBRANCH  16  22
ENDBRANCH  15  19
ENDBRANCH   1  15
TORSDOF 6
ENDMDL
MODEL 6
REMARK VINA RESULT:    -6.435      4.130      6.167
REMARK INTER + INTRA:          -9.305
REMARK INTER:                  -8.890
REMARK INTRA:                  -0.415
REMARK UNBOUND:                -0.801
REMARK  Name = 
REMARK  6 active torsions:
REMARK  status: ('A' for Active; 'I' for Inactive)
REMARK    1  A    between atoms: N_1  and  C_2
REMARK    2  A    between atoms: C_2  and  C_3
REMARK    3  A    between atoms: C_3  and  C_4
REMARK    4  A    between atoms: C_7  and  C_8
REMARK    5  A    between atoms: C_8  and  N_9
REMARK    6  A    between atoms: C_14  and  C_15
REMARK                            x       y       z     vdW  Elec       q    Type
REMARK                         _______ _______ _______ _____ _____    ______ ____
ROOT
ATOM      1  N   UNL     1      47.398   4.802  14.732  0.00  0.00    +0.000 N 
ATOM      2  N   UNL     1      47.992   6.003  14.557  0.00  0.00    +0.000 NA
ATOM      3  N   UNL     1      47.442   6.556  13.488  0.00  0.00    +0.000 NA
ATOM      4  C   UNL     1      46.592   5.640  12.928  0.00  0.00    +0.000 A 
ATOM      5  C   UNL     1      45.690   5.759  11.867  0.00  0.00    +0.000 A 
ATOM      6  C   UNL     1      44.943   4.635  11.475  0.00  0.00    +0.000 A 
ATOM      7  C   UNL     1      45.154   3.397  12.112  0.00  0.00    +0.000 A 
ATOM      8  C   UNL     1      46.022   3.273  13.209  0.00  0.00    +0.000 A 
ATOM      9  C   UNL     1      46.682   4.437  13.614  0.00  0.00    +0.000 A 
ENDROOT
BRANCH   6  10
ATOM     10  C   UNL     1      43.922   4.851  10.408  0.00  0.00    +0.000 C 
ATOM     11  N   UNL     1      44.174   4.377   9.148  0.00  0.00    +0.000 N 
ATOM     12  O   UNL     1      42.866   5.423  10.641  0.00  0.00    +0.000 OA
ATOM     13  H   UNL     1      45.016   3.919   8.848  0.00  0.00    +0.000 HD
ATOM     14  H   UNL     1      43.445   4.538   8.461  0.00  0.00    +0.000 HD
ENDBRANCH   6  10
BRANCH   1  15
ATOM     15  C   UNL     1      47.184   4.318  16.089  0.00  0.00    +0.000 C 
BRANCH  15  19
ATOM     16  C   UNL     1      50.982   2.783  17.548  0.00  0.00    +0.000 A 
ATOM     17  C   UNL     1      50.647   4.132  17.719  0.00  0.00    +0.000 A 
ATOM     18  C   UNL     1      49.412   4.624  17.278  0.00  0.00    +0.000 A 
ATOM     19  C   UNL     1      48.481   3.775  16.662  0.00  0.00    +0.000 A 
ATOM     20  C   UNL     1      48.817   2.422  16.501  0.00  0.00    +0.000 A 
ATOM     21  C   UNL     1      50.050   1.931  16.945  0.00  0.00    +0.000 A 
BRANCH  16  22
ATOM     22  C   UNL     1      52.331   2.258  17.988  0.00  0.00    +0.000 C 
BRANCH  22  23
ATOM     23  C   UNL     1      52.661   0.890  17.378  0.00  0.00    +0.000 C 
BRANCH  23  24
ATOM     24  N   UNL     1      52.699  -0.152  18.407  0.00  0.00    +0.000 NA
ATOM     25  H   UNL     1      53.209  -0.959  18.050  0.00  0.00    +0.000 HD
ATOM     26  H   UNL     1      51.754  -0.477  18.606  0.00  0.00    +0.000 HD
ENDBRANCH  23  24
ENDBRANCH  22  23
ENDBRANCH  16  22
ENDBRANCH  15  19
ENDBRANCH   1  15
TORSDOF 6
ENDMDL
MODEL 7
REMARK VINA RESULT:    -6.016      3.611      7.563
REMARK INTER + INTRA:          -8.751
REMARK INTER:                  -8.167
REMARK INTRA:                  -0.585
REMARK UNBOUND:                -0.801
REMARK  Name = 
REMARK  6 active torsions:
REMARK  status: ('A' for Active; 'I' for Inactive)
REMARK    1  A    between atoms: N_1  and  C_2
REMARK    2  A    between atoms: C_2  and  C_3
REMARK    3  A    between atoms: C_3  and  C_4
REMARK    4  A    between atoms: C_7  and  C_8
REMARK    5  A    between atoms: C_8  and  N_9
REMARK    6  A    between atoms: C_14  and  C_15
REMARK                            x       y       z     vdW  Elec       q    Type
REMARK                         _______ _______ _______ _____ _____    ______ ____
ROOT
ATOM      1  N   UNL     1      46.606   5.044  13.848  0.00  0.00    +0.000 N 
ATOM      2  N   UNL     1      46.819   4.056  14.745  0.00  0.00    +0.000 NA
ATOM      3  N   UNL     1      47.683   4.519  15.635  0.00  0.00    +0.000 NA
ATOM      4  C   UNL     1      48.101   5.753  15.215  0.00  0.00    +0.000 A 
ATOM      5  C   UNL     1      48.910   6.705  15.841  0.00  0.00    +0.000 A 
ATOM      6  C   UNL     1      49.207   7.901  15.164  0.00  0.00    +0.000 A 
ATOM      7  C   UNL     1      48.738   8.099  13.852  0.00  0.00    +0.000 A 
ATOM      8  C   UNL     1      47.885   7.173  13.228  0.00  0.00    +0.000 A 
ATOM      9  C   UNL     1      47.553   6.036  13.972  0.00  0.00    +0.000 A 
ENDROOT
BRANCH   6  10
ATOM     10  C   UNL     1      49.986   8.922  15.924  0.00  0.00    +0.000 C 
ATOM     11  N   UNL     1      51.278   9.181  15.548  0.00  0.00    +0.000 N 
ATOM     12  O   UNL     1      49.493   9.539  16.858  0.00  0.00    +0.000 OA
ATOM     13  H   UNL     1      51.784   8.714  14.816  0.00  0.00    +0.000 HD
ATOM     14  H   UNL     1      51.762   9.890  16.087  0.00  0.00    +0.000 HD
ENDBRANCH   6  10
BRANCH   1  15
ATOM     15  C   UNL     1      45.280   5.185  13.262  0.00  0.00    +0.000 C 
BRANCH  15  19
ATOM     16  C   UNL     1      45.121   3.915   9.107  0.00  0.00    +0.000 A 
ATOM     17  C   UNL     1      45.545   5.206   9.441  0.00  0.00    +0.000 A 
ATOM     18  C   UNL     1      45.628   5.610  10.779  0.00  0.00    +0.000 A 
ATOM     19  C   UNL     1      45.294   4.727  11.816  0.00  0.00    +0.000 A 
ATOM     20  C   UNL     1      44.876   3.430  11.477  0.00  0.00    +0.000 A 
ATOM     21  C   UNL     1      44.798   3.027  10.140  0.00  0.00    +0.000 A 
BRANCH  16  22
ATOM     22  C   UNL     1      44.994   3.490   7.661  0.00  0.00    +0.000 C 
BRANCH  22  23
ATOM     23  C   UNL     1      46.324   3.013   7.064  0.00  0.00    +0.000 C 
BRANCH  23  24
ATOM     24  N   UNL     1      46.896   4.024   6.172  0.00  0.00    +0.000 NA
ATOM     25  H   UNL     1      47.382   4.727   6.728  0.00  0.00    +0.000 HD
ATOM     26  H   UNL     1      46.149   4.514   5.682  0.00  0.00    +0.000 HD
ENDBRANCH  23  24
ENDBRANCH  22  23
ENDBRANCH  16  22
ENDBRANCH  15  19
ENDBRANCH   1  15
TORSDOF 6
ENDMDL
MODEL 8
REMARK VINA RESULT:    -5.969      3.930      7.799
REMARK INTER + INTRA:          -8.690
REMARK INTER:                  -8.768
REMARK INTRA:                   0.078
REMARK UNBOUND:                -0.801
REMARK  Name = 
REMARK  6 active torsions:
REMARK  status: ('A' for Active; 'I' for Inactive)
REMARK    1  A    between atoms: N_1  and  C_2
REMARK    2  A    between atoms: C_2  and  C_3
REMARK    3  A    between atoms: C_3  and  C_4
REMARK    4  A    between atoms: C_7  and  C_8
REMARK    5  A    between atoms: C_8  and  N_9
REMARK    6  A    between atoms: C_14  and  C_15
REMARK                            x       y       z     vdW  Elec       q    Type
REMARK                         _______ _______ _______ _____ _____    ______ ____
ROOT
ATOM      1  N   UNL     1      47.005   4.754  14.153  0.00  0.00    +0.000 N 
ATOM      2  N   UNL     1      47.043   3.446  13.815  0.00  0.00    +0.000 NA
ATOM      3  N   UNL     1      47.525   2.790  14.858  0.00  0.00    +0.000 NA
ATOM      4  C   UNL     1      47.904   3.710  15.798  0.00  0.00    +0.000 A 
ATOM      5  C   UNL     1      48.358   3.543  17.109  0.00  0.00    +0.000 A 
ATOM      6  C   UNL     1      48.707   4.678  17.862  0.00  0.00    +0.000 A 
ATOM      7  C   UNL     1      48.650   5.955  17.271  0.00  0.00    +0.000 A 
ATOM      8  C   UNL     1      48.151   6.143  15.972  0.00  0.00    +0.000 A 
ATOM      9  C   UNL     1      47.741   4.992  15.292  0.00  0.00    +0.000 A 
ENDROOT
BRANCH   6  10
ATOM     10  C   UNL     1      49.084   4.444  19.287  0.00  0.00    +0.000 C 
ATOM     11  N   UNL     1      48.286   3.639  20.056  0.00  0.00    +0.000 N 
ATOM     12  O   UNL     1      50.091   4.940  19.772  0.00  0.00    +0.000 OA
ATOM     13  H   UNL     1      47.427   3.207  19.763  0.00  0.00    +0.000 HD
ATOM     14  H   UNL     1      48.589   3.501  21.014  0.00  0.00    +0.000 HD
ENDBRANCH   6  10
BRANCH   1  15
ATOM     15  C   UNL     1      45.920   5.580  13.638  0.00  0.00    +0.000 C 
BRANCH  15  19
ATOM     16  C   UNL     1      44.960   4.165   9.640  0.00  0.00    +0.000 A 
ATOM     17  C   UNL     1      44.540   3.450  10.768  0.00  0.00    +0.000 A 
ATOM     18  C   UNL     1      44.820   3.918  12.058  0.00  0.00    +0.000 A 
ATOM     19  C   UNL     1      45.522   5.116  12.249  0.00  0.00    +0.000 A 
ATOM     20  C   UNL     1      45.935   5.835  11.116  0.00  0.00    +0.000 A 
ATOM     21  C   UNL     1      45.651   5.368   9.828  0.00  0.00    +0.000 A 
BRANCH  16  22
ATOM     22  C   UNL     1      44.693   3.642   8.247  0.00  0.00    +0.000 C 
BRANCH  22  23
ATOM     23  C   UNL     1      45.970   3.180   7.532  0.00  0.00    +0.000 C 
BRANCH  23  24
ATOM     24  N   UNL     1      46.400   1.866   8.014  0.00  0.00    +0.000 NA
ATOM     25  H   UNL     1      45.585   1.262   8.117  0.00  0.00    +0.000 HD
ATOM     26  H   UNL     1      46.808   1.954   8.944  0.00  0.00    +0.000 HD
ENDBRANCH  23  24
ENDBRANCH  22  23
ENDBRANCH  16  22
ENDBRANCH  15  19
ENDBRANCH   1  15
TORSDOF 6
ENDMDL
MODEL 9
REMARK VINA RESULT:    -5.589      3.871      6.812
REMARK INTER + INTRA:          -8.187
REMARK INTER:                  -7.602
REMARK INTRA:                  -0.585
REMARK UNBOUND:                -0.801
REMARK  Name = 
REMARK  6 active torsions:
REMARK  status: ('A' for Active; 'I' for Inactive)
REMARK    1  A    between atoms: N_1  and  C_2
REMARK    2  A    between atoms: C_2  and  C_3
REMARK    3  A    between atoms: C_3  and  C_4
REMARK    4  A    between atoms: C_7  and  C_8
REMARK    5  A    between atoms: C_8  and  N_9
REMARK    6  A    between atoms: C_14  and  C_15
REMARK                            x       y       z     vdW  Elec       q    Type
REMARK                         _______ _______ _______ _____ _____    ______ ____
ROOT
ATOM      1  N   UNL     1      48.661   6.477  14.912  0.00  0.00    +0.000 N 
ATOM      2  N   UNL     1      49.321   7.468  14.274  0.00  0.00    +0.000 NA
ATOM      3  N   UNL     1      48.657   7.719  13.156  0.00  0.00    +0.000 NA
ATOM      4  C   UNL     1      47.654   6.794  13.044  0.00  0.00    +0.000 A 
ATOM      5  C   UNL     1      46.609   6.687  12.122  0.00  0.00    +0.000 A 
ATOM      6  C   UNL     1      45.716   5.606  12.223  0.00  0.00    +0.000 A 
ATOM      7  C   UNL     1      45.919   4.620  13.208  0.00  0.00    +0.000 A 
ATOM      8  C   UNL     1      46.936   4.738  14.170  0.00  0.00    +0.000 A 
ATOM      9  C   UNL     1      47.748   5.872  14.077  0.00  0.00    +0.000 A 
ENDROOT
BRANCH   6  10
ATOM     10  C   UNL     1      44.561   5.604  11.279  0.00  0.00    +0.000 C 
ATOM     11  N   UNL     1      44.784   5.287   9.965  0.00  0.00    +0.000 N 
ATOM     12  O   UNL     1      43.426   5.861  11.656  0.00  0.00    +0.000 OA
ATOM     13  H   UNL     1      45.676   5.087   9.550  0.00  0.00    +0.000 HD
ATOM     14  H   UNL     1      43.966   5.288   9.365  0.00  0.00    +0.000 HD
ENDBRANCH   6  10
BRANCH   1  15
ATOM     15  C   UNL     1      48.625   6.484  16.368  0.00  0.00    +0.000 C 
BRANCH  15  19
ATOM     16  C   UNL     1      51.444   3.484  17.769  0.00  0.00    +0.000 A 
ATOM     17  C   UNL     1      51.874   4.783  17.478  0.00  0.00    +0.000 A 
ATOM     18  C   UNL     1      50.965   5.762  17.056  0.00  0.00    +0.000 A 
ATOM     19  C   UNL     1      49.602   5.463  16.923  0.00  0.00    +0.000 A 
ATOM     20  C   UNL     1      49.173   4.160  17.223  0.00  0.00    +0.000 A 
ATOM     21  C   UNL     1      50.081   3.185  17.648  0.00  0.00    +0.000 A 
BRANCH  16  22
ATOM     22  C   UNL     1      52.430   2.415  18.186  0.00  0.00    +0.000 C 
BRANCH  22  23
ATOM     23  C   UNL     1      52.278   1.121  17.378  0.00  0.00    +0.000 C 
BRANCH  23  24
ATOM     24  N   UNL     1      51.693   0.053  18.193  0.00  0.00    +0.000 NA
ATOM     25  H   UNL     1      51.422   0.432  19.100  0.00  0.00    +0.000 HD
ATOM     26  H   UNL     1      52.395  -0.662  18.382  0.00  0.00    +0.000 HD
ENDBRANCH  23  24
ENDBRANCH  22  23
ENDBRANCH  16  22
ENDBRANCH  15  19
ENDBRANCH   1  15
TORSDOF 6
ENDMDL
