MODEL 1
REMARK VINA RESULT:    -7.741      0.000      0.000
REMARK INTER + INTRA:         -12.038
REMARK INTER:                 -10.908
REMARK INTRA:                  -1.130
REMARK UNBOUND:                -1.130
REMARK  Name = 
REMARK  8 active torsions:
REMARK  status: ('A' for Active; 'I' for Inactive)
REMARK    1  A    between atoms: C_1  and  C_2
REMARK    2  A    between atoms: C_2  and  O_3
REMARK    3  A    between atoms: O_3  and  C_4
REMARK    4  A    between atoms: C_8  and  C_9
REMARK    5  A    between atoms: C_9  and  C_10
REMARK    6  A    between atoms: C_13  and  C_14
REMARK    7  A    between atoms: C_14  and  N_15
REMARK    8  A    between atoms: C_16  and  C_18
REMARK                            x       y       z     vdW  Elec       q    Type
REMARK                         _______ _______ _______ _____ _____    ______ ____
ROOT
ATOM      1  C   UNL     1      44.809   6.163  11.374  0.00  0.00    +0.000 A 
ATOM      2  C   UNL     1      45.991   5.569  11.831  0.00  0.00    +0.000 A 
ATOM      3  C   UNL     1      46.881   6.308  12.599  0.00  0.00    +0.000 A 
ATOM      4  C   UNL     1      46.590   7.641  12.870  0.00  0.00    +0.000 A 
ATOM      5  N   UNL     1      45.461   8.247  12.420  0.00  0.00    +0.000 NA
ATOM      6  C   UNL     1      44.598   7.498  11.696  0.00  0.00    +0.000 A 
ENDROOT
BRANCH   1   7
ATOM      7  C   UNL     1      43.775   5.372  10.623  0.00  0.00    +0.000 C 
BRANCH   7  12
ATOM      8  C   UNL     1      45.683   3.621   8.008  0.00  0.00    +0.000 A 
ATOM      9  C   UNL     1      45.557   2.274   8.305  0.00  0.00    +0.000 A 
ATOM     10  C   UNL     1      44.749   1.915   9.376  0.00  0.00    +0.000 A 
ATOM     11  C   UNL     1      44.137   2.912  10.130  0.00  0.00    +0.000 A 
ATOM     12  C   UNL     1      44.347   4.248   9.789  0.00  0.00    +0.000 A 
ATOM     13  N   UNL     1      45.107   4.608   8.727  0.00  0.00    +0.000 NA
BRANCH   8  14
ATOM     14  O   UNL     1      46.488   3.951   6.937  0.00  0.00    +0.000 OA
BRANCH  14  16
ATOM     15  C   UNL     1      47.520   2.577   5.276  0.00  0.00    +0.000 C 
ATOM     16  C   UNL     1      47.523   2.986   6.736  0.00  0.00    +0.000 C 
ENDBRANCH  14  16
ENDBRANCH   8  14
ENDBRANCH   7  12
ENDBRANCH   1   7
BRANCH   4  17
ATOM     17  C   UNL     1      47.517   8.458  13.734  0.00  0.00    +0.000 C 
BRANCH  17  18
ATOM     18  N   UNL     1      47.911   7.749  14.933  0.00  0.00    +0.000 N 
ATOM     19  C   UNL     1      49.177   7.255  15.108  0.00  0.00    +0.000 C 
ATOM     20  O   UNL     1      50.049   7.392  14.254  0.00  0.00    +0.000 OA
ATOM     21  H   UNL     1      47.153   7.429  15.530  0.00  0.00    +0.000 HD
BRANCH  19  22
ATOM     22  C   UNL     1      49.468   6.613  16.397  0.00  0.00    +0.000 A 
ATOM     23  C   UNL     1      50.418   7.178  17.238  0.00  0.00    +0.000 A 
ATOM     24  S   UNL     1      50.633   6.331  18.702  0.00  0.00    +0.000 S 
ATOM     25  C   UNL     1      49.490   5.152  18.248  0.00  0.00    +0.000 A 
ATOM     26  N   UNL     1      49.218   4.098  19.061  0.00  0.00    +0.000 NA
ATOM     27  C   UNL     1      48.349   3.266  18.584  0.00  0.00    +0.000 A 
ATOM     28  N   UNL     1      47.729   3.400  17.373  0.00  0.00    +0.000 N 
ATOM     29  C   UNL     1      47.933   4.480  16.543  0.00  0.00    +0.000 A 
ATOM     30  O   UNL     1      47.285   4.623  15.512  0.00  0.00    +0.000 OA
ATOM     31  C   UNL     1      48.927   5.424  17.014  0.00  0.00    +0.000 A 
ATOM     32  H   UNL     1      47.043   2.729  17.066  0.00  0.00    +0.000 HD
ENDBRANCH  19  22
ENDBRANCH  17  18
ENDBRANCH   4  17
TORSDOF 7
ENDMDL
MODEL 2
REMARK VINA RESULT:    -7.345      2.359      2.981
REMARK INTER + INTRA:         -11.481
REMARK INTER:                 -10.604
REMARK INTRA:                  -0.876
REMARK UNBOUND:                -1.130
REMARK  Name = 
REMARK  8 active torsions:
REMARK  status: ('A' for Active; 'I' for Inactive)
REMARK    1  A    between atoms: C_1  and  C_2
REMARK    2  A    between atoms: C_2  and  O_3
REMARK    3  A    between atoms: O_3  and  C_4
REMARK    4  A    between atoms: C_8  and  C_9
REMARK    5  A    between atoms: C_9  and  C_10
REMARK    6  A    between atoms: C_13  and  C_14
REMARK    7  A    between atoms: C_14  and  N_15
REMARK    8  A    between atoms: C_16  and  C_18
REMARK                            x       y       z     vdW  Elec       q    Type
REMARK                         _______ _______ _______ _____ _____    ______ ____
ROOT
ATOM      1  C   UNL     1      45.321   5.881  11.933  0.00  0.00    +0.000 A 
ATOM      2  C   UNL     1      45.841   7.178  12.001  0.00  0.00    +0.000 A 
ATOM      3  C   UNL     1      46.917   7.445  12.836  0.00  0.00    +0.000 A 
ATOM      4  C   UNL     1      47.435   6.416  13.616  0.00  0.00    +0.000 A 
ATOM      5  N   UNL     1      46.934   5.154  13.584  0.00  0.00    +0.000 NA
ATOM      6  C   UNL     1      45.903   4.914  12.743  0.00  0.00    +0.000 A 
ENDROOT
BRANCH   1   7
ATOM      7  C   UNL     1      44.221   5.529  10.971  0.00  0.00    +0.000 C 
BRANCH   7  12
ATOM      8  C   UNL     1      45.723   3.761   8.114  0.00  0.00    +0.000 A 
ATOM      9  C   UNL     1      45.399   2.428   8.299  0.00  0.00    +0.000 A 
ATOM     10  C   UNL     1      44.588   2.097   9.377  0.00  0.00    +0.000 A 
ATOM     11  C   UNL     1      44.171   3.100  10.247  0.00  0.00    +0.000 A 
ATOM     12  C   UNL     1      44.574   4.414  10.012  0.00  0.00    +0.000 A 
ATOM     13  N   UNL     1      45.338   4.752   8.946  0.00  0.00    +0.000 NA
BRANCH   8  14
ATOM     14  O   UNL     1      46.526   4.064   7.033  0.00  0.00    +0.000 OA
BRANCH  14  16
ATOM     15  C   UNL     1      47.524   2.638   5.396  0.00  0.00    +0.000 C 
ATOM     16  C   UNL     1      47.550   3.085   6.845  0.00  0.00    +0.000 C 
ENDBRANCH  14  16
ENDBRANCH   8  14
ENDBRANCH   7  12
ENDBRANCH   1   7
BRANCH   4  17
ATOM     17  C   UNL     1      48.629   6.665  14.503  0.00  0.00    +0.000 C 
BRANCH  17  18
ATOM     18  N   UNL     1      48.256   6.799  15.895  0.00  0.00    +0.000 N 
ATOM     19  C   UNL     1      48.839   6.052  16.884  0.00  0.00    +0.000 C 
ATOM     20  O   UNL     1      49.716   5.226  16.640  0.00  0.00    +0.000 OA
ATOM     21  H   UNL     1      47.387   7.295  16.077  0.00  0.00    +0.000 HD
BRANCH  19  22
ATOM     22  C   UNL     1      48.419   6.330  18.264  0.00  0.00    +0.000 A 
ATOM     23  C   UNL     1      48.358   5.287  19.180  0.00  0.00    +0.000 A 
ATOM     24  S   UNL     1      47.873   5.768  20.741  0.00  0.00    +0.000 S 
ATOM     25  C   UNL     1      47.686   7.385  20.241  0.00  0.00    +0.000 A 
ATOM     26  N   UNL     1      47.250   8.335  21.109  0.00  0.00    +0.000 NA
ATOM     27  C   UNL     1      47.130   9.516  20.594  0.00  0.00    +0.000 A 
ATOM     28  N   UNL     1      47.413   9.827  19.293  0.00  0.00    +0.000 N 
ATOM     29  C   UNL     1      47.909   8.909  18.394  0.00  0.00    +0.000 A 
ATOM     30  O   UNL     1      48.250   9.242  17.264  0.00  0.00    +0.000 OA
ATOM     31  C   UNL     1      48.026   7.560  18.913  0.00  0.00    +0.000 A 
ATOM     32  H   UNL     1      47.321  10.772  18.954  0.00  0.00    +0.000 HD
ENDBRANCH  19  22
ENDBRANCH  17  18
ENDBRANCH   4  17
TORSDOF 7
ENDMDL
MODEL 3
REMARK VINA RESULT:    -7.102      1.710      2.360
REMARK INTER + INTRA:         -11.139
REMARK INTER:                  -9.704
REMARK INTRA:                  -1.434
REMARK UNBOUND:                -1.130
REMARK  Name = 
REMARK  8 active torsions:
REMARK  status: ('A' for Active; 'I' for Inactive)
REMARK    1  A    between atoms: C_1  and  C_2
REMARK    2  A    between atoms: C_2  and  O_3
REMARK    3  A    between atoms: O_3  and  C_4
REMARK    4  A    between atoms: C_8  and  C_9
REMARK    5  A    between atoms: C_9  and  C_10
REMARK    6  A    between atoms: C_13  and  C_14
REMARK    7  A    between atoms: C_14  and  N_15
REMARK    8  A    between atoms: C_16  and  C_18
REMARK                            x       y       z     vdW  Elec       q    Type
REMARK                         _______ _______ _______ _____ _____    ______ ____
ROOT
ATOM      1  C   UNL     1      45.733   7.429  11.842  0.00  0.00    +0.000 A 
ATOM      2  C   UNL     1      46.948   6.768  11.634  0.00  0.00    +0.000 A 
ATOM      3  C   UNL     1      48.072   7.151  12.352  0.00  0.00    +0.000 A 
ATOM      4  C   UNL     1      47.970   8.213  13.245  0.00  0.00    +0.000 A 
ATOM      5  N   UNL     1      46.808   8.885  13.449  0.00  0.00    +0.000 NA
ATOM      6  C   UNL     1      45.722   8.475  12.755  0.00  0.00    +0.000 A 
ENDROOT
BRANCH   1   7
ATOM      7  C   UNL     1      44.471   6.983  11.156  0.00  0.00    +0.000 C 
BRANCH   7  12
ATOM      8  C   UNL     1      43.840   3.375  10.787  0.00  0.00    +0.000 A 
ATOM      9  C   UNL     1      43.471   2.940  12.048  0.00  0.00    +0.000 A 
ATOM     10  C   UNL     1      43.355   3.887  13.058  0.00  0.00    +0.000 A 
ATOM     11  C   UNL     1      43.652   5.217  12.780  0.00  0.00    +0.000 A 
ATOM     12  C   UNL     1      44.055   5.568  11.492  0.00  0.00    +0.000 A 
ATOM     13  N   UNL     1      44.141   4.658  10.492  0.00  0.00    +0.000 NA
BRANCH   8  14
ATOM     14  O   UNL     1      43.945   2.416   9.801  0.00  0.00    +0.000 OA
BRANCH  14  16
ATOM     15  C   UNL     1      45.844   1.747   8.514  0.00  0.00    +0.000 C 
ATOM     16  C   UNL     1      44.814   2.835   8.746  0.00  0.00    +0.000 C 
ENDBRANCH  14  16
ENDBRANCH   8  14
ENDBRANCH   7  12
ENDBRANCH   1   7
BRANCH   4  17
ATOM     17  C   UNL     1      49.163   8.626  14.070  0.00  0.00    +0.000 C 
BRANCH  17  18
ATOM     18  N   UNL     1      49.288   7.841  15.279  0.00  0.00    +0.000 N 
ATOM     19  C   UNL     1      48.728   8.231  16.467  0.00  0.00    +0.000 C 
ATOM     20  O   UNL     1      48.085   9.273  16.567  0.00  0.00    +0.000 OA
ATOM     21  H   UNL     1      50.000   7.115  15.266  0.00  0.00    +0.000 HD
BRANCH  19  22
ATOM     22  C   UNL     1      48.870   7.312  17.603  0.00  0.00    +0.000 A 
ATOM     23  C   UNL     1      49.251   7.816  18.841  0.00  0.00    +0.000 A 
ATOM     24  S   UNL     1      49.355   6.633  20.064  0.00  0.00    +0.000 S 
ATOM     25  C   UNL     1      48.934   5.393  18.974  0.00  0.00    +0.000 A 
ATOM     26  N   UNL     1      48.875   4.099  19.382  0.00  0.00    +0.000 NA
ATOM     27  C   UNL     1      48.567   3.258  18.448  0.00  0.00    +0.000 A 
ATOM     28  N   UNL     1      48.309   3.600  17.149  0.00  0.00    +0.000 N 
ATOM     29  C   UNL     1      48.304   4.903  16.705  0.00  0.00    +0.000 A 
ATOM     30  O   UNL     1      47.969   5.186  15.560  0.00  0.00    +0.000 OA
ATOM     31  C   UNL     1      48.681   5.883  17.705  0.00  0.00    +0.000 A 
ATOM     32  H   UNL     1      48.053   2.901  16.471  0.00  0.00    +0.000 HD
ENDBRANCH  19  22
ENDBRANCH  17  18
ENDBRANCH   4  17
TORSDOF 7
ENDMDL
MODEL 4
REMARK VINA RESULT:    -6.978      3.389      4.619
REMARK INTER + INTRA:         -10.963
REMARK INTER:                 -10.116
REMARK INTRA:                  -0.847
REMARK UNBOUND:                -1.130
REMARK  Name = 
REMARK  8 active torsions:
REMARK  status: ('A' for Active; 'I' for Inactive)
REMARK    1  A    between atoms: C_1  and  C_2
REMARK    2  A    between atoms: C_2  and  O_3
REMARK    3  A    between atoms: O_3  and  C_4
REMARK    4  A    between atoms: C_8  and  C_9
REMARK    5  A    between atoms: C_9  and  C_10
REMARK    6  A    between atoms: C_13  and  C_14
REMARK    7  A    between atoms: C_14  and  N_15
REMARK    8  A    between atoms: C_16  and  C_18
REMARK                            x       y       z     vdW  Elec       q    Type
REMARK                         _______ _______ _______ _____ _____    ______ ____
ROOT
ATOM      1  C   UNL     1      47.215   5.702  13.728  0.00  0.00    +0.000 A 
ATOM      2  C   UNL     1      46.757   4.498  14.274  0.00  0.00    +0.000 A 
ATOM      3  C   UNL     1      47.228   4.080  15.511  0.00  0.00    +0.000 A 
ATOM      4  C   UNL     1      48.177   4.857  16.168  0.00  0.00    +0.000 A 
ATOM      5  N   UNL     1      48.653   6.018  15.649  0.00  0.00    +0.000 NA
ATOM      6  C   UNL     1      48.159   6.416  14.455  0.00  0.00    +0.000 A 
ENDROOT
BRANCH   1   7
ATOM      7  C   UNL     1      46.659   6.238  12.438  0.00  0.00    +0.000 C 
BRANCH   7  12
ATOM      8  C   UNL     1      44.207   4.229  10.568  0.00  0.00    +0.000 A 
ATOM      9  C   UNL     1      43.033   4.317  11.296  0.00  0.00    +0.000 A 
ATOM     10  C   UNL     1      43.022   5.131  12.422  0.00  0.00    +0.000 A 
ATOM     11  C   UNL     1      44.190   5.788  12.797  0.00  0.00    +0.000 A 
ATOM     12  C   UNL     1      45.343   5.616  12.030  0.00  0.00    +0.000 A 
ATOM     13  N   UNL     1      45.356   4.850  10.913  0.00  0.00    +0.000 NA
BRANCH   8  14
ATOM     14  O   UNL     1      44.191   3.418   9.452  0.00  0.00    +0.000 OA
BRANCH  14  16
ATOM     15  C   UNL     1      45.879   2.884   7.846  0.00  0.00    +0.000 C 
ATOM     16  C   UNL     1      44.967   3.969   8.385  0.00  0.00    +0.000 C 
ENDBRANCH  14  16
ENDBRANCH   8  14
ENDBRANCH   7  12
ENDBRANCH   1   7
BRANCH   4  17
ATOM     17  C   UNL     1      48.678   4.450  17.531  0.00  0.00    +0.000 C 
BRANCH  17  18
ATOM     18  N   UNL     1      50.066   4.045  17.502  0.00  0.00    +0.000 N 
ATOM     19  C   UNL     1      50.905   4.230  18.569  0.00  0.00    +0.000 C 
ATOM     20  O   UNL     1      50.519   4.751  19.613  0.00  0.00    +0.000 OA
ATOM     21  H   UNL     1      50.450   3.835  16.584  0.00  0.00    +0.000 HD
BRANCH  19  22
ATOM     22  C   UNL     1      52.274   3.714  18.438  0.00  0.00    +0.000 A 
ATOM     23  C   UNL     1      53.344   4.528  18.788  0.00  0.00    +0.000 A 
ATOM     24  S   UNL     1      54.867   3.784  18.598  0.00  0.00    +0.000 S 
ATOM     25  C   UNL     1      54.153   2.357  18.002  0.00  0.00    +0.000 A 
ATOM     26  N   UNL     1      54.921   1.307  17.610  0.00  0.00    +0.000 NA
ATOM     27  C   UNL     1      54.253   0.296  17.155  0.00  0.00    +0.000 A 
ATOM     28  N   UNL     1      52.890   0.245  17.064  0.00  0.00    +0.000 N 
ATOM     29  C   UNL     1      52.072   1.262  17.500  0.00  0.00    +0.000 A 
ATOM     30  O   UNL     1      50.851   1.144  17.500  0.00  0.00    +0.000 OA
ATOM     31  C   UNL     1      52.773   2.436  17.984  0.00  0.00    +0.000 A 
ATOM     32  H   UNL     1      52.425  -0.581  16.721  0.00  0.00    +0.000 HD
ENDBRANCH  19  22
ENDBRANCH  17  18
ENDBRANCH   4  17
TORSDOF 7
ENDMDL
MODEL 5
REMARK VINA RESULT:    -6.968      1.649      2.169
REMARK INTER + INTRA:         -10.950
REMARK INTER:                  -9.816
REMARK INTRA:                  -1.134
REMARK UNBOUND:                -1.130
REMARK  Name = 
REMARK  8 active torsions:
REMARK  status: ('A' for Active; 'I' for Inactive)
REMARK    1  A    between atoms: C_1  and  C_2
REMARK    2  A    between atoms: C_2  and  O_3
REMARK    3  A    between atoms: O_3  and  C_4
REMARK    4  A    between atoms: C_8  and  C_9
REMARK    5  A    between atoms: C_9  and  C_10
REMARK    6  A    between atoms: C_13  and  C_14
REMARK    7  A    between atoms: C_14  and  N_15
REMARK    8  A    between atoms: C_16  and  C_18
REMARK                            x       y       z     vdW  Elec       q    Type
REMARK                         _______ _______ _______ _____ _____    ______ ____
ROOT
ATOM      1  C   UNL     1      45.256   6.143  11.767  0.00  0.00    +0.000 A 
ATOM      2  C   UNL     1      46.125   5.324  12.496  0.00  0.00    +0.000 A 
ATOM      3  C   UNL     1      47.113   5.897  13.284  0.00  0.00    +0.000 A 
ATOM      4  C   UNL     1      47.238   7.283  13.304  0.00  0.00    +0.000 A 
ATOM      5  N   UNL     1      46.421   8.099  12.589  0.00  0.00    +0.000 NA
ATOM      6  C   UNL     1      45.450   7.516  11.850  0.00  0.00    +0.000 A 
ENDROOT
BRANCH   1   7
ATOM      7  C   UNL     1      44.113   5.566  10.979  0.00  0.00    +0.000 C 
BRANCH   7  12
ATOM      8  C   UNL     1      45.718   3.804   8.174  0.00  0.00    +0.000 A 
ATOM      9  C   UNL     1      45.423   2.466   8.367  0.00  0.00    +0.000 A 
ATOM     10  C   UNL     1      44.597   2.127   9.432  0.00  0.00    +0.000 A 
ATOM     11  C   UNL     1      44.138   3.128  10.282  0.00  0.00    +0.000 A 
ATOM     12  C   UNL     1      44.514   4.450  10.040  0.00  0.00    +0.000 A 
ATOM     13  N   UNL     1      45.292   4.795   8.987  0.00  0.00    +0.000 NA
BRANCH   8  14
ATOM     14  O   UNL     1      46.536   4.115   7.107  0.00  0.00    +0.000 OA
BRANCH  14  16
ATOM     15  C   UNL     1      47.267   2.707   5.319  0.00  0.00    +0.000 C 
ATOM     16  C   UNL     1      47.424   3.040   6.791  0.00  0.00    +0.000 C 
ENDBRANCH  14  16
ENDBRANCH   8  14
ENDBRANCH   7  12
ENDBRANCH   1   7
BRANCH   4  17
ATOM     17  C   UNL     1      48.275   7.937  14.181  0.00  0.00    +0.000 C 
BRANCH  17  18
ATOM     18  N   UNL     1      48.791   7.031  15.184  0.00  0.00    +0.000 N 
ATOM     19  C   UNL     1      48.765   7.327  16.521  0.00  0.00    +0.000 C 
ATOM     20  O   UNL     1      48.298   8.382  16.941  0.00  0.00    +0.000 OA
ATOM     21  H   UNL     1      49.382   6.277  14.841  0.00  0.00    +0.000 HD
BRANCH  19  22
ATOM     22  C   UNL     1      49.259   6.294  17.442  0.00  0.00    +0.000 A 
ATOM     23  C   UNL     1      48.382   5.722  18.355  0.00  0.00    +0.000 A 
ATOM     24  S   UNL     1      49.095   4.528  19.341  0.00  0.00    +0.000 S 
ATOM     25  C   UNL     1      50.617   4.759  18.609  0.00  0.00    +0.000 A 
ATOM     26  N   UNL     1      51.701   4.054  19.023  0.00  0.00    +0.000 NA
ATOM     27  C   UNL     1      52.797   4.344  18.400  0.00  0.00    +0.000 A 
ATOM     28  N   UNL     1      52.899   5.271  17.400  0.00  0.00    +0.000 N 
ATOM     29  C   UNL     1      51.816   5.967  16.911  0.00  0.00    +0.000 A 
ATOM     30  O   UNL     1      51.922   6.715  15.945  0.00  0.00    +0.000 OA
ATOM     31  C   UNL     1      50.569   5.706  17.603  0.00  0.00    +0.000 A 
ATOM     32  H   UNL     1      53.778   5.438  16.936  0.00  0.00    +0.000 HD
ENDBRANCH  19  22
ENDBRANCH  17  18
ENDBRANCH   4  17
TORSDOF 7
ENDMDL
MODEL 6
REMARK VINA RESULT:    -6.895      2.827      8.638
REMARK INTER + INTRA:         -10.847
REMARK INTER:                  -9.636
REMARK INTRA:                  -1.210
REMARK UNBOUND:                -1.130
REMARK  Name = 
REMARK  8 active torsions:
REMARK  status: ('A' for Active; 'I' for Inactive)
REMARK    1  A    between atoms: C_1  and  C_2
REMARK    2  A    between atoms: C_2  and  O_3
REMARK    3  A    between atoms: O_3  and  C_4
REMARK    4  A    between atoms: C_8  and  C_9
REMARK    5  A    between atoms: C_9  and  C_10
REMARK    6  A    between atoms: C_13  and  C_14
REMARK    7  A    between atoms: C_14  and  N_15
REMARK    8  A    between atoms: C_16  and  C_18
REMARK                            x       y       z     vdW  Elec       q    Type
REMARK                         _______ _______ _______ _____ _____    ______ ____
ROOT
ATOM      1  C   UNL     1      49.396   8.246  15.871  0.00  0.00    +0.000 A 
ATOM      2  C   UNL     1      48.316   9.041  15.474  0.00  0.00    +0.000 A 
ATOM      3  C   UNL     1      47.812   8.924  14.186  0.00  0.00    +0.000 A 
ATOM      4  C   UNL     1      48.419   8.035  13.304  0.00  0.00    +0.000 A 
ATOM      5  N   UNL     1      49.482   7.268  13.659  0.00  0.00    +0.000 NA
ATOM      6  C   UNL     1      49.937   7.382  14.927  0.00  0.00    +0.000 A 
ENDROOT
BRANCH   1   7
ATOM      7  C   UNL     1      49.909   8.272  17.285  0.00  0.00    +0.000 C 
BRANCH   7  12
ATOM      8  C   UNL     1      47.507   5.849  18.665  0.00  0.00    +0.000 A 
ATOM      9  C   UNL     1      47.490   6.090  20.028  0.00  0.00    +0.000 A 
ATOM     10  C   UNL     1      48.252   7.145  20.515  0.00  0.00    +0.000 A 
ATOM     11  C   UNL     1      49.029   7.887  19.630  0.00  0.00    +0.000 A 
ATOM     12  C   UNL     1      49.020   7.555  18.276  0.00  0.00    +0.000 A 
ATOM     13  N   UNL     1      48.257   6.549  17.786  0.00  0.00    +0.000 NA
BRANCH   8  14
ATOM     14  O   UNL     1      46.739   4.799  18.207  0.00  0.00    +0.000 OA
BRANCH  14  16
ATOM     15  C   UNL     1      47.873   2.869  17.367  0.00  0.00    +0.000 C 
ATOM     16  C   UNL     1      47.287   4.223  17.018  0.00  0.00    +0.000 C 
ENDBRANCH  14  16
ENDBRANCH   8  14
ENDBRANCH   7  12
ENDBRANCH   1   7
BRANCH   4  17
ATOM     17  C   UNL     1      47.870   7.855  11.911  0.00  0.00    +0.000 C 
BRANCH  17  18
ATOM     18  N   UNL     1      47.091   6.643  11.784  0.00  0.00    +0.000 N 
ATOM     19  C   UNL     1      45.727   6.632  11.912  0.00  0.00    +0.000 C 
ATOM     20  O   UNL     1      45.091   7.658  12.140  0.00  0.00    +0.000 OA
ATOM     21  H   UNL     1      47.613   5.771  11.831  0.00  0.00    +0.000 HD
BRANCH  19  22
ATOM     22  C   UNL     1      45.048   5.348  11.696  0.00  0.00    +0.000 A 
ATOM     23  C   UNL     1      44.321   4.779  12.734  0.00  0.00    +0.000 A 
ATOM     24  S   UNL     1      43.576   3.302  12.326  0.00  0.00    +0.000 S 
ATOM     25  C   UNL     1      44.231   3.346  10.754  0.00  0.00    +0.000 A 
ATOM     26  N   UNL     1      44.001   2.335   9.877  0.00  0.00    +0.000 NA
ATOM     27  C   UNL     1      44.576   2.483   8.727  0.00  0.00    +0.000 A 
ATOM     28  N   UNL     1      45.354   3.553   8.381  0.00  0.00    +0.000 N 
ATOM     29  C   UNL     1      45.567   4.625   9.218  0.00  0.00    +0.000 A 
ATOM     30  O   UNL     1      46.184   5.616   8.841  0.00  0.00    +0.000 OA
ATOM     31  C   UNL     1      44.975   4.490  10.535  0.00  0.00    +0.000 A 
ATOM     32  H   UNL     1      45.758   3.624   7.461  0.00  0.00    +0.000 HD
ENDBRANCH  19  22
ENDBRANCH  17  18
ENDBRANCH   4  17
TORSDOF 7
ENDMDL
MODEL 7
REMARK VINA RESULT:    -6.753      2.289      3.265
REMARK INTER + INTRA:         -10.646
REMARK INTER:                  -9.347
REMARK INTRA:                  -1.299
REMARK UNBOUND:                -1.130
REMARK  Name = 
REMARK  8 active torsions:
REMARK  status: ('A' for Active; 'I' for Inactive)
REMARK    1  A    between atoms: C_1  and  C_2
REMARK    2  A    between atoms: C_2  and  O_3
REMARK    3  A    between atoms: O_3  and  C_4
REMARK    4  A    between atoms: C_8  and  C_9
REMARK    5  A    between atoms: C_9  and  C_10
REMARK    6  A    between atoms: C_13  and  C_14
REMARK    7  A    between atoms: C_14  and  N_15
REMARK    8  A    between atoms: C_16  and  C_18
REMARK                            x       y       z     vdW  Elec       q    Type
REMARK                         _______ _______ _______ _____ _____    ______ ____
ROOT
ATOM      1  C   UNL     1      45.999   7.430  12.100  0.00  0.00    +0.000 A 
ATOM      2  C   UNL     1      47.176   6.716  11.854  0.00  0.00    +0.000 A 
ATOM      3  C   UNL     1      48.306   6.967  12.620  0.00  0.00    +0.000 A 
ATOM      4  C   UNL     1      48.250   7.953  13.600  0.00  0.00    +0.000 A 
ATOM      5  N   UNL     1      47.126   8.675  13.843  0.00  0.00    +0.000 NA
ATOM      6  C   UNL     1      46.031   8.393  13.101  0.00  0.00    +0.000 A 
ENDROOT
BRANCH   1   7
ATOM      7  C   UNL     1      44.727   7.122  11.360  0.00  0.00    +0.000 C 
BRANCH   7  12
ATOM      8  C   UNL     1      43.946   3.601  10.625  0.00  0.00    +0.000 A 
ATOM      9  C   UNL     1      43.512   3.066  11.826  0.00  0.00    +0.000 A 
ATOM     10  C   UNL     1      43.404   3.917  12.918  0.00  0.00    +0.000 A 
ATOM     11  C   UNL     1      43.771   5.252  12.779  0.00  0.00    +0.000 A 
ATOM     12  C   UNL     1      44.235   5.704  11.544  0.00  0.00    +0.000 A 
ATOM     13  N   UNL     1      44.315   4.890  10.464  0.00  0.00    +0.000 NA
BRANCH   8  14
ATOM     14  O   UNL     1      44.041   2.737   9.554  0.00  0.00    +0.000 OA
BRANCH  14  16
ATOM     15  C   UNL     1      45.908   1.806   8.387  0.00  0.00    +0.000 C 
ATOM     16  C   UNL     1      45.136   3.073   8.698  0.00  0.00    +0.000 C 
ENDBRANCH  14  16
ENDBRANCH   8  14
ENDBRANCH   7  12
ENDBRANCH   1   7
BRANCH   4  17
ATOM     17  C   UNL     1      49.449   8.221  14.475  0.00  0.00    +0.000 C 
BRANCH  17  18
ATOM     18  N   UNL     1      49.900   7.029  15.161  0.00  0.00    +0.000 N 
ATOM     19  C   UNL     1      49.452   6.690  16.410  0.00  0.00    +0.000 C 
ATOM     20  O   UNL     1      48.639   7.384  17.016  0.00  0.00    +0.000 OA
ATOM     21  H   UNL     1      50.731   6.584  14.779  0.00  0.00    +0.000 HD
BRANCH  19  22
ATOM     22  C   UNL     1      49.936   5.421  16.969  0.00  0.00    +0.000 A 
ATOM     23  C   UNL     1      49.018   4.439  17.320  0.00  0.00    +0.000 A 
ATOM     24  S   UNL     1      49.730   3.018  17.936  0.00  0.00    +0.000 S 
ATOM     25  C   UNL     1      51.294   3.678  17.794  0.00  0.00    +0.000 A 
ATOM     26  N   UNL     1      52.385   2.973  18.191  0.00  0.00    +0.000 NA
ATOM     27  C   UNL     1      53.508   3.601  18.051  0.00  0.00    +0.000 A 
ATOM     28  N   UNL     1      53.632   4.865  17.545  0.00  0.00    +0.000 N 
ATOM     29  C   UNL     1      52.560   5.594  17.079  0.00  0.00    +0.000 A 
ATOM     30  O   UNL     1      52.716   6.682  16.537  0.00  0.00    +0.000 OA
ATOM     31  C   UNL     1      51.272   4.949  17.250  0.00  0.00    +0.000 A 
ATOM     32  H   UNL     1      54.537   5.294  17.439  0.00  0.00    +0.000 HD
ENDBRANCH  19  22
ENDBRANCH  17  18
ENDBRANCH   4  17
TORSDOF 7
ENDMDL
MODEL 8
REMARK VINA RESULT:    -6.748      3.164      4.931
REMARK INTER + INTRA:         -10.640
REMARK INTER:                  -9.852
REMARK INTRA:                  -0.788
REMARK UNBOUND:                -1.130
REMARK  Name = 
REMARK  8 active torsions:
REMARK  status: ('A' for Active; 'I' for Inactive)
REMARK    1  A    between atoms: C_1  and  C_2
REMARK    2  A    between atoms: C_2  and  O_3
REMARK    3  A    between atoms: O_3  and  C_4
REMARK    4  A    between atoms: C_8  and  C_9
REMARK    5  A    between atoms: C_9  and  C_10
REMARK    6  A    between atoms: C_13  and  C_14
REMARK    7  A    between atoms: C_14  and  N_15
REMARK    8  A    between atoms: C_16  and  C_18
REMARK                            x       y       z     vdW  Elec       q    Type
REMARK                         _______ _______ _______ _____ _____    ______ ____
ROOT
ATOM      1  C   UNL     1      47.541   5.848  14.271  0.00  0.00    +0.000 A 
ATOM      2  C   UNL     1      46.942   4.584  14.310  0.00  0.00    +0.000 A 
ATOM      3  C   UNL     1      47.116   3.774  15.424  0.00  0.00    +0.000 A 
ATOM      4  C   UNL     1      47.915   4.229  16.468  0.00  0.00    +0.000 A 
ATOM      5  N   UNL     1      48.525   5.442  16.444  0.00  0.00    +0.000 NA
ATOM      6  C   UNL     1      48.318   6.222  15.359  0.00  0.00    +0.000 A 
ENDROOT
BRANCH   1   7
ATOM      7  C   UNL     1      47.298   6.794  13.127  0.00  0.00    +0.000 C 
BRANCH   7  12
ATOM      8  C   UNL     1      45.514   5.587  10.142  0.00  0.00    +0.000 A 
ATOM      9  C   UNL     1      44.192   5.463  10.534  0.00  0.00    +0.000 A 
ATOM     10  C   UNL     1      43.852   5.860  11.821  0.00  0.00    +0.000 A 
ATOM     11  C   UNL     1      44.849   6.322  12.675  0.00  0.00    +0.000 A 
ATOM     12  C   UNL     1      46.165   6.380  12.216  0.00  0.00    +0.000 A 
ATOM     13  N   UNL     1      46.502   6.025  10.953  0.00  0.00    +0.000 NA
BRANCH   8  14
ATOM     14  O   UNL     1      45.825   5.189   8.858  0.00  0.00    +0.000 OA
BRANCH  14  16
ATOM     15  C   UNL     1      45.791   3.359   7.321  0.00  0.00    +0.000 C 
ATOM     16  C   UNL     1      45.062   4.048   8.459  0.00  0.00    +0.000 C 
ENDBRANCH  14  16
ENDBRANCH   8  14
ENDBRANCH   7  12
ENDBRANCH   1   7
BRANCH   4  17
ATOM     17  C   UNL     1      48.091   3.389  17.709  0.00  0.00    +0.000 C 
BRANCH  17  18
ATOM     18  N   UNL     1      49.482   3.094  17.974  0.00  0.00    +0.000 N 
ATOM     19  C   UNL     1      50.213   2.242  17.187  0.00  0.00    +0.000 C 
ATOM     20  O   UNL     1      49.721   1.683  16.210  0.00  0.00    +0.000 OA
ATOM     21  H   UNL     1      49.826   3.358  18.894  0.00  0.00    +0.000 HD
BRANCH  19  22
ATOM     22  C   UNL     1      51.633   2.078  17.524  0.00  0.00    +0.000 A 
ATOM     23  C   UNL     1      52.154   0.798  17.667  0.00  0.00    +0.000 A 
ATOM     24  S   UNL     1      53.818   0.769  18.039  0.00  0.00    +0.000 S 
ATOM     25  C   UNL     1      53.895   2.471  18.062  0.00  0.00    +0.000 A 
ATOM     26  N   UNL     1      55.057   3.110  18.357  0.00  0.00    +0.000 NA
ATOM     27  C   UNL     1      54.970   4.401  18.363  0.00  0.00    +0.000 A 
ATOM     28  N   UNL     1      53.828   5.104  18.094  0.00  0.00    +0.000 N 
ATOM     29  C   UNL     1      52.644   4.499  17.736  0.00  0.00    +0.000 A 
ATOM     30  O   UNL     1      51.667   5.159  17.402  0.00  0.00    +0.000 OA
ATOM     31  C   UNL     1      52.678   3.049  17.753  0.00  0.00    +0.000 A 
ATOM     32  H   UNL     1      53.829   6.111  18.093  0.00  0.00    +0.000 HD
ENDBRANCH  19  22
ENDBRANCH  17  18
ENDBRANCH   4  17
TORSDOF 7
ENDMDL
MODEL 9
REMARK VINA RESULT:    -6.723      2.252      2.587
REMARK INTER + INTRA:         -10.605
REMARK INTER:                  -9.896
REMARK INTRA:                  -0.709
REMARK UNBOUND:                -1.130
REMARK  Name = 
REMARK  8 active torsions:
REMARK  status: ('A' for Active; 'I' for Inactive)
REMARK    1  A    between atoms: C_1  and  C_2
REMARK    2  A    between atoms: C_2  and  O_3
REMARK    3  A    between atoms: O_3  and  C_4
REMARK    4  A    between atoms: C_8  and  C_9
REMARK    5  A    between atoms: C_9  and  C_10
REMARK    6  A    between atoms: C_13  and  C_14
REMARK    7  A    between atoms: C_14  and  N_15
REMARK    8  A    between atoms: C_16  and  C_18
REMARK                            x       y       z     vdW  Elec       q    Type
REMARK                         _______ _______ _______ _____ _____    ______ ____
ROOT
ATOM      1  C   UNL     1      45.585   4.146  12.638  0.00  0.00    +0.000 A 
ATOM      2  C   UNL     1      46.512   3.610  13.538  0.00  0.00    +0.000 A 
ATOM      3  C   UNL     1      47.332   4.459  14.269  0.00  0.00    +0.000 A 
ATOM      4  C   UNL     1      47.233   5.831  14.063  0.00  0.00    +0.000 A 
ATOM      5  N   UNL     1      46.356   6.375  13.180  0.00  0.00    +0.000 NA
ATOM      6  C   UNL     1      45.552   5.527  12.500  0.00  0.00    +0.000 A 
ENDROOT
BRANCH   1   7
ATOM      7  C   UNL     1      44.614   3.267  11.899  0.00  0.00    +0.000 C 
BRANCH   7  12
ATOM      8  C   UNL     1      45.758   2.104   8.600  0.00  0.00    +0.000 A 
ATOM      9  C   UNL     1      45.172   2.964   7.688  0.00  0.00    +0.000 A 
ATOM     10  C   UNL     1      44.418   4.023   8.179  0.00  0.00    +0.000 A 
ATOM     11  C   UNL     1      44.246   4.154   9.554  0.00  0.00    +0.000 A 
ATOM     12  C   UNL     1      44.838   3.221  10.405  0.00  0.00    +0.000 A 
ATOM     13  N   UNL     1      45.600   2.204   9.938  0.00  0.00    +0.000 NA
BRANCH   8  14
ATOM     14  O   UNL     1      46.504   1.063   8.087  0.00  0.00    +0.000 OA
BRANCH  14  16
ATOM     15  C   UNL     1      48.238   1.997   6.732  0.00  0.00    +0.000 C 
ATOM     16  C   UNL     1      46.887   1.306   6.731  0.00  0.00    +0.000 C 
ENDBRANCH  14  16
ENDBRANCH   8  14
ENDBRANCH   7  12
ENDBRANCH   1   7
BRANCH   4  17
ATOM     17  C   UNL     1      48.082   6.781  14.871  0.00  0.00    +0.000 C 
BRANCH  17  18
ATOM     18  N   UNL     1      49.215   6.118  15.477  0.00  0.00    +0.000 N 
ATOM     19  C   UNL     1      49.250   5.798  16.809  0.00  0.00    +0.000 C 
ATOM     20  O   UNL     1      48.314   6.057  17.561  0.00  0.00    +0.000 OA
ATOM     21  H   UNL     1      50.073   6.111  14.930  0.00  0.00    +0.000 HD
BRANCH  19  22
ATOM     22  C   UNL     1      50.430   5.066  17.288  0.00  0.00    +0.000 A 
ATOM     23  C   UNL     1      51.505   5.775  17.808  0.00  0.00    +0.000 A 
ATOM     24  S   UNL     1      52.790   4.789  18.339  0.00  0.00    +0.000 S 
ATOM     25  C   UNL     1      51.973   3.375  17.854  0.00  0.00    +0.000 A 
ATOM     26  N   UNL     1      52.550   2.154  18.000  0.00  0.00    +0.000 NA
ATOM     27  C   UNL     1      51.831   1.168  17.569  0.00  0.00    +0.000 A 
ATOM     28  N   UNL     1      50.589   1.298  17.014  0.00  0.00    +0.000 N 
ATOM     29  C   UNL     1      49.943   2.509  16.898  0.00  0.00    +0.000 A 
ATOM     30  O   UNL     1      48.789   2.580  16.490  0.00  0.00    +0.000 OA
ATOM     31  C   UNL     1      50.723   3.652  17.331  0.00  0.00    +0.000 A 
ATOM     32  H   UNL     1      50.067   0.488  16.717  0.00  0.00    +0.000 HD
ENDBRANCH  19  22
ENDBRANCH  17  18
ENDBRANCH   4  17
TORSDOF 7
ENDMDL
