MODEL 1
REMARK VINA RESULT:    -6.985      0.000      0.000
REMARK INTER + INTRA:         -11.985
REMARK INTER:                 -10.660
REMARK INTRA:                  -1.325
REMARK UNBOUND:                -1.325
REMARK  Name = 
REMARK  10 active torsions:
REMARK  status: ('A' for Active; 'I' for Inactive)
REMARK    1  A    between atoms: C_1  and  C_2
REMARK    2  A    between atoms: C_2  and  C_3
REMARK    3  A    between atoms: C_3  and  N_4
REMARK    4  A    between atoms: C_3  and  C_20
REMARK    5  A    between atoms: N_4  and  C_5
REMARK    6  A    between atoms: C_5  and  C_6
REMARK    7  A    between atoms: C_9  and  C_10
REMARK    8  A    between atoms: C_10  and  N_11
REMARK    9  A    between atoms: N_11  and  C_12
REMARK   10  A    between atoms: C_12  and  C_13
REMARK                            x       y       z     vdW  Elec       q    Type
REMARK                         _______ _______ _______ _____ _____    ______ ____
ROOT
ATOM      1  C   UNL     1      48.611   6.812  14.730  0.00  0.00    +0.000 C 
ENDROOT
BRANCH   1   2
ATOM      2  C   UNL     1      47.428   6.095  14.135  0.00  0.00    +0.000 A 
ATOM      3  C   UNL     1      46.592   6.681  13.204  0.00  0.00    +0.000 A 
ATOM      4  N   UNL     1      45.505   6.080  12.669  0.00  0.00    +0.000 NA
ATOM      5  C   UNL     1      45.247   4.825  13.096  0.00  0.00    +0.000 A 
ATOM      6  N   UNL     1      46.015   4.148  13.974  0.00  0.00    +0.000 NA
ATOM      7  C   UNL     1      47.086   4.801  14.468  0.00  0.00    +0.000 A 
BRANCH   5   8
ATOM      8  C   UNL     1      44.036   4.103  12.515  0.00  0.00    +0.000 C 
BRANCH   8   9
ATOM      9  N   UNL     1      44.334   2.876  11.742  0.00  0.00    +0.000 NA
ATOM     10  H   UNL     1      43.436   2.528  11.407  0.00  0.00    +0.000 HD
BRANCH   9  11
ATOM     11  C   UNL     1      45.205   3.140  10.585  0.00  0.00    +0.000 C 
BRANCH  11  12
ATOM     12  C   UNL     1      44.621   2.549   9.270  0.00  0.00    +0.000 C 
ATOM     13  C   UNL     1      44.765   3.433   8.034  0.00  0.00    +0.000 C 
ATOM     14  C   UNL     1      46.117   3.070   7.449  0.00  0.00    +0.000 C 
ATOM     15  C   UNL     1      46.421   1.683   7.992  0.00  0.00    +0.000 C 
ATOM     16  N   UNL     1      45.289   1.310   8.839  0.00  0.00    +0.000 NA
ATOM     17  H   UNL     1      45.593   0.750   9.632  0.00  0.00    +0.000 HD
ENDBRANCH  11  12
ENDBRANCH   9  11
ENDBRANCH   8   9
ENDBRANCH   5   8
ENDBRANCH   1   2
BRANCH   1  18
ATOM     18  N   UNL     1      48.310   7.271  16.090  0.00  0.00    +0.000 NA
ATOM     19  H   UNL     1      47.718   6.570  16.540  0.00  0.00    +0.000 HD
BRANCH  18  20
ATOM     20  C   UNL     1      49.486   7.533  16.960  0.00  0.00    +0.000 C 
BRANCH  20  21
ATOM     21  C   UNL     1      49.854   6.181  17.549  0.00  0.00    +0.000 A 
ATOM     22  C   UNL     1      51.160   5.777  17.794  0.00  0.00    +0.000 A 
ATOM     23  S   UNL     1      51.314   4.079  17.601  0.00  0.00    +0.000 S 
ATOM     24  C   UNL     1      49.621   3.883  17.581  0.00  0.00    +0.000 A 
ATOM     25  N   UNL     1      49.044   2.672  17.364  0.00  0.00    +0.000 NA
ATOM     26  C   UNL     1      47.773   2.666  17.572  0.00  0.00    +0.000 A 
ATOM     27  N   UNL     1      47.029   3.731  18.010  0.00  0.00    +0.000 N 
ATOM     28  C   UNL     1      47.565   5.002  18.184  0.00  0.00    +0.000 A 
ATOM     29  O   UNL     1      46.899   5.905  18.665  0.00  0.00    +0.000 OA
ATOM     30  C   UNL     1      48.978   5.080  17.852  0.00  0.00    +0.000 A 
ATOM     31  H   UNL     1      46.075   3.616  18.299  0.00  0.00    +0.000 HD
ENDBRANCH  20  21
BRANCH  20  33
ATOM     32  C   UNL     1      47.885   9.373  17.852  0.00  0.00    +0.000 C 
ATOM     33  C   UNL     1      49.201   8.624  17.991  0.00  0.00    +0.000 C 
ENDBRANCH  20  33
ENDBRANCH  18  20
ENDBRANCH   1  18
TORSDOF 9
ENDMDL
MODEL 2
REMARK VINA RESULT:    -6.834      2.104      2.837
REMARK INTER + INTRA:         -11.755
REMARK INTER:                 -10.552
REMARK INTRA:                  -1.203
REMARK UNBOUND:                -1.325
REMARK  Name = 
REMARK  10 active torsions:
REMARK  status: ('A' for Active; 'I' for Inactive)
REMARK    1  A    between atoms: C_1  and  C_2
REMARK    2  A    between atoms: C_2  and  C_3
REMARK    3  A    between atoms: C_3  and  N_4
REMARK    4  A    between atoms: C_3  and  C_20
REMARK    5  A    between atoms: N_4  and  C_5
REMARK    6  A    between atoms: C_5  and  C_6
REMARK    7  A    between atoms: C_9  and  C_10
REMARK    8  A    between atoms: C_10  and  N_11
REMARK    9  A    between atoms: N_11  and  C_12
REMARK   10  A    between atoms: C_12  and  C_13
REMARK                            x       y       z     vdW  Elec       q    Type
REMARK                         _______ _______ _______ _____ _____    ______ ____
ROOT
ATOM      1  C   UNL     1      47.521   7.159  13.634  0.00  0.00    +0.000 C 
ENDROOT
BRANCH   1   2
ATOM      2  C   UNL     1      46.580   6.389  12.745  0.00  0.00    +0.000 A 
ATOM      3  C   UNL     1      45.728   5.414  13.227  0.00  0.00    +0.000 A 
ATOM      4  N   UNL     1      44.892   4.682  12.457  0.00  0.00    +0.000 NA
ATOM      5  C   UNL     1      44.917   4.946  11.132  0.00  0.00    +0.000 A 
ATOM      6  N   UNL     1      45.683   5.897  10.561  0.00  0.00    +0.000 NA
ATOM      7  C   UNL     1      46.493   6.595  11.385  0.00  0.00    +0.000 A 
BRANCH   5   8
ATOM      8  C   UNL     1      43.986   4.152  10.223  0.00  0.00    +0.000 C 
BRANCH   8   9
ATOM      9  N   UNL     1      44.137   4.407   8.773  0.00  0.00    +0.000 NA
ATOM     10  H   UNL     1      44.802   5.176   8.689  0.00  0.00    +0.000 HD
BRANCH   9  11
ATOM     11  C   UNL     1      44.665   3.238   8.050  0.00  0.00    +0.000 C 
BRANCH  11  12
ATOM     12  C   UNL     1      46.220   3.244   7.992  0.00  0.00    +0.000 C 
ATOM     13  C   UNL     1      46.868   1.905   7.652  0.00  0.00    +0.000 C 
ATOM     14  C   UNL     1      46.936   1.878   6.136  0.00  0.00    +0.000 C 
ATOM     15  C   UNL     1      46.868   3.336   5.713  0.00  0.00    +0.000 C 
ATOM     16  N   UNL     1      46.762   4.122   6.942  0.00  0.00    +0.000 NA
ATOM     17  H   UNL     1      46.181   4.945   6.802  0.00  0.00    +0.000 HD
ENDBRANCH  11  12
ENDBRANCH   9  11
ENDBRANCH   8   9
ENDBRANCH   5   8
ENDBRANCH   1   2
BRANCH   1  18
ATOM     18  N   UNL     1      48.690   6.347  13.984  0.00  0.00    +0.000 NA
ATOM     19  H   UNL     1      49.180   6.105  13.120  0.00  0.00    +0.000 HD
BRANCH  18  20
ATOM     20  C   UNL     1      49.657   6.973  14.922  0.00  0.00    +0.000 C 
BRANCH  20  21
ATOM     21  C   UNL     1      48.963   6.962  16.274  0.00  0.00    +0.000 A 
ATOM     22  C   UNL     1      48.673   8.109  17.001  0.00  0.00    +0.000 A 
ATOM     23  S   UNL     1      48.736   7.790  18.685  0.00  0.00    +0.000 S 
ATOM     24  C   UNL     1      48.760   6.108  18.410  0.00  0.00    +0.000 A 
ATOM     25  N   UNL     1      48.890   5.219  19.430  0.00  0.00    +0.000 NA
ATOM     26  C   UNL     1      48.697   3.997  19.071  0.00  0.00    +0.000 A 
ATOM     27  N   UNL     1      48.348   3.579  17.813  0.00  0.00    +0.000 N 
ATOM     28  C   UNL     1      48.265   4.444  16.728  0.00  0.00    +0.000 A 
ATOM     29  O   UNL     1      47.861   4.057  15.644  0.00  0.00    +0.000 OA
ATOM     30  C   UNL     1      48.587   5.821  17.066  0.00  0.00    +0.000 A 
ATOM     31  H   UNL     1      48.061   2.632  17.640  0.00  0.00    +0.000 HD
ENDBRANCH  20  21
BRANCH  20  33
ATOM     32  C   UNL     1      51.536   8.479  13.950  0.00  0.00    +0.000 C 
ATOM     33  C   UNL     1      50.103   8.354  14.442  0.00  0.00    +0.000 C 
ENDBRANCH  20  33
ENDBRANCH  18  20
ENDBRANCH   1  18
TORSDOF 9
ENDMDL
MODEL 3
REMARK VINA RESULT:    -6.585      1.753      2.413
REMARK INTER + INTRA:         -11.375
REMARK INTER:                 -10.536
REMARK INTRA:                  -0.839
REMARK UNBOUND:                -1.325
REMARK  Name = 
REMARK  10 active torsions:
REMARK  status: ('A' for Active; 'I' for Inactive)
REMARK    1  A    between atoms: C_1  and  C_2
REMARK    2  A    between atoms: C_2  and  C_3
REMARK    3  A    between atoms: C_3  and  N_4
REMARK    4  A    between atoms: C_3  and  C_20
REMARK    5  A    between atoms: N_4  and  C_5
REMARK    6  A    between atoms: C_5  and  C_6
REMARK    7  A    between atoms: C_9  and  C_10
REMARK    8  A    between atoms: C_10  and  N_11
REMARK    9  A    between atoms: N_11  and  C_12
REMARK   10  A    between atoms: C_12  and  C_13
REMARK                            x       y       z     vdW  Elec       q    Type
REMARK                         _______ _______ _______ _____ _____    ______ ____
ROOT
ATOM      1  C   UNL     1      48.154   7.020  13.998  0.00  0.00    +0.000 C 
ENDROOT
BRANCH   1   2
ATOM      2  C   UNL     1      46.964   6.159  13.667  0.00  0.00    +0.000 A 
ATOM      3  C   UNL     1      46.887   4.825  14.018  0.00  0.00    +0.000 A 
ATOM      4  N   UNL     1      45.849   4.014  13.713  0.00  0.00    +0.000 NA
ATOM      5  C   UNL     1      44.837   4.577  13.019  0.00  0.00    +0.000 A 
ATOM      6  N   UNL     1      44.793   5.874  12.655  0.00  0.00    +0.000 NA
ATOM      7  C   UNL     1      45.858   6.631  12.992  0.00  0.00    +0.000 A 
BRANCH   5   8
ATOM      8  C   UNL     1      43.640   3.704  12.659  0.00  0.00    +0.000 C 
BRANCH   8   9
ATOM      9  N   UNL     1      43.890   2.669  11.630  0.00  0.00    +0.000 NA
ATOM     10  H   UNL     1      42.984   2.466  11.207  0.00  0.00    +0.000 HD
BRANCH   9  11
ATOM     11  C   UNL     1      44.814   3.132  10.582  0.00  0.00    +0.000 C 
BRANCH  11  12
ATOM     12  C   UNL     1      44.404   2.613   9.174  0.00  0.00    +0.000 C 
ATOM     13  C   UNL     1      44.866   3.469   7.999  0.00  0.00    +0.000 C 
ATOM     14  C   UNL     1      46.248   2.944   7.653  0.00  0.00    +0.000 C 
ATOM     15  C   UNL     1      46.284   1.532   8.214  0.00  0.00    +0.000 C 
ATOM     16  N   UNL     1      44.984   1.301   8.843  0.00  0.00    +0.000 NA
ATOM     17  H   UNL     1      45.075   0.710   9.667  0.00  0.00    +0.000 HD
ENDBRANCH  11  12
ENDBRANCH   9  11
ENDBRANCH   8   9
ENDBRANCH   5   8
ENDBRANCH   1   2
BRANCH   1  18
ATOM     18  N   UNL     1      48.090   7.484  15.388  0.00  0.00    +0.000 NA
ATOM     19  H   UNL     1      47.166   7.254  15.759  0.00  0.00    +0.000 HD
BRANCH  18  20
ATOM     20  C   UNL     1      49.123   6.934  16.302  0.00  0.00    +0.000 C 
BRANCH  20  21
ATOM     21  C   UNL     1      48.503   7.001  17.689  0.00  0.00    +0.000 A 
ATOM     22  C   UNL     1      48.097   8.182  18.295  0.00  0.00    +0.000 A 
ATOM     23  S   UNL     1      48.284   8.083  19.998  0.00  0.00    +0.000 S 
ATOM     24  C   UNL     1      48.520   6.397  19.918  0.00  0.00    +0.000 A 
ATOM     25  N   UNL     1      48.818   5.664  21.023  0.00  0.00    +0.000 NA
ATOM     26  C   UNL     1      48.774   4.392  20.821  0.00  0.00    +0.000 A 
ATOM     27  N   UNL     1      48.424   3.781  19.644  0.00  0.00    +0.000 N 
ATOM     28  C   UNL     1      48.173   4.489  18.474  0.00  0.00    +0.000 A 
ATOM     29  O   UNL     1      47.773   3.923  17.470  0.00  0.00    +0.000 OA
ATOM     30  C   UNL     1      48.323   5.927  18.630  0.00  0.00    +0.000 A 
ATOM     31  H   UNL     1      48.260   2.792  19.600  0.00  0.00    +0.000 HD
ENDBRANCH  20  21
BRANCH  20  33
ATOM     32  C   UNL     1      51.714   6.809  16.172  0.00  0.00    +0.000 C 
ATOM     33  C   UNL     1      50.458   7.665  16.162  0.00  0.00    +0.000 C 
ENDBRANCH  20  33
ENDBRANCH  18  20
ENDBRANCH   1  18
TORSDOF 9
ENDMDL
MODEL 4
REMARK VINA RESULT:    -6.569      1.182      1.562
REMARK INTER + INTRA:         -11.351
REMARK INTER:                 -10.222
REMARK INTRA:                  -1.129
REMARK UNBOUND:                -1.325
REMARK  Name = 
REMARK  10 active torsions:
REMARK  status: ('A' for Active; 'I' for Inactive)
REMARK    1  A    between atoms: C_1  and  C_2
REMARK    2  A    between atoms: C_2  and  C_3
REMARK    3  A    between atoms: C_3  and  N_4
REMARK    4  A    between atoms: C_3  and  C_20
REMARK    5  A    between atoms: N_4  and  C_5
REMARK    6  A    between atoms: C_5  and  C_6
REMARK    7  A    between atoms: C_9  and  C_10
REMARK    8  A    between atoms: C_10  and  N_11
REMARK    9  A    between atoms: N_11  and  C_12
REMARK   10  A    between atoms: C_12  and  C_13
REMARK                            x       y       z     vdW  Elec       q    Type
REMARK                         _______ _______ _______ _____ _____    ______ ____
ROOT
ATOM      1  C   UNL     1      49.143   7.479  15.336  0.00  0.00    +0.000 C 
ENDROOT
BRANCH   1   2
ATOM      2  C   UNL     1      48.244   7.086  14.193  0.00  0.00    +0.000 A 
ATOM      3  C   UNL     1      47.460   5.949  14.219  0.00  0.00    +0.000 A 
ATOM      4  N   UNL     1      46.663   5.549  13.202  0.00  0.00    +0.000 NA
ATOM      5  C   UNL     1      46.659   6.335  12.103  0.00  0.00    +0.000 A 
ATOM      6  N   UNL     1      47.358   7.481  11.986  0.00  0.00    +0.000 NA
ATOM      7  C   UNL     1      48.131   7.827  13.036  0.00  0.00    +0.000 A 
BRANCH   5   8
ATOM      8  C   UNL     1      45.770   5.929  10.933  0.00  0.00    +0.000 C 
BRANCH   8   9
ATOM      9  N   UNL     1      44.730   4.920  11.240  0.00  0.00    +0.000 NA
ATOM     10  H   UNL     1      43.910   5.185  10.695  0.00  0.00    +0.000 HD
BRANCH   9  11
ATOM     11  C   UNL     1      45.140   3.559  10.856  0.00  0.00    +0.000 C 
BRANCH  11  12
ATOM     12  C   UNL     1      44.395   3.065   9.582  0.00  0.00    +0.000 C 
ATOM     13  C   UNL     1      44.786   3.764   8.283  0.00  0.00    +0.000 C 
ATOM     14  C   UNL     1      45.964   2.969   7.751  0.00  0.00    +0.000 C 
ATOM     15  C   UNL     1      45.845   1.603   8.406  0.00  0.00    +0.000 C 
ATOM     16  N   UNL     1      44.661   1.653   9.261  0.00  0.00    +0.000 NA
ATOM     17  H   UNL     1      44.790   1.093  10.101  0.00  0.00    +0.000 HD
ENDBRANCH  11  12
ENDBRANCH   9  11
ENDBRANCH   8   9
ENDBRANCH   5   8
ENDBRANCH   1   2
BRANCH   1  18
ATOM     18  N   UNL     1      48.526   7.144  16.623  0.00  0.00    +0.000 NA
ATOM     19  H   UNL     1      48.105   6.216  16.542  0.00  0.00    +0.000 HD
BRANCH  18  20
ATOM     20  C   UNL     1      49.433   7.156  17.799  0.00  0.00    +0.000 C 
BRANCH  20  21
ATOM     21  C   UNL     1      49.784   5.698  18.047  0.00  0.00    +0.000 A 
ATOM     22  C   UNL     1      51.006   5.274  18.551  0.00  0.00    +0.000 A 
ATOM     23  S   UNL     1      51.417   3.732  17.922  0.00  0.00    +0.000 S 
ATOM     24  C   UNL     1      49.836   3.504  17.328  0.00  0.00    +0.000 A 
ATOM     25  N   UNL     1      49.498   2.408  16.598  0.00  0.00    +0.000 NA
ATOM     26  C   UNL     1      48.230   2.301  16.395  0.00  0.00    +0.000 A 
ATOM     27  N   UNL     1      47.268   3.149  16.878  0.00  0.00    +0.000 N 
ATOM     28  C   UNL     1      47.572   4.314  17.573  0.00  0.00    +0.000 A 
ATOM     29  O   UNL     1      46.692   4.998  18.070  0.00  0.00    +0.000 OA
ATOM     30  C   UNL     1      49.000   4.534  17.728  0.00  0.00    +0.000 A 
ATOM     31  H   UNL     1      46.292   2.921  16.813  0.00  0.00    +0.000 HD
ENDBRANCH  20  21
BRANCH  20  33
ATOM     32  C   UNL     1      47.365   8.331  18.843  0.00  0.00    +0.000 C 
ATOM     33  C   UNL     1      48.808   7.876  18.994  0.00  0.00    +0.000 C 
ENDBRANCH  20  33
ENDBRANCH  18  20
ENDBRANCH   1  18
TORSDOF 9
ENDMDL
MODEL 5
REMARK VINA RESULT:    -6.460      2.563      3.669
REMARK INTER + INTRA:         -11.184
REMARK INTER:                 -10.108
REMARK INTRA:                  -1.076
REMARK UNBOUND:                -1.325
REMARK  Name = 
REMARK  10 active torsions:
REMARK  status: ('A' for Active; 'I' for Inactive)
REMARK    1  A    between atoms: C_1  and  C_2
REMARK    2  A    between atoms: C_2  and  C_3
REMARK    3  A    between atoms: C_3  and  N_4
REMARK    4  A    between atoms: C_3  and  C_20
REMARK    5  A    between atoms: N_4  and  C_5
REMARK    6  A    between atoms: C_5  and  C_6
REMARK    7  A    between atoms: C_9  and  C_10
REMARK    8  A    between atoms: C_10  and  N_11
REMARK    9  A    between atoms: N_11  and  C_12
REMARK   10  A    between atoms: C_12  and  C_13
REMARK                            x       y       z     vdW  Elec       q    Type
REMARK                         _______ _______ _______ _____ _____    ______ ____
ROOT
ATOM      1  C   UNL     1      49.060   5.229  17.913  0.00  0.00    +0.000 C 
ENDROOT
BRANCH   1   2
ATOM      2  C   UNL     1      48.351   5.210  16.584  0.00  0.00    +0.000 A 
ATOM      3  C   UNL     1      47.405   4.258  16.257  0.00  0.00    +0.000 A 
ATOM      4  N   UNL     1      46.769   4.193  15.065  0.00  0.00    +0.000 NA
ATOM      5  C   UNL     1      47.105   5.135  14.158  0.00  0.00    +0.000 A 
ATOM      6  N   UNL     1      47.988   6.128  14.384  0.00  0.00    +0.000 NA
ATOM      7  C   UNL     1      48.586   6.140  15.593  0.00  0.00    +0.000 A 
BRANCH   5   8
ATOM      8  C   UNL     1      46.409   5.107  12.801  0.00  0.00    +0.000 C 
BRANCH   8   9
ATOM      9  N   UNL     1      44.992   4.678  12.819  0.00  0.00    +0.000 NA
ATOM     10  H   UNL     1      44.488   5.341  12.230  0.00  0.00    +0.000 HD
BRANCH   9  11
ATOM     11  C   UNL     1      44.810   3.322  12.275  0.00  0.00    +0.000 C 
BRANCH  11  12
ATOM     12  C   UNL     1      43.778   3.296  11.111  0.00  0.00    +0.000 C 
ATOM     13  C   UNL     1      43.789   4.519  10.198  0.00  0.00    +0.000 C 
ATOM     14  C   UNL     1      44.816   4.198   9.128  0.00  0.00    +0.000 C 
ATOM     15  C   UNL     1      44.924   2.682   9.127  0.00  0.00    +0.000 C 
ATOM     16  N   UNL     1      44.003   2.199  10.155  0.00  0.00    +0.000 NA
ATOM     17  H   UNL     1      44.368   1.368  10.614  0.00  0.00    +0.000 HD
ENDBRANCH  11  12
ENDBRANCH   9  11
ENDBRANCH   8   9
ENDBRANCH   5   8
ENDBRANCH   1   2
BRANCH   1  18
ATOM     18  N   UNL     1      50.267   6.058  17.847  0.00  0.00    +0.000 NA
ATOM     19  H   UNL     1      50.498   6.361  18.795  0.00  0.00    +0.000 HD
BRANCH  18  20
ATOM     20  C   UNL     1      51.464   5.413  17.248  0.00  0.00    +0.000 C 
BRANCH  20  21
ATOM     21  C   UNL     1      51.927   4.397  18.280  0.00  0.00    +0.000 A 
ATOM     22  C   UNL     1      52.431   4.739  19.527  0.00  0.00    +0.000 A 
ATOM     23  S   UNL     1      53.597   3.592  20.043  0.00  0.00    +0.000 S 
ATOM     24  C   UNL     1      53.132   2.502  18.819  0.00  0.00    +0.000 A 
ATOM     25  N   UNL     1      53.782   1.324  18.626  0.00  0.00    +0.000 NA
ATOM     26  C   UNL     1      53.187   0.541  17.794  0.00  0.00    +0.000 A 
ATOM     27  N   UNL     1      51.993   0.797  17.170  0.00  0.00    +0.000 N 
ATOM     28  C   UNL     1      51.326   2.011  17.289  0.00  0.00    +0.000 A 
ATOM     29  O   UNL     1      50.221   2.172  16.798  0.00  0.00    +0.000 OA
ATOM     30  C   UNL     1      52.023   2.968  18.133  0.00  0.00    +0.000 A 
ATOM     31  H   UNL     1      51.510   0.082  16.657  0.00  0.00    +0.000 HD
ENDBRANCH  20  21
BRANCH  20  33
ATOM     32  C   UNL     1      53.837   5.894  16.310  0.00  0.00    +0.000 C 
ATOM     33  C   UNL     1      52.521   6.439  16.842  0.00  0.00    +0.000 C 
ENDBRANCH  20  33
ENDBRANCH  18  20
ENDBRANCH   1  18
TORSDOF 9
ENDMDL
MODEL 6
REMARK VINA RESULT:    -6.266      1.876      2.508
REMARK INTER + INTRA:         -10.887
REMARK INTER:                  -9.542
REMARK INTRA:                  -1.345
REMARK UNBOUND:                -1.325
REMARK  Name = 
REMARK  10 active torsions:
REMARK  status: ('A' for Active; 'I' for Inactive)
REMARK    1  A    between atoms: C_1  and  C_2
REMARK    2  A    between atoms: C_2  and  C_3
REMARK    3  A    between atoms: C_3  and  N_4
REMARK    4  A    between atoms: C_3  and  C_20
REMARK    5  A    between atoms: N_4  and  C_5
REMARK    6  A    between atoms: C_5  and  C_6
REMARK    7  A    between atoms: C_9  and  C_10
REMARK    8  A    between atoms: C_10  and  N_11
REMARK    9  A    between atoms: N_11  and  C_12
REMARK   10  A    between atoms: C_12  and  C_13
REMARK                            x       y       z     vdW  Elec       q    Type
REMARK                         _______ _______ _______ _____ _____    ______ ____
ROOT
ATOM      1  C   UNL     1      49.624   8.742  14.017  0.00  0.00    +0.000 C 
ENDROOT
BRANCH   1   2
ATOM      2  C   UNL     1      48.404   8.209  13.313  0.00  0.00    +0.000 A 
ATOM      3  C   UNL     1      47.118   8.487  13.736  0.00  0.00    +0.000 A 
ATOM      4  N   UNL     1      46.001   8.004  13.147  0.00  0.00    +0.000 NA
ATOM      5  C   UNL     1      46.190   7.199  12.080  0.00  0.00    +0.000 A 
ATOM      6  N   UNL     1      47.396   6.891  11.564  0.00  0.00    +0.000 NA
ATOM      7  C   UNL     1      48.472   7.407  12.194  0.00  0.00    +0.000 A 
BRANCH   5   8
ATOM      8  C   UNL     1      44.959   6.636  11.377  0.00  0.00    +0.000 C 
BRANCH   8   9
ATOM      9  N   UNL     1      45.230   5.783  10.198  0.00  0.00    +0.000 NA
ATOM     10  H   UNL     1      46.198   5.963   9.935  0.00  0.00    +0.000 HD
BRANCH   9  11
ATOM     11  C   UNL     1      45.075   4.349  10.497  0.00  0.00    +0.000 C 
BRANCH  11  12
ATOM     12  C   UNL     1      44.363   3.589   9.341  0.00  0.00    +0.000 C 
ATOM     13  C   UNL     1      44.932   3.836   7.946  0.00  0.00    +0.000 C 
ATOM     14  C   UNL     1      46.031   2.802   7.784  0.00  0.00    +0.000 C 
ATOM     15  C   UNL     1      45.689   1.704   8.778  0.00  0.00    +0.000 C 
ATOM     16  N   UNL     1      44.464   2.124   9.457  0.00  0.00    +0.000 NA
ATOM     17  H   UNL     1      44.460   1.822  10.428  0.00  0.00    +0.000 HD
ENDBRANCH  11  12
ENDBRANCH   9  11
ENDBRANCH   8   9
ENDBRANCH   5   8
ENDBRANCH   1   2
BRANCH   1  18
ATOM     18  N   UNL     1      49.579   8.427  15.448  0.00  0.00    +0.000 NA
ATOM     19  H   UNL     1      48.603   8.456  15.750  0.00  0.00    +0.000 HD
BRANCH  18  20
ATOM     20  C   UNL     1      50.161   7.119  15.843  0.00  0.00    +0.000 C 
BRANCH  20  21
ATOM     21  C   UNL     1      49.259   6.599  16.950  0.00  0.00    +0.000 A 
ATOM     22  C   UNL     1      49.188   7.164  18.216  0.00  0.00    +0.000 A 
ATOM     23  S   UNL     1      48.846   5.966  19.395  0.00  0.00    +0.000 S 
ATOM     24  C   UNL     1      48.428   4.836  18.190  0.00  0.00    +0.000 A 
ATOM     25  N   UNL     1      48.104   3.552  18.495  0.00  0.00    +0.000 NA
ATOM     26  C   UNL     1      47.631   2.892  17.495  0.00  0.00    +0.000 A 
ATOM     27  N   UNL     1      47.412   3.393  16.238  0.00  0.00    +0.000 N 
ATOM     28  C   UNL     1      47.786   4.679  15.865  0.00  0.00    +0.000 A 
ATOM     29  O   UNL     1      47.492   5.126  14.768  0.00  0.00    +0.000 OA
ATOM     30  C   UNL     1      48.428   5.424  16.935  0.00  0.00    +0.000 A 
ATOM     31  H   UNL     1      46.899   2.871  15.551  0.00  0.00    +0.000 HD
ENDBRANCH  20  21
BRANCH  20  33
ATOM     32  C   UNL     1      52.318   5.988  16.745  0.00  0.00    +0.000 C 
ATOM     33  C   UNL     1      51.636   7.243  16.224  0.00  0.00    +0.000 C 
ENDBRANCH  20  33
ENDBRANCH  18  20
ENDBRANCH   1  18
TORSDOF 9
ENDMDL
MODEL 7
REMARK VINA RESULT:    -6.170      1.699      2.222
REMARK INTER + INTRA:         -10.742
REMARK INTER:                 -10.017
REMARK INTRA:                  -0.725
REMARK UNBOUND:                -1.325
REMARK  Name = 
REMARK  10 active torsions:
REMARK  status: ('A' for Active; 'I' for Inactive)
REMARK    1  A    between atoms: C_1  and  C_2
REMARK    2  A    between atoms: C_2  and  C_3
REMARK    3  A    between atoms: C_3  and  N_4
REMARK    4  A    between atoms: C_3  and  C_20
REMARK    5  A    between atoms: N_4  and  C_5
REMARK    6  A    between atoms: C_5  and  C_6
REMARK    7  A    between atoms: C_9  and  C_10
REMARK    8  A    between atoms: C_10  and  N_11
REMARK    9  A    between atoms: N_11  and  C_12
REMARK   10  A    between atoms: C_12  and  C_13
REMARK                            x       y       z     vdW  Elec       q    Type
REMARK                         _______ _______ _______ _____ _____    ______ ____
ROOT
ATOM      1  C   UNL     1      49.243   6.879  15.231  0.00  0.00    +0.000 C 
ENDROOT
BRANCH   1   2
ATOM      2  C   UNL     1      48.279   6.631  14.100  0.00  0.00    +0.000 A 
ATOM      3  C   UNL     1      47.406   5.560  14.086  0.00  0.00    +0.000 A 
ATOM      4  N   UNL     1      46.547   5.289  13.077  0.00  0.00    +0.000 NA
ATOM      5  C   UNL     1      46.572   6.140  12.028  0.00  0.00    +0.000 A 
ATOM      6  N   UNL     1      47.359   7.232  11.954  0.00  0.00    +0.000 NA
ATOM      7  C   UNL     1      48.190   7.449  12.994  0.00  0.00    +0.000 A 
BRANCH   5   8
ATOM      8  C   UNL     1      45.616   5.880  10.869  0.00  0.00    +0.000 C 
BRANCH   8   9
ATOM      9  N   UNL     1      44.561   4.873  11.124  0.00  0.00    +0.000 NA
ATOM     10  H   UNL     1      43.781   5.121  10.516  0.00  0.00    +0.000 HD
BRANCH   9  11
ATOM     11  C   UNL     1      45.002   3.505  10.802  0.00  0.00    +0.000 C 
BRANCH  11  12
ATOM     12  C   UNL     1      44.363   2.985   9.483  0.00  0.00    +0.000 C 
ATOM     13  C   UNL     1      44.739   3.759   8.222  0.00  0.00    +0.000 C 
ATOM     14  C   UNL     1      46.010   3.098   7.722  0.00  0.00    +0.000 C 
ATOM     15  C   UNL     1      45.996   1.706   8.332  0.00  0.00    +0.000 C 
ATOM     16  N   UNL     1      44.777   1.615   9.134  0.00  0.00    +0.000 NA
ATOM     17  H   UNL     1      44.924   1.043   9.963  0.00  0.00    +0.000 HD
ENDBRANCH  11  12
ENDBRANCH   9  11
ENDBRANCH   8   9
ENDBRANCH   5   8
ENDBRANCH   1   2
BRANCH   1  18
ATOM     18  N   UNL     1      49.125   5.835  16.253  0.00  0.00    +0.000 NA
ATOM     19  H   UNL     1      49.870   5.152  16.099  0.00  0.00    +0.000 HD
BRANCH  18  20
ATOM     20  C   UNL     1      49.188   6.300  17.663  0.00  0.00    +0.000 C 
BRANCH  20  21
ATOM     21  C   UNL     1      50.072   5.289  18.376  0.00  0.00    +0.000 A 
ATOM     22  C   UNL     1      50.948   5.621  19.401  0.00  0.00    +0.000 A 
ATOM     23  S   UNL     1      52.320   4.590  19.380  0.00  0.00    +0.000 S 
ATOM     24  C   UNL     1      51.555   3.521  18.296  0.00  0.00    +0.000 A 
ATOM     25  N   UNL     1      52.199   2.438  17.785  0.00  0.00    +0.000 NA
ATOM     26  C   UNL     1      51.422   1.638  17.140  0.00  0.00    +0.000 A 
ATOM     27  N   UNL     1      50.068   1.787  16.989  0.00  0.00    +0.000 N 
ATOM     28  C   UNL     1      49.379   2.907  17.440  0.00  0.00    +0.000 A 
ATOM     29  O   UNL     1      48.162   2.966  17.374  0.00  0.00    +0.000 OA
ATOM     30  C   UNL     1      50.238   3.892  18.076  0.00  0.00    +0.000 A 
ATOM     31  H   UNL     1      49.502   1.049  16.610  0.00  0.00    +0.000 HD
ENDBRANCH  20  21
BRANCH  20  33
ATOM     32  C   UNL     1      47.645   7.524  19.355  0.00  0.00    +0.000 C 
ATOM     33  C   UNL     1      47.795   6.471  18.269  0.00  0.00    +0.000 C 
ENDBRANCH  20  33
ENDBRANCH  18  20
ENDBRANCH   1  18
TORSDOF 9
ENDMDL
MODEL 8
REMARK VINA RESULT:    -6.037      2.954      8.057
REMARK INTER + INTRA:         -10.538
REMARK INTER:                  -8.886
REMARK INTRA:                  -1.652
REMARK UNBOUND:                -1.325
REMARK  Name = 
REMARK  10 active torsions:
REMARK  status: ('A' for Active; 'I' for Inactive)
REMARK    1  A    between atoms: C_1  and  C_2
REMARK    2  A    between atoms: C_2  and  C_3
REMARK    3  A    between atoms: C_3  and  N_4
REMARK    4  A    between atoms: C_3  and  C_20
REMARK    5  A    between atoms: N_4  and  C_5
REMARK    6  A    between atoms: C_5  and  C_6
REMARK    7  A    between atoms: C_9  and  C_10
REMARK    8  A    between atoms: C_10  and  N_11
REMARK    9  A    between atoms: N_11  and  C_12
REMARK   10  A    between atoms: C_12  and  C_13
REMARK                            x       y       z     vdW  Elec       q    Type
REMARK                         _______ _______ _______ _____ _____    ______ ____
ROOT
ATOM      1  C   UNL     1      46.931   8.210  13.291  0.00  0.00    +0.000 C 
ENDROOT
BRANCH   1   2
ATOM      2  C   UNL     1      48.102   7.745  14.116  0.00  0.00    +0.000 A 
ATOM      3  C   UNL     1      48.191   6.467  14.633  0.00  0.00    +0.000 A 
ATOM      4  N   UNL     1      49.211   6.024  15.401  0.00  0.00    +0.000 NA
ATOM      5  C   UNL     1      50.192   6.915  15.661  0.00  0.00    +0.000 A 
ATOM      6  N   UNL     1      50.223   8.174  15.181  0.00  0.00    +0.000 NA
ATOM      7  C   UNL     1      49.177   8.554  14.418  0.00  0.00    +0.000 A 
BRANCH   5   8
ATOM      8  C   UNL     1      51.369   6.458  16.517  0.00  0.00    +0.000 C 
BRANCH   8   9
ATOM      9  N   UNL     1      51.219   5.130  17.154  0.00  0.00    +0.000 NA
ATOM     10  H   UNL     1      52.140   4.694  17.119  0.00  0.00    +0.000 HD
BRANCH   9  11
ATOM     11  C   UNL     1      50.790   5.228  18.559  0.00  0.00    +0.000 C 
BRANCH  11  12
ATOM     12  C   UNL     1      49.505   4.395  18.835  0.00  0.00    +0.000 C 
ATOM     13  C   UNL     1      48.900   4.563  20.226  0.00  0.00    +0.000 C 
ATOM     14  C   UNL     1      47.957   5.745  20.101  0.00  0.00    +0.000 C 
ATOM     15  C   UNL     1      47.635   5.837  18.618  0.00  0.00    +0.000 C 
ATOM     16  N   UNL     1      48.375   4.758  17.964  0.00  0.00    +0.000 NA
ATOM     17  H   UNL     1      48.688   5.038  17.037  0.00  0.00    +0.000 HD
ENDBRANCH  11  12
ENDBRANCH   9  11
ENDBRANCH   8   9
ENDBRANCH   5   8
ENDBRANCH   1   2
BRANCH   1  18
ATOM     18  N   UNL     1      45.892   7.177  13.234  0.00  0.00    +0.000 NA
ATOM     19  H   UNL     1      45.330   7.243  14.085  0.00  0.00    +0.000 HD
BRANCH  18  20
ATOM     20  C   UNL     1      44.986   7.233  12.058  0.00  0.00    +0.000 C 
BRANCH  20  21
ATOM     21  C   UNL     1      45.269   5.961  11.276  0.00  0.00    +0.000 A 
ATOM     22  C   UNL     1      45.875   5.942  10.027  0.00  0.00    +0.000 A 
ATOM     23  S   UNL     1      45.291   4.629   9.091  0.00  0.00    +0.000 S 
ATOM     24  C   UNL     1      44.567   3.918  10.460  0.00  0.00    +0.000 A 
ATOM     25  N   UNL     1      43.817   2.788  10.366  0.00  0.00    +0.000 NA
ATOM     26  C   UNL     1      43.508   2.282  11.510  0.00  0.00    +0.000 A 
ATOM     27  N   UNL     1      43.905   2.764  12.730  0.00  0.00    +0.000 N 
ATOM     28  C   UNL     1      44.618   3.949  12.876  0.00  0.00    +0.000 A 
ATOM     29  O   UNL     1      45.037   4.300  13.967  0.00  0.00    +0.000 OA
ATOM     30  C   UNL     1      44.892   4.613  11.613  0.00  0.00    +0.000 A 
ATOM     31  H   UNL     1      43.760   2.235  13.571  0.00  0.00    +0.000 HD
ENDBRANCH  20  21
BRANCH  20  33
ATOM     32  C   UNL     1      43.912   9.348  11.000  0.00  0.00    +0.000 C 
ATOM     33  C   UNL     1      45.164   8.526  11.263  0.00  0.00    +0.000 C 
ENDBRANCH  20  33
ENDBRANCH  18  20
ENDBRANCH   1  18
TORSDOF 9
ENDMDL
MODEL 9
REMARK VINA RESULT:    -5.958      2.981      7.505
REMARK INTER + INTRA:         -10.418
REMARK INTER:                  -9.093
REMARK INTRA:                  -1.324
REMARK UNBOUND:                -1.325
REMARK  Name = 
REMARK  10 active torsions:
REMARK  status: ('A' for Active; 'I' for Inactive)
REMARK    1  A    between atoms: C_1  and  C_2
REMARK    2  A    between atoms: C_2  and  C_3
REMARK    3  A    between atoms: C_3  and  N_4
REMARK    4  A    between atoms: C_3  and  C_20
REMARK    5  A    between atoms: N_4  and  C_5
REMARK    6  A    between atoms: C_5  and  C_6
REMARK    7  A    between atoms: C_9  and  C_10
REMARK    8  A    between atoms: C_10  and  N_11
REMARK    9  A    between atoms: N_11  and  C_12
REMARK   10  A    between atoms: C_12  and  C_13
REMARK                            x       y       z     vdW  Elec       q    Type
REMARK                         _______ _______ _______ _____ _____    ______ ____
ROOT
ATOM      1  C   UNL     1      48.336   8.229  12.061  0.00  0.00    +0.000 C 
ENDROOT
BRANCH   1   2
ATOM      2  C   UNL     1      48.552   8.052  13.541  0.00  0.00    +0.000 A 
ATOM      3  C   UNL     1      48.179   9.005  14.469  0.00  0.00    +0.000 A 
ATOM      4  N   UNL     1      48.383   8.894  15.801  0.00  0.00    +0.000 NA
ATOM      5  C   UNL     1      48.995   7.765  16.218  0.00  0.00    +0.000 A 
ATOM      6  N   UNL     1      49.369   6.758  15.405  0.00  0.00    +0.000 NA
ATOM      7  C   UNL     1      49.134   6.928  14.087  0.00  0.00    +0.000 A 
BRANCH   5   8
ATOM      8  C   UNL     1      49.239   7.591  17.713  0.00  0.00    +0.000 C 
BRANCH   8   9
ATOM      9  N   UNL     1      48.382   6.590  18.389  0.00  0.00    +0.000 NA
ATOM     10  H   UNL     1      47.706   6.279  17.691  0.00  0.00    +0.000 HD
BRANCH   9  11
ATOM     11  C   UNL     1      49.149   5.426  18.864  0.00  0.00    +0.000 C 
BRANCH  11  12
ATOM     12  C   UNL     1      48.307   4.118  18.817  0.00  0.00    +0.000 C 
ATOM     13  C   UNL     1      47.305   4.024  17.670  0.00  0.00    +0.000 C 
ATOM     14  C   UNL     1      48.084   3.416  16.519  0.00  0.00    +0.000 C 
ATOM     15  C   UNL     1      49.253   2.696  17.172  0.00  0.00    +0.000 C 
ATOM     16  N   UNL     1      49.120   2.908  18.612  0.00  0.00    +0.000 NA
ATOM     17  H   UNL     1      50.032   2.986  19.057  0.00  0.00    +0.000 HD
ENDBRANCH  11  12
ENDBRANCH   9  11
ENDBRANCH   8   9
ENDBRANCH   5   8
ENDBRANCH   1   2
BRANCH   1  18
ATOM     18  N   UNL     1      47.729   7.029  11.476  0.00  0.00    +0.000 NA
ATOM     19  H   UNL     1      48.237   6.213  11.824  0.00  0.00    +0.000 HD
BRANCH  18  20
ATOM     20  C   UNL     1      46.280   6.839  11.745  0.00  0.00    +0.000 C 
BRANCH  20  21
ATOM     21  C   UNL     1      45.883   5.614  10.938  0.00  0.00    +0.000 A 
ATOM     22  C   UNL     1      45.975   5.538   9.555  0.00  0.00    +0.000 A 
ATOM     23  S   UNL     1      44.741   4.531   8.920  0.00  0.00    +0.000 S 
ATOM     24  C   UNL     1      44.372   3.930  10.472  0.00  0.00    +0.000 A 
ATOM     25  N   UNL     1      43.341   3.069  10.679  0.00  0.00    +0.000 NA
ATOM     26  C   UNL     1      43.322   2.570  11.866  0.00  0.00    +0.000 A 
ATOM     27  N   UNL     1      44.246   2.810  12.850  0.00  0.00    +0.000 N 
ATOM     28  C   UNL     1      45.279   3.730  12.704  0.00  0.00    +0.000 A 
ATOM     29  O   UNL     1      46.139   3.851  13.561  0.00  0.00    +0.000 OA
ATOM     30  C   UNL     1      45.271   4.402  11.415  0.00  0.00    +0.000 A 
ATOM     31  H   UNL     1      44.259   2.270  13.696  0.00  0.00    +0.000 HD
ENDBRANCH  20  21
BRANCH  20  33
ATOM     32  C   UNL     1      44.958   8.895  12.623  0.00  0.00    +0.000 C 
ATOM     33  C   UNL     1      45.473   8.100  11.434  0.00  0.00    +0.000 C 
ENDBRANCH  20  33
ENDBRANCH  18  20
ENDBRANCH   1  18
TORSDOF 9
ENDMDL
