MODEL 1
REMARK VINA RESULT:    -7.922      0.000      0.000
REMARK INTER + INTRA:         -12.668
REMARK INTER:                 -11.626
REMARK INTRA:                  -1.041
REMARK UNBOUND:                -1.041
REMARK  Name = 
REMARK  9 active torsions:
REMARK  status: ('A' for Active; 'I' for Inactive)
REMARK    1  A    between atoms: C_1  and  C_2
REMARK    2  A    between atoms: C_2  and  C_3
REMARK    3  A    between atoms: C_3  and  N_4
REMARK    4  A    between atoms: C_3  and  C_26
REMARK    5  A    between atoms: N_4  and  C_5
REMARK    6  A    between atoms: C_5  and  C_6
REMARK    7  A    between atoms: C_9  and  C_10
REMARK    8  A    between atoms: C_10  and  N_11
REMARK    9  A    between atoms: C_12  and  C_14
REMARK                            x       y       z     vdW  Elec       q    Type
REMARK                         _______ _______ _______ _____ _____    ______ ____
ROOT
ATOM      1  C   UNL     1      44.919   6.242  11.244  0.00  0.00    +0.000 A 
ATOM      2  C   UNL     1      46.277   5.915  11.291  0.00  0.00    +0.000 A 
ATOM      3  C   UNL     1      47.139   6.645  12.102  0.00  0.00    +0.000 A 
ATOM      4  C   UNL     1      46.625   7.709  12.838  0.00  0.00    +0.000 A 
ATOM      5  N   UNL     1      45.309   8.037  12.828  0.00  0.00    +0.000 NA
ATOM      6  C   UNL     1      44.494   7.298  12.041  0.00  0.00    +0.000 A 
ENDROOT
BRANCH   1   7
ATOM      7  C   UNL     1      43.954   5.443  10.410  0.00  0.00    +0.000 C 
BRANCH   7   8
ATOM      8  N   UNL     1      44.609   4.824   9.254  0.00  0.00    +0.000 NA
ATOM      9  H   UNL     1      44.152   5.136   8.401  0.00  0.00    +0.000 HD
BRANCH   8  10
ATOM     10  C   UNL     1      44.575   3.346   9.294  0.00  0.00    +0.000 C 
BRANCH  10  11
ATOM     11  C   UNL     1      45.564   2.707   8.313  0.00  0.00    +0.000 A 
ATOM     12  C   UNL     1      46.140   3.471   7.297  0.00  0.00    +0.000 A 
ATOM     13  C   UNL     1      47.068   2.872   6.449  0.00  0.00    +0.000 A 
ATOM     14  C   UNL     1      47.413   1.539   6.640  0.00  0.00    +0.000 A 
ATOM     15  C   UNL     1      46.812   0.855   7.683  0.00  0.00    +0.000 A 
ATOM     16  N   UNL     1      45.906   1.406   8.515  0.00  0.00    +0.000 NA
ENDBRANCH  10  11
BRANCH  10  18
ATOM     17  C   UNL     1      43.423   2.528  11.465  0.00  0.00    +0.000 C 
ATOM     18  C   UNL     1      44.727   2.731  10.708  0.00  0.00    +0.000 C 
ENDBRANCH  10  18
ENDBRANCH   8  10
ENDBRANCH   7   8
ENDBRANCH   1   7
BRANCH   4  19
ATOM     19  C   UNL     1      47.528   8.526  13.726  0.00  0.00    +0.000 C 
BRANCH  19  20
ATOM     20  N   UNL     1      47.949   7.785  14.892  0.00  0.00    +0.000 N 
ATOM     21  C   UNL     1      49.213   7.276  15.021  0.00  0.00    +0.000 C 
ATOM     22  O   UNL     1      50.075   7.440  14.163  0.00  0.00    +0.000 OA
ATOM     23  H   UNL     1      47.197   7.415  15.465  0.00  0.00    +0.000 HD
BRANCH  21  24
ATOM     24  C   UNL     1      49.510   6.590  16.285  0.00  0.00    +0.000 A 
ATOM     25  C   UNL     1      50.493   7.097  17.124  0.00  0.00    +0.000 A 
ATOM     26  S   UNL     1      50.682   6.211  18.568  0.00  0.00    +0.000 S 
ATOM     27  C   UNL     1      49.487   5.093  18.103  0.00  0.00    +0.000 A 
ATOM     28  N   UNL     1      49.170   4.037  18.901  0.00  0.00    +0.000 NA
ATOM     29  C   UNL     1      48.266   3.255  18.413  0.00  0.00    +0.000 A 
ATOM     30  N   UNL     1      47.647   3.433  17.204  0.00  0.00    +0.000 N 
ATOM     31  C   UNL     1      47.897   4.512  16.388  0.00  0.00    +0.000 A 
ATOM     32  O   UNL     1      47.262   4.690  15.360  0.00  0.00    +0.000 OA
ATOM     33  C   UNL     1      48.932   5.407  16.875  0.00  0.00    +0.000 A 
ATOM     34  H   UNL     1      46.928   2.799  16.889  0.00  0.00    +0.000 HD
ENDBRANCH  21  24
ENDBRANCH  19  20
ENDBRANCH   4  19
TORSDOF 8
ENDMDL
MODEL 2
REMARK VINA RESULT:    -7.572      2.807      3.746
REMARK INTER + INTRA:         -12.154
REMARK INTER:                 -11.137
REMARK INTRA:                  -1.017
REMARK UNBOUND:                -1.041
REMARK  Name = 
REMARK  9 active torsions:
REMARK  status: ('A' for Active; 'I' for Inactive)
REMARK    1  A    between atoms: C_1  and  C_2
REMARK    2  A    between atoms: C_2  and  C_3
REMARK    3  A    between atoms: C_3  and  N_4
REMARK    4  A    between atoms: C_3  and  C_26
REMARK    5  A    between atoms: N_4  and  C_5
REMARK    6  A    between atoms: C_5  and  C_6
REMARK    7  A    between atoms: C_9  and  C_10
REMARK    8  A    between atoms: C_10  and  N_11
REMARK    9  A    between atoms: C_12  and  C_14
REMARK                            x       y       z     vdW  Elec       q    Type
REMARK                         _______ _______ _______ _____ _____    ______ ____
ROOT
ATOM      1  C   UNL     1      46.852   4.933  13.579  0.00  0.00    +0.000 A 
ATOM      2  C   UNL     1      46.788   4.391  14.866  0.00  0.00    +0.000 A 
ATOM      3  C   UNL     1      47.607   4.894  15.872  0.00  0.00    +0.000 A 
ATOM      4  C   UNL     1      48.494   5.921  15.562  0.00  0.00    +0.000 A 
ATOM      5  N   UNL     1      48.564   6.480  14.328  0.00  0.00    +0.000 NA
ATOM      6  C   UNL     1      47.743   5.979  13.376  0.00  0.00    +0.000 A 
ENDROOT
BRANCH   1   7
ATOM      7  C   UNL     1      45.948   4.440  12.482  0.00  0.00    +0.000 C 
BRANCH   7   8
ATOM      8  N   UNL     1      45.541   5.520  11.578  0.00  0.00    +0.000 NA
ATOM      9  H   UNL     1      45.135   6.278  12.120  0.00  0.00    +0.000 HD
BRANCH   8  10
ATOM     10  C   UNL     1      44.555   5.085  10.565  0.00  0.00    +0.000 C 
BRANCH  10  11
ATOM     11  C   UNL     1      45.165   4.155   9.511  0.00  0.00    +0.000 A 
ATOM     12  C   UNL     1      44.949   2.778   9.577  0.00  0.00    +0.000 A 
ATOM     13  C   UNL     1      45.481   1.965   8.580  0.00  0.00    +0.000 A 
ATOM     14  C   UNL     1      46.197   2.538   7.536  0.00  0.00    +0.000 A 
ATOM     15  C   UNL     1      46.351   3.913   7.531  0.00  0.00    +0.000 A 
ATOM     16  N   UNL     1      45.855   4.725   8.486  0.00  0.00    +0.000 NA
ENDBRANCH  10  11
BRANCH  10  18
ATOM     17  C   UNL     1      42.294   5.488  11.762  0.00  0.00    +0.000 C 
ATOM     18  C   UNL     1      43.252   4.480  11.145  0.00  0.00    +0.000 C 
ENDBRANCH  10  18
ENDBRANCH   8  10
ENDBRANCH   7   8
ENDBRANCH   1   7
BRANCH   4  19
ATOM     19  C   UNL     1      49.399   6.490  16.624  0.00  0.00    +0.000 C 
BRANCH  19  20
ATOM     20  N   UNL     1      50.433   5.556  17.004  0.00  0.00    +0.000 N 
ATOM     21  C   UNL     1      50.992   5.550  18.253  0.00  0.00    +0.000 C 
ATOM     22  O   UNL     1      50.630   6.321  19.136  0.00  0.00    +0.000 OA
ATOM     23  H   UNL     1      50.922   5.112  16.232  0.00  0.00    +0.000 HD
BRANCH  21  24
ATOM     24  C   UNL     1      51.997   4.509  18.509  0.00  0.00    +0.000 A 
ATOM     25  C   UNL     1      53.144   4.827  19.224  0.00  0.00    +0.000 A 
ATOM     26  S   UNL     1      54.184   3.500  19.473  0.00  0.00    +0.000 S 
ATOM     27  C   UNL     1      53.159   2.462  18.596  0.00  0.00    +0.000 A 
ATOM     28  N   UNL     1      53.486   1.155  18.403  0.00  0.00    +0.000 NA
ATOM     29  C   UNL     1      52.632   0.492  17.697  0.00  0.00    +0.000 A 
ATOM     30  N   UNL     1      51.480   1.014  17.170  0.00  0.00    +0.000 N 
ATOM     31  C   UNL     1      51.083   2.313  17.381  0.00  0.00    +0.000 A 
ATOM     32  O   UNL     1      50.005   2.721  16.974  0.00  0.00    +0.000 OA
ATOM     33  C   UNL     1      52.025   3.114  18.142  0.00  0.00    +0.000 A 
ATOM     34  H   UNL     1      50.839   0.436  16.648  0.00  0.00    +0.000 HD
ENDBRANCH  21  24
ENDBRANCH  19  20
ENDBRANCH   4  19
TORSDOF 8
ENDMDL
MODEL 3
REMARK VINA RESULT:    -7.444      4.891      9.437
REMARK INTER + INTRA:         -11.967
REMARK INTER:                 -10.602
REMARK INTRA:                  -1.365
REMARK UNBOUND:                -1.041
REMARK  Name = 
REMARK  9 active torsions:
REMARK  status: ('A' for Active; 'I' for Inactive)
REMARK    1  A    between atoms: C_1  and  C_2
REMARK    2  A    between atoms: C_2  and  C_3
REMARK    3  A    between atoms: C_3  and  N_4
REMARK    4  A    between atoms: C_3  and  C_26
REMARK    5  A    between atoms: N_4  and  C_5
REMARK    6  A    between atoms: C_5  and  C_6
REMARK    7  A    between atoms: C_9  and  C_10
REMARK    8  A    between atoms: C_10  and  N_11
REMARK    9  A    between atoms: C_12  and  C_14
REMARK                            x       y       z     vdW  Elec       q    Type
REMARK                         _______ _______ _______ _____ _____    ______ ____
ROOT
ATOM      1  C   UNL     1      51.054   2.345  17.396  0.00  0.00    +0.000 A 
ATOM      2  C   UNL     1      49.665   2.255  17.268  0.00  0.00    +0.000 A 
ATOM      3  C   UNL     1      48.901   3.413  17.165  0.00  0.00    +0.000 A 
ATOM      4  C   UNL     1      49.544   4.646  17.215  0.00  0.00    +0.000 A 
ATOM      5  N   UNL     1      50.892   4.764  17.319  0.00  0.00    +0.000 NA
ATOM      6  C   UNL     1      51.607   3.619  17.400  0.00  0.00    +0.000 A 
ENDROOT
BRANCH   1   7
ATOM      7  C   UNL     1      51.911   1.110  17.464  0.00  0.00    +0.000 C 
BRANCH   7   8
ATOM      8  N   UNL     1      52.855   1.158  18.584  0.00  0.00    +0.000 NA
ATOM      9  H   UNL     1      52.930   2.113  18.921  0.00  0.00    +0.000 HD
BRANCH   8  10
ATOM     10  C   UNL     1      54.206   0.679  18.220  0.00  0.00    +0.000 C 
BRANCH  10  11
ATOM     11  C   UNL     1      54.313  -0.850  18.231  0.00  0.00    +0.000 A 
ATOM     12  C   UNL     1      54.933  -1.520  17.176  0.00  0.00    +0.000 A 
ATOM     13  C   UNL     1      55.052  -2.906  17.237  0.00  0.00    +0.000 A 
ATOM     14  C   UNL     1      54.570  -3.589  18.347  0.00  0.00    +0.000 A 
ATOM     15  C   UNL     1      53.985  -2.850  19.361  0.00  0.00    +0.000 A 
ATOM     16  N   UNL     1      53.849  -1.509  19.328  0.00  0.00    +0.000 NA
ENDBRANCH  10  11
BRANCH  10  18
ATOM     17  C   UNL     1      55.352   2.660  17.006  0.00  0.00    +0.000 C 
ATOM     18  C   UNL     1      54.767   1.260  16.897  0.00  0.00    +0.000 C 
ENDBRANCH  10  18
ENDBRANCH   8  10
ENDBRANCH   7   8
ENDBRANCH   1   7
BRANCH   4  19
ATOM     19  C   UNL     1      48.750   5.922  17.111  0.00  0.00    +0.000 C 
BRANCH  19  20
ATOM     20  N   UNL     1      47.864   5.913  15.971  0.00  0.00    +0.000 N 
ATOM     21  C   UNL     1      48.269   6.304  14.724  0.00  0.00    +0.000 C 
ATOM     22  O   UNL     1      49.419   6.664  14.492  0.00  0.00    +0.000 OA
ATOM     23  H   UNL     1      46.873   5.884  16.193  0.00  0.00    +0.000 HD
BRANCH  21  24
ATOM     24  C   UNL     1      47.270   6.192  13.652  0.00  0.00    +0.000 A 
ATOM     25  C   UNL     1      46.866   7.333  12.973  0.00  0.00    +0.000 A 
ATOM     26  S   UNL     1      45.738   7.024  11.732  0.00  0.00    +0.000 S 
ATOM     27  C   UNL     1      45.719   5.361  12.088  0.00  0.00    +0.000 A 
ATOM     28  N   UNL     1      44.920   4.506  11.393  0.00  0.00    +0.000 NA
ATOM     29  C   UNL     1      44.985   3.278  11.785  0.00  0.00    +0.000 A 
ATOM     30  N   UNL     1      45.779   2.825  12.806  0.00  0.00    +0.000 N 
ATOM     31  C   UNL     1      46.639   3.640  13.502  0.00  0.00    +0.000 A 
ATOM     32  O   UNL     1      47.400   3.187  14.344  0.00  0.00    +0.000 OA
ATOM     33  C   UNL     1      46.581   5.041  13.122  0.00  0.00    +0.000 A 
ATOM     34  H   UNL     1      45.804   1.846  13.049  0.00  0.00    +0.000 HD
ENDBRANCH  21  24
ENDBRANCH  19  20
ENDBRANCH   4  19
TORSDOF 8
ENDMDL
MODEL 4
REMARK VINA RESULT:    -6.931      1.637      2.420
REMARK INTER + INTRA:         -11.213
REMARK INTER:                 -10.893
REMARK INTRA:                  -0.321
REMARK UNBOUND:                -1.041
REMARK  Name = 
REMARK  9 active torsions:
REMARK  status: ('A' for Active; 'I' for Inactive)
REMARK    1  A    between atoms: C_1  and  C_2
REMARK    2  A    between atoms: C_2  and  C_3
REMARK    3  A    between atoms: C_3  and  N_4
REMARK    4  A    between atoms: C_3  and  C_26
REMARK    5  A    between atoms: N_4  and  C_5
REMARK    6  A    between atoms: C_5  and  C_6
REMARK    7  A    between atoms: C_9  and  C_10
REMARK    8  A    between atoms: C_10  and  N_11
REMARK    9  A    between atoms: C_12  and  C_14
REMARK                            x       y       z     vdW  Elec       q    Type
REMARK                         _______ _______ _______ _____ _____    ______ ____
ROOT
ATOM      1  C   UNL     1      44.452   6.473  11.730  0.00  0.00    +0.000 A 
ATOM      2  C   UNL     1      44.646   7.817  11.400  0.00  0.00    +0.000 A 
ATOM      3  C   UNL     1      45.622   8.560  12.058  0.00  0.00    +0.000 A 
ATOM      4  C   UNL     1      46.373   7.943  13.054  0.00  0.00    +0.000 A 
ATOM      5  N   UNL     1      46.220   6.636  13.382  0.00  0.00    +0.000 NA
ATOM      6  C   UNL     1      45.275   5.938  12.713  0.00  0.00    +0.000 A 
ENDROOT
BRANCH   1   7
ATOM      7  C   UNL     1      43.436   5.633  11.005  0.00  0.00    +0.000 C 
BRANCH   7   8
ATOM      8  N   UNL     1      43.978   5.057   9.771  0.00  0.00    +0.000 NA
ATOM      9  H   UNL     1      43.345   5.254   9.001  0.00  0.00    +0.000 HD
BRANCH   8  10
ATOM     10  C   UNL     1      44.179   3.595   9.856  0.00  0.00    +0.000 C 
BRANCH  10  11
ATOM     11  C   UNL     1      45.172   3.075   8.810  0.00  0.00    +0.000 A 
ATOM     12  C   UNL     1      45.747   3.952   7.889  0.00  0.00    +0.000 A 
ATOM     13  C   UNL     1      46.678   3.456   6.979  0.00  0.00    +0.000 A 
ATOM     14  C   UNL     1      47.026   2.111   7.017  0.00  0.00    +0.000 A 
ATOM     15  C   UNL     1      46.426   1.310   7.973  0.00  0.00    +0.000 A 
ATOM     16  N   UNL     1      45.516   1.760   8.862  0.00  0.00    +0.000 NA
ENDBRANCH  10  11
BRANCH  10  18
ATOM     17  C   UNL     1      43.379   2.484  12.054  0.00  0.00    +0.000 C 
ATOM     18  C   UNL     1      44.542   3.070  11.268  0.00  0.00    +0.000 C 
ENDBRANCH  10  18
ENDBRANCH   8  10
ENDBRANCH   7   8
ENDBRANCH   1   7
BRANCH   4  19
ATOM     19  C   UNL     1      47.436   8.716  13.792  0.00  0.00    +0.000 C 
BRANCH  19  20
ATOM     20  N   UNL     1      47.982   7.959  14.895  0.00  0.00    +0.000 N 
ATOM     21  C   UNL     1      49.042   7.107  14.745  0.00  0.00    +0.000 C 
ATOM     22  O   UNL     1      49.611   6.952  13.669  0.00  0.00    +0.000 OA
ATOM     23  H   UNL     1      47.371   7.867  15.701  0.00  0.00    +0.000 HD
BRANCH  21  24
ATOM     24  C   UNL     1      49.519   6.445  15.967  0.00  0.00    +0.000 A 
ATOM     25  C   UNL     1      48.632   5.700  16.732  0.00  0.00    +0.000 A 
ATOM     26  S   UNL     1      49.353   4.962  18.088  0.00  0.00    +0.000 S 
ATOM     27  C   UNL     1      50.867   5.647  17.725  0.00  0.00    +0.000 A 
ATOM     28  N   UNL     1      51.944   5.429  18.528  0.00  0.00    +0.000 NA
ATOM     29  C   UNL     1      53.021   6.031  18.149  0.00  0.00    +0.000 A 
ATOM     30  N   UNL     1      53.122   6.828  17.039  0.00  0.00    +0.000 N 
ATOM     31  C   UNL     1      52.076   7.037  16.171  0.00  0.00    +0.000 A 
ATOM     32  O   UNL     1      52.225   7.678  15.141  0.00  0.00    +0.000 OA
ATOM     33  C   UNL     1      50.829   6.408  16.570  0.00  0.00    +0.000 A 
ATOM     34  H   UNL     1      54.001   7.251  16.780  0.00  0.00    +0.000 HD
ENDBRANCH  21  24
ENDBRANCH  19  20
ENDBRANCH   4  19
TORSDOF 8
ENDMDL
MODEL 5
REMARK VINA RESULT:    -6.923      3.018      8.573
REMARK INTER + INTRA:         -11.202
REMARK INTER:                  -9.771
REMARK INTRA:                  -1.431
REMARK UNBOUND:                -1.041
REMARK  Name = 
REMARK  9 active torsions:
REMARK  status: ('A' for Active; 'I' for Inactive)
REMARK    1  A    between atoms: C_1  and  C_2
REMARK    2  A    between atoms: C_2  and  C_3
REMARK    3  A    between atoms: C_3  and  N_4
REMARK    4  A    between atoms: C_3  and  C_26
REMARK    5  A    between atoms: N_4  and  C_5
REMARK    6  A    between atoms: C_5  and  C_6
REMARK    7  A    between atoms: C_9  and  C_10
REMARK    8  A    between atoms: C_10  and  N_11
REMARK    9  A    between atoms: C_12  and  C_14
REMARK                            x       y       z     vdW  Elec       q    Type
REMARK                         _______ _______ _______ _____ _____    ______ ____
ROOT
ATOM      1  C   UNL     1      50.242   7.406  15.085  0.00  0.00    +0.000 A 
ATOM      2  C   UNL     1      49.003   6.762  15.146  0.00  0.00    +0.000 A 
ATOM      3  C   UNL     1      48.126   6.841  14.070  0.00  0.00    +0.000 A 
ATOM      4  C   UNL     1      48.500   7.585  12.955  0.00  0.00    +0.000 A 
ATOM      5  N   UNL     1      49.703   8.204  12.859  0.00  0.00    +0.000 NA
ATOM      6  C   UNL     1      50.540   8.095  13.916  0.00  0.00    +0.000 A 
ENDROOT
BRANCH   1   7
ATOM      7  C   UNL     1      51.230   7.302  16.215  0.00  0.00    +0.000 C 
BRANCH   7   8
ATOM      8  N   UNL     1      51.620   5.914  16.479  0.00  0.00    +0.000 NA
ATOM      9  H   UNL     1      51.252   5.315  15.745  0.00  0.00    +0.000 HD
BRANCH   8  10
ATOM     10  C   UNL     1      51.133   5.415  17.783  0.00  0.00    +0.000 C 
BRANCH  10  11
ATOM     11  C   UNL     1      49.877   4.546  17.650  0.00  0.00    +0.000 A 
ATOM     12  C   UNL     1      48.649   5.009  18.123  0.00  0.00    +0.000 A 
ATOM     13  C   UNL     1      47.518   4.215  17.949  0.00  0.00    +0.000 A 
ATOM     14  C   UNL     1      47.632   2.992  17.296  0.00  0.00    +0.000 A 
ATOM     15  C   UNL     1      48.882   2.613  16.839  0.00  0.00    +0.000 A 
ATOM     16  N   UNL     1      49.995   3.357  16.999  0.00  0.00    +0.000 NA
ENDBRANCH  10  11
BRANCH  10  18
ATOM     17  C   UNL     1      53.508   4.391  17.927  0.00  0.00    +0.000 C 
ATOM     18  C   UNL     1      52.205   4.704  18.647  0.00  0.00    +0.000 C 
ENDBRANCH  10  18
ENDBRANCH   8  10
ENDBRANCH   7   8
ENDBRANCH   1   7
BRANCH   4  19
ATOM     19  C   UNL     1      47.575   7.697  11.771  0.00  0.00    +0.000 C 
BRANCH  19  20
ATOM     20  N   UNL     1      46.852   6.469  11.535  0.00  0.00    +0.000 N 
ATOM     21  C   UNL     1      45.500   6.367  11.720  0.00  0.00    +0.000 C 
ATOM     22  O   UNL     1      44.814   7.322  12.074  0.00  0.00    +0.000 OA
ATOM     23  H   UNL     1      47.422   5.629  11.512  0.00  0.00    +0.000 HD
BRANCH  21  24
ATOM     24  C   UNL     1      44.896   5.069  11.392  0.00  0.00    +0.000 A 
ATOM     25  C   UNL     1      44.112   4.421  12.337  0.00  0.00    +0.000 A 
ATOM     26  S   UNL     1      43.451   2.951  11.783  0.00  0.00    +0.000 S 
ATOM     27  C   UNL     1      44.225   3.107  10.276  0.00  0.00    +0.000 A 
ATOM     28  N   UNL     1      44.093   2.148   9.319  0.00  0.00    +0.000 NA
ATOM     29  C   UNL     1      44.755   2.382   8.236  0.00  0.00    +0.000 A 
ATOM     30  N   UNL     1      45.533   3.489   8.019  0.00  0.00    +0.000 N 
ATOM     31  C   UNL     1      45.656   4.507   8.935  0.00  0.00    +0.000 A 
ATOM     32  O   UNL     1      46.283   5.523   8.673  0.00  0.00    +0.000 OA
ATOM     33  C   UNL     1      44.956   4.278  10.186  0.00  0.00    +0.000 A 
ATOM     34  H   UNL     1      46.007   3.627   7.139  0.00  0.00    +0.000 HD
ENDBRANCH  21  24
ENDBRANCH  19  20
ENDBRANCH   4  19
TORSDOF 8
ENDMDL
MODEL 6
REMARK VINA RESULT:    -6.639      3.221      8.273
REMARK INTER + INTRA:         -10.785
REMARK INTER:                  -9.467
REMARK INTRA:                  -1.318
REMARK UNBOUND:                -1.041
REMARK  Name = 
REMARK  9 active torsions:
REMARK  status: ('A' for Active; 'I' for Inactive)
REMARK    1  A    between atoms: C_1  and  C_2
REMARK    2  A    between atoms: C_2  and  C_3
REMARK    3  A    between atoms: C_3  and  N_4
REMARK    4  A    between atoms: C_3  and  C_26
REMARK    5  A    between atoms: N_4  and  C_5
REMARK    6  A    between atoms: C_5  and  C_6
REMARK    7  A    between atoms: C_9  and  C_10
REMARK    8  A    between atoms: C_10  and  N_11
REMARK    9  A    between atoms: C_12  and  C_14
REMARK                            x       y       z     vdW  Elec       q    Type
REMARK                         _______ _______ _______ _____ _____    ______ ____
ROOT
ATOM      1  C   UNL     1      50.717   7.356  15.163  0.00  0.00    +0.000 A 
ATOM      2  C   UNL     1      49.434   6.803  15.129  0.00  0.00    +0.000 A 
ATOM      3  C   UNL     1      48.580   7.095  14.071  0.00  0.00    +0.000 A 
ATOM      4  C   UNL     1      49.022   7.958  13.073  0.00  0.00    +0.000 A 
ATOM      5  N   UNL     1      50.269   8.494  13.069  0.00  0.00    +0.000 NA
ATOM      6  C   UNL     1      51.080   8.178  14.104  0.00  0.00    +0.000 A 
ENDROOT
BRANCH   1   7
ATOM      7  C   UNL     1      51.679   7.023  16.272  0.00  0.00    +0.000 C 
BRANCH   7   8
ATOM      8  N   UNL     1      51.599   5.614  16.664  0.00  0.00    +0.000 NA
ATOM      9  H   UNL     1      51.126   5.087  15.935  0.00  0.00    +0.000 HD
BRANCH   8  10
ATOM     10  C   UNL     1      50.875   5.409  17.937  0.00  0.00    +0.000 C 
BRANCH  10  11
ATOM     11  C   UNL     1      49.602   4.573  17.764  0.00  0.00    +0.000 A 
ATOM     12  C   UNL     1      48.371   5.069  18.195  0.00  0.00    +0.000 A 
ATOM     13  C   UNL     1      47.227   4.304  17.985  0.00  0.00    +0.000 A 
ATOM     14  C   UNL     1      47.330   3.077  17.338  0.00  0.00    +0.000 A 
ATOM     15  C   UNL     1      48.584   2.664  16.924  0.00  0.00    +0.000 A 
ATOM     16  N   UNL     1      49.710   3.380  17.120  0.00  0.00    +0.000 NA
ENDBRANCH  10  11
BRANCH  10  18
ATOM     17  C   UNL     1      53.046   4.198  18.666  0.00  0.00    +0.000 C 
ATOM     18  C   UNL     1      51.743   4.856  19.096  0.00  0.00    +0.000 C 
ENDBRANCH  10  18
ENDBRANCH   8  10
ENDBRANCH   7   8
ENDBRANCH   1   7
BRANCH   4  19
ATOM     19  C   UNL     1      48.125   8.302  11.912  0.00  0.00    +0.000 C 
BRANCH  19  20
ATOM     20  N   UNL     1      47.446   7.137  11.395  0.00  0.00    +0.000 N 
ATOM     21  C   UNL     1      46.084   7.010  11.422  0.00  0.00    +0.000 C 
ATOM     22  O   UNL     1      45.353   7.891  11.865  0.00  0.00    +0.000 OA
ATOM     23  H   UNL     1      48.026   6.311  11.283  0.00  0.00    +0.000 HD
BRANCH  21  24
ATOM     24  C   UNL     1      45.533   5.792  10.813  0.00  0.00    +0.000 A 
ATOM     25  C   UNL     1      45.732   5.554   9.459  0.00  0.00    +0.000 A 
ATOM     26  S   UNL     1      45.070   4.078   8.921  0.00  0.00    +0.000 S 
ATOM     27  C   UNL     1      44.458   3.725  10.468  0.00  0.00    +0.000 A 
ATOM     28  N   UNL     1      43.744   2.589  10.695  0.00  0.00    +0.000 NA
ATOM     29  C   UNL     1      43.317   2.462  11.907  0.00  0.00    +0.000 A 
ATOM     30  N   UNL     1      43.542   3.363  12.914  0.00  0.00    +0.000 N 
ATOM     31  C   UNL     1      44.299   4.499  12.745  0.00  0.00    +0.000 A 
ATOM     32  O   UNL     1      44.557   5.234  13.686  0.00  0.00    +0.000 OA
ATOM     33  C   UNL     1      44.776   4.707  11.390  0.00  0.00    +0.000 A 
ATOM     34  H   UNL     1      43.203   3.194  13.849  0.00  0.00    +0.000 HD
ENDBRANCH  21  24
ENDBRANCH  19  20
ENDBRANCH   4  19
TORSDOF 8
ENDMDL
MODEL 7
REMARK VINA RESULT:    -6.610      2.203      2.827
REMARK INTER + INTRA:         -10.743
REMARK INTER:                  -9.627
REMARK INTRA:                  -1.117
REMARK UNBOUND:                -1.041
REMARK  Name = 
REMARK  9 active torsions:
REMARK  status: ('A' for Active; 'I' for Inactive)
REMARK    1  A    between atoms: C_1  and  C_2
REMARK    2  A    between atoms: C_2  and  C_3
REMARK    3  A    between atoms: C_3  and  N_4
REMARK    4  A    between atoms: C_3  and  C_26
REMARK    5  A    between atoms: N_4  and  C_5
REMARK    6  A    between atoms: C_5  and  C_6
REMARK    7  A    between atoms: C_9  and  C_10
REMARK    8  A    between atoms: C_10  and  N_11
REMARK    9  A    between atoms: C_12  and  C_14
REMARK                            x       y       z     vdW  Elec       q    Type
REMARK                         _______ _______ _______ _____ _____    ______ ____
ROOT
ATOM      1  C   UNL     1      46.736   6.467  12.592  0.00  0.00    +0.000 A 
ATOM      2  C   UNL     1      47.202   7.473  11.740  0.00  0.00    +0.000 A 
ATOM      3  C   UNL     1      48.417   8.096  12.002  0.00  0.00    +0.000 A 
ATOM      4  C   UNL     1      49.136   7.713  13.130  0.00  0.00    +0.000 A 
ATOM      5  N   UNL     1      48.719   6.726  13.963  0.00  0.00    +0.000 NA
ATOM      6  C   UNL     1      47.541   6.129  13.672  0.00  0.00    +0.000 A 
ENDROOT
BRANCH   1   7
ATOM      7  C   UNL     1      45.447   5.744  12.309  0.00  0.00    +0.000 C 
BRANCH   7   8
ATOM      8  N   UNL     1      45.206   5.590  10.872  0.00  0.00    +0.000 NA
ATOM      9  H   UNL     1      44.518   6.275  10.570  0.00  0.00    +0.000 HD
BRANCH   8  10
ATOM     10  C   UNL     1      44.720   4.242  10.508  0.00  0.00    +0.000 C 
BRANCH  10  11
ATOM     11  C   UNL     1      45.434   3.670   9.279  0.00  0.00    +0.000 A 
ATOM     12  C   UNL     1      45.518   2.289   9.093  0.00  0.00    +0.000 A 
ATOM     13  C   UNL     1      46.135   1.801   7.944  0.00  0.00    +0.000 A 
ATOM     14  C   UNL     1      46.637   2.693   7.003  0.00  0.00    +0.000 A 
ATOM     15  C   UNL     1      46.498   4.047   7.251  0.00  0.00    +0.000 A 
ATOM     16  N   UNL     1      45.912   4.549   8.357  0.00  0.00    +0.000 NA
ENDBRANCH  10  11
BRANCH  10  18
ATOM     17  C   UNL     1      43.344   2.713  12.082  0.00  0.00    +0.000 C 
ATOM     18  C   UNL     1      44.719   3.217  11.671  0.00  0.00    +0.000 C 
ENDBRANCH  10  18
ENDBRANCH   8  10
ENDBRANCH   7   8
ENDBRANCH   1   7
BRANCH   4  19
ATOM     19  C   UNL     1      50.456   8.367  13.450  0.00  0.00    +0.000 C 
BRANCH  19  20
ATOM     20  N   UNL     1      51.310   7.501  14.228  0.00  0.00    +0.000 N 
ATOM     21  C   UNL     1      51.556   7.715  15.557  0.00  0.00    +0.000 C 
ATOM     22  O   UNL     1      51.043   8.643  16.176  0.00  0.00    +0.000 OA
ATOM     23  H   UNL     1      51.939   6.914  13.688  0.00  0.00    +0.000 HD
BRANCH  21  24
ATOM     24  C   UNL     1      52.405   6.722  16.228  0.00  0.00    +0.000 A 
ATOM     25  C   UNL     1      53.782   6.895  16.239  0.00  0.00    +0.000 A 
ATOM     26  S   UNL     1      54.617   5.681  17.095  0.00  0.00    +0.000 S 
ATOM     27  C   UNL     1      53.170   4.857  17.446  0.00  0.00    +0.000 A 
ATOM     28  N   UNL     1      53.182   3.691  18.148  0.00  0.00    +0.000 NA
ATOM     29  C   UNL     1      52.017   3.161  18.318  0.00  0.00    +0.000 A 
ATOM     30  N   UNL     1      50.841   3.691  17.855  0.00  0.00    +0.000 N 
ATOM     31  C   UNL     1      50.774   4.891  17.186  0.00  0.00    +0.000 A 
ATOM     32  O   UNL     1      49.701   5.380  16.868  0.00  0.00    +0.000 OA
ATOM     33  C   UNL     1      52.062   5.514  16.939  0.00  0.00    +0.000 A 
ATOM     34  H   UNL     1      49.958   3.241  18.043  0.00  0.00    +0.000 HD
ENDBRANCH  21  24
ENDBRANCH  19  20
ENDBRANCH   4  19
TORSDOF 8
ENDMDL
MODEL 8
REMARK VINA RESULT:    -6.214      2.708      4.252
REMARK INTER + INTRA:         -10.161
REMARK INTER:                  -9.069
REMARK INTRA:                  -1.092
REMARK UNBOUND:                -1.041
REMARK  Name = 
REMARK  9 active torsions:
REMARK  status: ('A' for Active; 'I' for Inactive)
REMARK    1  A    between atoms: C_1  and  C_2
REMARK    2  A    between atoms: C_2  and  C_3
REMARK    3  A    between atoms: C_3  and  N_4
REMARK    4  A    between atoms: C_3  and  C_26
REMARK    5  A    between atoms: N_4  and  C_5
REMARK    6  A    between atoms: C_5  and  C_6
REMARK    7  A    between atoms: C_9  and  C_10
REMARK    8  A    between atoms: C_10  and  N_11
REMARK    9  A    between atoms: C_12  and  C_14
REMARK                            x       y       z     vdW  Elec       q    Type
REMARK                         _______ _______ _______ _____ _____    ______ ____
ROOT
ATOM      1  C   UNL     1      46.992   5.094  13.355  0.00  0.00    +0.000 A 
ATOM      2  C   UNL     1      46.611   4.049  14.200  0.00  0.00    +0.000 A 
ATOM      3  C   UNL     1      47.007   4.055  15.534  0.00  0.00    +0.000 A 
ATOM      4  C   UNL     1      47.800   5.103  15.991  0.00  0.00    +0.000 A 
ATOM      5  N   UNL     1      48.170   6.140  15.199  0.00  0.00    +0.000 NA
ATOM      6  C   UNL     1      47.755   6.113  13.912  0.00  0.00    +0.000 A 
ENDROOT
BRANCH   1   7
ATOM      7  C   UNL     1      46.542   5.138  11.919  0.00  0.00    +0.000 C 
BRANCH   7   8
ATOM      8  N   UNL     1      45.315   5.923  11.752  0.00  0.00    +0.000 NA
ATOM      9  H   UNL     1      44.907   6.109  12.664  0.00  0.00    +0.000 HD
BRANCH   8  10
ATOM     10  C   UNL     1      44.305   5.243  10.914  0.00  0.00    +0.000 C 
BRANCH  10  11
ATOM     11  C   UNL     1      44.933   4.312   9.871  0.00  0.00    +0.000 A 
ATOM     12  C   UNL     1      44.779   2.929   9.978  0.00  0.00    +0.000 A 
ATOM     13  C   UNL     1      45.326   2.113   8.992  0.00  0.00    +0.000 A 
ATOM     14  C   UNL     1      45.996   2.688   7.918  0.00  0.00    +0.000 A 
ATOM     15  C   UNL     1      46.089   4.068   7.873  0.00  0.00    +0.000 A 
ATOM     16  N   UNL     1      45.577   4.883   8.817  0.00  0.00    +0.000 NA
ENDBRANCH  10  11
BRANCH  10  18
ATOM     17  C   UNL     1      43.026   4.960  13.149  0.00  0.00    +0.000 C 
ATOM     18  C   UNL     1      43.191   4.511  11.705  0.00  0.00    +0.000 C 
ENDBRANCH  10  18
ENDBRANCH   8  10
ENDBRANCH   7   8
ENDBRANCH   1   7
BRANCH   4  19
ATOM     19  C   UNL     1      48.253   5.143  17.428  0.00  0.00    +0.000 C 
BRANCH  19  20
ATOM     20  N   UNL     1      49.687   5.276  17.536  0.00  0.00    +0.000 N 
ATOM     21  C   UNL     1      50.535   4.211  17.396  0.00  0.00    +0.000 C 
ATOM     22  O   UNL     1      50.129   3.080  17.145  0.00  0.00    +0.000 OA
ATOM     23  H   UNL     1      50.010   6.118  18.002  0.00  0.00    +0.000 HD
BRANCH  21  24
ATOM     24  C   UNL     1      51.971   4.509  17.481  0.00  0.00    +0.000 A 
ATOM     25  C   UNL     1      52.808   3.645  18.175  0.00  0.00    +0.000 A 
ATOM     26  S   UNL     1      54.448   4.110  18.140  0.00  0.00    +0.000 S 
ATOM     27  C   UNL     1      54.090   5.505  17.234  0.00  0.00    +0.000 A 
ATOM     28  N   UNL     1      55.071   6.379  16.880  0.00  0.00    +0.000 NA
ATOM     29  C   UNL     1      54.655   7.406  16.218  0.00  0.00    +0.000 A 
ATOM     30  N   UNL     1      53.349   7.638  15.874  0.00  0.00    +0.000 N 
ATOM     31  C   UNL     1      52.332   6.759  16.165  0.00  0.00    +0.000 A 
ATOM     32  O   UNL     1      51.194   6.951  15.763  0.00  0.00    +0.000 OA
ATOM     33  C   UNL     1      52.741   5.601  16.939  0.00  0.00    +0.000 A 
ATOM     34  H   UNL     1      53.090   8.449  15.332  0.00  0.00    +0.000 HD
ENDBRANCH  21  24
ENDBRANCH  19  20
ENDBRANCH   4  19
TORSDOF 8
ENDMDL
MODEL 9
REMARK VINA RESULT:    -5.898      3.973      9.521
REMARK INTER + INTRA:          -9.698
REMARK INTER:                  -8.461
REMARK INTRA:                  -1.236
REMARK UNBOUND:                -1.041
REMARK  Name = 
REMARK  9 active torsions:
REMARK  status: ('A' for Active; 'I' for Inactive)
REMARK    1  A    between atoms: C_1  and  C_2
REMARK    2  A    between atoms: C_2  and  C_3
REMARK    3  A    between atoms: C_3  and  N_4
REMARK    4  A    between atoms: C_3  and  C_26
REMARK    5  A    between atoms: N_4  and  C_5
REMARK    6  A    between atoms: C_5  and  C_6
REMARK    7  A    between atoms: C_9  and  C_10
REMARK    8  A    between atoms: C_10  and  N_11
REMARK    9  A    between atoms: C_12  and  C_14
REMARK                            x       y       z     vdW  Elec       q    Type
REMARK                         _______ _______ _______ _____ _____    ______ ____
ROOT
ATOM      1  C   UNL     1      49.957   5.261  17.132  0.00  0.00    +0.000 A 
ATOM      2  C   UNL     1      50.607   6.350  16.545  0.00  0.00    +0.000 A 
ATOM      3  C   UNL     1      50.000   7.040  15.501  0.00  0.00    +0.000 A 
ATOM      4  C   UNL     1      48.756   6.611  15.049  0.00  0.00    +0.000 A 
ATOM      5  N   UNL     1      48.092   5.571  15.613  0.00  0.00    +0.000 NA
ATOM      6  C   UNL     1      48.702   4.931  16.636  0.00  0.00    +0.000 A 
ENDROOT
BRANCH   1   7
ATOM      7  C   UNL     1      50.569   4.523  18.292  0.00  0.00    +0.000 C 
BRANCH   7   8
ATOM      8  N   UNL     1      52.022   4.389  18.153  0.00  0.00    +0.000 NA
ATOM      9  H   UNL     1      52.230   3.677  17.458  0.00  0.00    +0.000 HD
BRANCH   8  10
ATOM     10  C   UNL     1      52.691   4.021  19.420  0.00  0.00    +0.000 C 
BRANCH  10  11
ATOM     11  C   UNL     1      53.552   2.760  19.287  0.00  0.00    +0.000 A 
ATOM     12  C   UNL     1      54.664   2.578  20.109  0.00  0.00    +0.000 A 
ATOM     13  C   UNL     1      55.401   1.402  19.993  0.00  0.00    +0.000 A 
ATOM     14  C   UNL     1      55.007   0.432  19.079  0.00  0.00    +0.000 A 
ATOM     15  C   UNL     1      53.881   0.679  18.313  0.00  0.00    +0.000 A 
ATOM     16  N   UNL     1      53.153   1.811  18.397  0.00  0.00    +0.000 NA
ENDBRANCH  10  11
BRANCH  10  18
ATOM     17  C   UNL     1      54.055   6.203  19.125  0.00  0.00    +0.000 C 
ATOM     18  C   UNL     1      53.493   5.167  20.087  0.00  0.00    +0.000 C 
ENDBRANCH  10  18
ENDBRANCH   8  10
ENDBRANCH   7   8
ENDBRANCH   1   7
BRANCH   4  19
ATOM     19  C   UNL     1      48.068   7.331  13.918  0.00  0.00    +0.000 C 
BRANCH  19  20
ATOM     20  N   UNL     1      47.337   6.421  13.068  0.00  0.00    +0.000 N 
ATOM     21  C   UNL     1      46.436   6.854  12.133  0.00  0.00    +0.000 C 
ATOM     22  O   UNL     1      46.213   8.046  11.943  0.00  0.00    +0.000 OA
ATOM     23  H   UNL     1      47.304   5.459  13.391  0.00  0.00    +0.000 HD
BRANCH  21  24
ATOM     24  C   UNL     1      45.808   5.815  11.307  0.00  0.00    +0.000 A 
ATOM     25  C   UNL     1      45.988   5.833   9.931  0.00  0.00    +0.000 A 
ATOM     26  S   UNL     1      45.232   4.535   9.126  0.00  0.00    +0.000 S 
ATOM     27  C   UNL     1      44.600   3.927  10.584  0.00  0.00    +0.000 A 
ATOM     28  N   UNL     1      43.815   2.815  10.596  0.00  0.00    +0.000 NA
ATOM     29  C   UNL     1      43.383   2.482  11.766  0.00  0.00    +0.000 A 
ATOM     30  N   UNL     1      43.667   3.155  12.926  0.00  0.00    +0.000 N 
ATOM     31  C   UNL     1      44.496   4.251  12.970  0.00  0.00    +0.000 A 
ATOM     32  O   UNL     1      44.802   4.772  14.032  0.00  0.00    +0.000 OA
ATOM     33  C   UNL     1      44.983   4.689  11.674  0.00  0.00    +0.000 A 
ATOM     34  H   UNL     1      43.319   2.828  13.815  0.00  0.00    +0.000 HD
ENDBRANCH  21  24
ENDBRANCH  19  20
ENDBRANCH   4  19
TORSDOF 8
ENDMDL
