MODEL 1
REMARK VINA RESULT:    -7.454      0.000      0.000
REMARK INTER + INTRA:          -9.847
REMARK INTER:                  -9.415
REMARK INTRA:                  -0.432
REMARK UNBOUND:                -0.432
REMARK  Name = 
REMARK  5 active torsions:
REMARK  status: ('A' for Active; 'I' for Inactive)
REMARK    1  A    between atoms: N_1  and  C_2
REMARK    2  A    between atoms: C_2  and  C_3
REMARK    3  A    between atoms: C_6  and  O_7
REMARK    4  A    between atoms: O_7  and  C_8
REMARK    5  A    between atoms: C_8  and  C_9
REMARK                            x       y       z     vdW  Elec       q    Type
REMARK                         _______ _______ _______ _____ _____    ______ ____
ROOT
ATOM      1  C   UNL     1      46.668   2.345   7.635  0.00  0.00    +0.000 A 
ATOM      2  C   UNL     1      46.564   3.731   7.530  0.00  0.00    +0.000 A 
ATOM      3  C   UNL     1      45.560   4.389   8.235  0.00  0.00    +0.000 A 
ATOM      4  C   UNL     1      44.671   3.656   9.015  0.00  0.00    +0.000 A 
ATOM      5  C   UNL     1      44.859   2.277   9.073  0.00  0.00    +0.000 A 
ATOM      6  F   UNL     1      44.050   1.529   9.842  0.00  0.00    +0.000 F 
ATOM      7  N   UNL     1      45.827   1.609   8.403  0.00  0.00    +0.000 NA
ENDROOT
BRANCH   1   8
ATOM      8  C   UNL     1      47.773   1.611   6.904  0.00  0.00    +0.000 C 
BRANCH   8   9
ATOM      9  N   UNL     1      48.657   2.523   6.172  0.00  0.00    +0.000 NA
ATOM     10  H   UNL     1      48.620   2.288   5.182  0.00  0.00    +0.000 HD
ATOM     11  H   UNL     1      49.616   2.334   6.467  0.00  0.00    +0.000 HD
ENDBRANCH   8   9
ENDBRANCH   1   8
BRANCH   4  12
ATOM     12  O   UNL     1      43.724   4.395   9.664  0.00  0.00    +0.000 OA
BRANCH  12  13
ATOM     13  C   UNL     1      43.559   4.119  11.059  0.00  0.00    +0.000 C 
BRANCH  13  14
ATOM     14  C   UNL     1      44.622   4.869  11.828  0.00  0.00    +0.000 A 
ATOM     15  N   UNL     1      44.628   6.229  11.765  0.00  0.00    +0.000 NA
ATOM     16  C   UNL     1      45.610   6.871  12.450  0.00  0.00    +0.000 A 
ATOM     17  C   UNL     1      46.589   6.223  13.189  0.00  0.00    +0.000 A 
ATOM     18 CL   UNL     1      47.806   7.111  14.013  0.00  0.00    +0.000 Cl
ATOM     19  C   UNL     1      46.573   4.836  13.244  0.00  0.00    +0.000 A 
ATOM     20  C   UNL     1      45.580   4.156  12.551  0.00  0.00    +0.000 A 
ATOM     21  F   UNL     1      45.564   2.817  12.579  0.00  0.00    +0.000 F 
ENDBRANCH  13  14
ENDBRANCH  12  13
ENDBRANCH   4  12
TORSDOF 5
ENDMDL
MODEL 2
REMARK VINA RESULT:    -7.365      1.290      1.545
REMARK INTER + INTRA:          -9.735
REMARK INTER:                  -9.444
REMARK INTRA:                  -0.291
REMARK UNBOUND:                -0.432
REMARK  Name = 
REMARK  5 active torsions:
REMARK  status: ('A' for Active; 'I' for Inactive)
REMARK    1  A    between atoms: N_1  and  C_2
REMARK    2  A    between atoms: C_2  and  C_3
REMARK    3  A    between atoms: C_6  and  O_7
REMARK    4  A    between atoms: O_7  and  C_8
REMARK    5  A    between atoms: C_8  and  C_9
REMARK                            x       y       z     vdW  Elec       q    Type
REMARK                         _______ _______ _______ _____ _____    ______ ____
ROOT
ATOM      1  C   UNL     1      46.515   2.313   7.656  0.00  0.00    +0.000 A 
ATOM      2  C   UNL     1      46.417   3.703   7.620  0.00  0.00    +0.000 A 
ATOM      3  C   UNL     1      45.447   4.333   8.395  0.00  0.00    +0.000 A 
ATOM      4  C   UNL     1      44.585   3.570   9.175  0.00  0.00    +0.000 A 
ATOM      5  C   UNL     1      44.763   2.188   9.161  0.00  0.00    +0.000 A 
ATOM      6  F   UNL     1      43.980   1.409   9.926  0.00  0.00    +0.000 F 
ATOM      7  N   UNL     1      45.699   1.546   8.422  0.00  0.00    +0.000 NA
ENDROOT
BRANCH   1   8
ATOM      8  C   UNL     1      47.584   1.607   6.847  0.00  0.00    +0.000 C 
BRANCH   8   9
ATOM      9  N   UNL     1      48.621   2.528   6.374  0.00  0.00    +0.000 NA
ATOM     10  H   UNL     1      49.470   2.367   6.913  0.00  0.00    +0.000 HD
ATOM     11  H   UNL     1      48.324   3.478   6.599  0.00  0.00    +0.000 HD
ENDBRANCH   8   9
ENDBRANCH   1   8
BRANCH   4  12
ATOM     12  O   UNL     1      43.670   4.282   9.896  0.00  0.00    +0.000 OA
BRANCH  12  13
ATOM     13  C   UNL     1      43.518   3.903  11.268  0.00  0.00    +0.000 C 
BRANCH  13  14
ATOM     14  C   UNL     1      44.674   4.474  12.057  0.00  0.00    +0.000 A 
ATOM     15  N   UNL     1      45.478   3.614  12.741  0.00  0.00    +0.000 NA
ATOM     16  C   UNL     1      46.494   4.162  13.457  0.00  0.00    +0.000 A 
ATOM     17  C   UNL     1      46.744   5.525  13.529  0.00  0.00    +0.000 A 
ATOM     18 CL   UNL     1      48.041   6.136  14.472  0.00  0.00    +0.000 Cl
ATOM     19  C   UNL     1      45.915   6.391  12.829  0.00  0.00    +0.000 A 
ATOM     20  C   UNL     1      44.868   5.855  12.090  0.00  0.00    +0.000 A 
ATOM     21  F   UNL     1      44.050   6.682  11.424  0.00  0.00    +0.000 F 
ENDBRANCH  13  14
ENDBRANCH  12  13
ENDBRANCH   4  12
TORSDOF 5
ENDMDL
MODEL 3
REMARK VINA RESULT:    -7.334      2.904      5.587
REMARK INTER + INTRA:          -9.696
REMARK INTER:                  -9.297
REMARK INTRA:                  -0.399
REMARK UNBOUND:                -0.432
REMARK  Name = 
REMARK  5 active torsions:
REMARK  status: ('A' for Active; 'I' for Inactive)
REMARK    1  A    between atoms: N_1  and  C_2
REMARK    2  A    between atoms: C_2  and  C_3
REMARK    3  A    between atoms: C_6  and  O_7
REMARK    4  A    between atoms: O_7  and  C_8
REMARK    5  A    between atoms: C_8  and  C_9
REMARK                            x       y       z     vdW  Elec       q    Type
REMARK                         _______ _______ _______ _____ _____    ______ ____
ROOT
ATOM      1  C   UNL     1      46.502   4.685  14.148  0.00  0.00    +0.000 A 
ATOM      2  C   UNL     1      47.125   5.487  13.193  0.00  0.00    +0.000 A 
ATOM      3  C   UNL     1      46.413   5.861  12.057  0.00  0.00    +0.000 A 
ATOM      4  C   UNL     1      45.106   5.418  11.884  0.00  0.00    +0.000 A 
ATOM      5  C   UNL     1      44.558   4.633  12.896  0.00  0.00    +0.000 A 
ATOM      6  F   UNL     1      43.286   4.211  12.795  0.00  0.00    +0.000 F 
ATOM      7  N   UNL     1      45.222   4.256  14.014  0.00  0.00    +0.000 NA
ENDROOT
BRANCH   1   8
ATOM      8  C   UNL     1      47.244   4.293  15.409  0.00  0.00    +0.000 C 
BRANCH   8   9
ATOM      9  N   UNL     1      47.828   2.952  15.316  0.00  0.00    +0.000 NA
ATOM     10  H   UNL     1      47.577   2.428  16.152  0.00  0.00    +0.000 HD
ATOM     11  H   UNL     1      48.844   3.049  15.343  0.00  0.00    +0.000 HD
ENDBRANCH   8   9
ENDBRANCH   1   8
BRANCH   4  12
ATOM     12  O   UNL     1      44.497   5.840  10.736  0.00  0.00    +0.000 OA
BRANCH  12  13
ATOM     13  C   UNL     1      43.750   4.850  10.022  0.00  0.00    +0.000 C 
BRANCH  13  14
ATOM     14  C   UNL     1      44.714   3.993   9.234  0.00  0.00    +0.000 A 
ATOM     15  N   UNL     1      45.519   4.599   8.318  0.00  0.00    +0.000 NA
ATOM     16  C   UNL     1      46.358   3.797   7.613  0.00  0.00    +0.000 A 
ATOM     17  C   UNL     1      46.429   2.420   7.772  0.00  0.00    +0.000 A 
ATOM     18 CL   UNL     1      47.508   1.477   6.827  0.00  0.00    +0.000 Cl
ATOM     19  C   UNL     1      45.602   1.815   8.707  0.00  0.00    +0.000 A 
ATOM     20  C   UNL     1      44.734   2.613   9.441  0.00  0.00    +0.000 A 
ATOM     21  F   UNL     1      43.916   2.039  10.334  0.00  0.00    +0.000 F 
ENDBRANCH  13  14
ENDBRANCH  12  13
ENDBRANCH   4  12
TORSDOF 5
ENDMDL
MODEL 4
REMARK VINA RESULT:    -6.914      2.746      5.974
REMARK INTER + INTRA:          -9.165
REMARK INTER:                  -8.700
REMARK INTRA:                  -0.464
REMARK UNBOUND:                -0.432
REMARK  Name = 
REMARK  5 active torsions:
REMARK  status: ('A' for Active; 'I' for Inactive)
REMARK    1  A    between atoms: N_1  and  C_2
REMARK    2  A    between atoms: C_2  and  C_3
REMARK    3  A    between atoms: C_6  and  O_7
REMARK    4  A    between atoms: O_7  and  C_8
REMARK    5  A    between atoms: C_8  and  C_9
REMARK                            x       y       z     vdW  Elec       q    Type
REMARK                         _______ _______ _______ _____ _____    ______ ____
ROOT
ATOM      1  C   UNL     1      46.202   7.671  12.755  0.00  0.00    +0.000 A 
ATOM      2  C   UNL     1      45.172   7.784  11.824  0.00  0.00    +0.000 A 
ATOM      3  C   UNL     1      44.525   6.631  11.388  0.00  0.00    +0.000 A 
ATOM      4  C   UNL     1      44.925   5.391  11.873  0.00  0.00    +0.000 A 
ATOM      5  C   UNL     1      45.953   5.373  12.813  0.00  0.00    +0.000 A 
ATOM      6  F   UNL     1      46.350   4.203  13.341  0.00  0.00    +0.000 F 
ATOM      7  N   UNL     1      46.599   6.476  13.259  0.00  0.00    +0.000 NA
ENDROOT
BRANCH   1   8
ATOM      8  C   UNL     1      46.899   8.914  13.269  0.00  0.00    +0.000 C 
BRANCH   8   9
ATOM      9  N   UNL     1      47.150   8.855  14.712  0.00  0.00    +0.000 NA
ATOM     10  H   UNL     1      46.310   9.159  15.202  0.00  0.00    +0.000 HD
ATOM     11  H   UNL     1      47.867   9.546  14.935  0.00  0.00    +0.000 HD
ENDBRANCH   8   9
ENDBRANCH   1   8
BRANCH   4  12
ATOM     12  O   UNL     1      44.227   4.323  11.383  0.00  0.00    +0.000 OA
BRANCH  12  13
ATOM     13  C   UNL     1      43.801   4.423  10.020  0.00  0.00    +0.000 C 
BRANCH  13  14
ATOM     14  C   UNL     1      44.841   3.769   9.140  0.00  0.00    +0.000 A 
ATOM     15  N   UNL     1      45.621   4.567   8.359  0.00  0.00    +0.000 NA
ATOM     16  C   UNL     1      46.531   3.946   7.565  0.00  0.00    +0.000 A 
ATOM     17  C   UNL     1      46.696   2.569   7.506  0.00  0.00    +0.000 A 
ATOM     18 CL   UNL     1      47.860   1.863   6.460  0.00  0.00    +0.000 Cl
ATOM     19  C   UNL     1      45.893   1.768   8.305  0.00  0.00    +0.000 A 
ATOM     20  C   UNL     1      44.954   2.379   9.126  0.00  0.00    +0.000 A 
ATOM     21  F   UNL     1      44.159   1.616   9.889  0.00  0.00    +0.000 F 
ENDBRANCH  13  14
ENDBRANCH  12  13
ENDBRANCH   4  12
TORSDOF 5
ENDMDL
MODEL 5
REMARK VINA RESULT:    -5.925      4.144      5.726
REMARK INTER + INTRA:          -7.916
REMARK INTER:                  -7.267
REMARK INTRA:                  -0.649
REMARK UNBOUND:                -0.432
REMARK  Name = 
REMARK  5 active torsions:
REMARK  status: ('A' for Active; 'I' for Inactive)
REMARK    1  A    between atoms: N_1  and  C_2
REMARK    2  A    between atoms: C_2  and  C_3
REMARK    3  A    between atoms: C_6  and  O_7
REMARK    4  A    between atoms: O_7  and  C_8
REMARK    5  A    between atoms: C_8  and  C_9
REMARK                            x       y       z     vdW  Elec       q    Type
REMARK                         _______ _______ _______ _____ _____    ______ ____
ROOT
ATOM      1  C   UNL     1      44.557   4.149  11.997  0.00  0.00    +0.000 A 
ATOM      2  C   UNL     1      44.951   5.445  11.665  0.00  0.00    +0.000 A 
ATOM      3  C   UNL     1      46.154   5.934  12.166  0.00  0.00    +0.000 A 
ATOM      4  C   UNL     1      46.932   5.135  12.998  0.00  0.00    +0.000 A 
ATOM      5  C   UNL     1      46.468   3.848  13.265  0.00  0.00    +0.000 A 
ATOM      6  F   UNL     1      47.200   3.024  14.032  0.00  0.00    +0.000 F 
ATOM      7  N   UNL     1      45.305   3.342  12.790  0.00  0.00    +0.000 NA
ENDROOT
BRANCH   1   8
ATOM      8  C   UNL     1      43.268   3.583  11.437  0.00  0.00    +0.000 C 
BRANCH   8   9
ATOM      9  N   UNL     1      43.111   2.157  11.737  0.00  0.00    +0.000 NA
ATOM     10  H   UNL     1      43.755   1.628  11.152  0.00  0.00    +0.000 HD
ATOM     11  H   UNL     1      42.175   1.876  11.444  0.00  0.00    +0.000 HD
ENDBRANCH   8   9
ENDBRANCH   1   8
BRANCH   4  12
ATOM     12  O   UNL     1      48.091   5.707  13.436  0.00  0.00    +0.000 OA
BRANCH  12  13
ATOM     13  C   UNL     1      47.969   6.606  14.544  0.00  0.00    +0.000 C 
BRANCH  13  14
ATOM     14  C   UNL     1      48.820   6.088  15.681  0.00  0.00    +0.000 A 
ATOM     15  N   UNL     1      50.103   6.532  15.783  0.00  0.00    +0.000 NA
ATOM     16  C   UNL     1      50.846   6.031  16.803  0.00  0.00    +0.000 A 
ATOM     17  C   UNL     1      50.375   5.104  17.723  0.00  0.00    +0.000 A 
ATOM     18 CL   UNL     1      51.387   4.508  18.974  0.00  0.00    +0.000 Cl
ATOM     19  C   UNL     1      49.066   4.658  17.606  0.00  0.00    +0.000 A 
ATOM     20  C   UNL     1      48.285   5.155  16.570  0.00  0.00    +0.000 A 
ATOM     21  F   UNL     1      47.025   4.719  16.435  0.00  0.00    +0.000 F 
ENDBRANCH  13  14
ENDBRANCH  12  13
ENDBRANCH   4  12
TORSDOF 5
ENDMDL
MODEL 6
REMARK VINA RESULT:    -5.650      4.026      5.708
REMARK INTER + INTRA:          -7.569
REMARK INTER:                  -7.060
REMARK INTRA:                  -0.509
REMARK UNBOUND:                -0.432
REMARK  Name = 
REMARK  5 active torsions:
REMARK  status: ('A' for Active; 'I' for Inactive)
REMARK    1  A    between atoms: N_1  and  C_2
REMARK    2  A    between atoms: C_2  and  C_3
REMARK    3  A    between atoms: C_6  and  O_7
REMARK    4  A    between atoms: O_7  and  C_8
REMARK    5  A    between atoms: C_8  and  C_9
REMARK                            x       y       z     vdW  Elec       q    Type
REMARK                         _______ _______ _______ _____ _____    ______ ____
ROOT
ATOM      1  C   UNL     1      44.786   4.007  11.878  0.00  0.00    +0.000 A 
ATOM      2  C   UNL     1      45.101   5.347  11.661  0.00  0.00    +0.000 A 
ATOM      3  C   UNL     1      46.179   5.906  12.342  0.00  0.00    +0.000 A 
ATOM      4  C   UNL     1      46.909   5.130  13.235  0.00  0.00    +0.000 A 
ATOM      5  C   UNL     1      46.532   3.796  13.379  0.00  0.00    +0.000 A 
ATOM      6  F   UNL     1      47.229   2.994  14.201  0.00  0.00    +0.000 F 
ATOM      7  N   UNL     1      45.493   3.222  12.729  0.00  0.00    +0.000 NA
ENDROOT
BRANCH   1   8
ATOM      8  C   UNL     1      43.638   3.367  11.124  0.00  0.00    +0.000 C 
BRANCH   8   9
ATOM      9  N   UNL     1      43.113   2.183  11.810  0.00  0.00    +0.000 NA
ATOM     10  H   UNL     1      42.689   1.567  11.119  0.00  0.00    +0.000 HD
ATOM     11  H   UNL     1      42.352   2.485  12.419  0.00  0.00    +0.000 HD
ENDBRANCH   8   9
ENDBRANCH   1   8
BRANCH   4  12
ATOM     12  O   UNL     1      47.944   5.772  13.852  0.00  0.00    +0.000 OA
BRANCH  12  13
ATOM     13  C   UNL     1      47.945   7.200  13.755  0.00  0.00    +0.000 C 
BRANCH  13  14
ATOM     14  C   UNL     1      49.314   7.653  13.302  0.00  0.00    +0.000 A 
ATOM     15  N   UNL     1      50.242   7.953  14.253  0.00  0.00    +0.000 NA
ATOM     16  C   UNL     1      51.455   8.377  13.812  0.00  0.00    +0.000 A 
ATOM     17  C   UNL     1      51.786   8.522  12.472  0.00  0.00    +0.000 A 
ATOM     18 CL   UNL     1      53.339   9.081  12.001  0.00  0.00    +0.000 Cl
ATOM     19  C   UNL     1      50.829   8.215  11.514  0.00  0.00    +0.000 A 
ATOM     20  C   UNL     1      49.581   7.780  11.939  0.00  0.00    +0.000 A 
ATOM     21  F   UNL     1      48.642   7.497  11.025  0.00  0.00    +0.000 F 
ENDBRANCH  13  14
ENDBRANCH  12  13
ENDBRANCH   4  12
TORSDOF 5
ENDMDL
MODEL 7
REMARK VINA RESULT:    -5.645      4.594      6.337
REMARK INTER + INTRA:          -7.562
REMARK INTER:                  -7.154
REMARK INTRA:                  -0.408
REMARK UNBOUND:                -0.432
REMARK  Name = 
REMARK  5 active torsions:
REMARK  status: ('A' for Active; 'I' for Inactive)
REMARK    1  A    between atoms: N_1  and  C_2
REMARK    2  A    between atoms: C_2  and  C_3
REMARK    3  A    between atoms: C_6  and  O_7
REMARK    4  A    between atoms: O_7  and  C_8
REMARK    5  A    between atoms: C_8  and  C_9
REMARK                            x       y       z     vdW  Elec       q    Type
REMARK                         _______ _______ _______ _____ _____    ______ ____
ROOT
ATOM      1  C   UNL     1      45.088   4.277  11.580  0.00  0.00    +0.000 A 
ATOM      2  C   UNL     1      45.543   3.185  12.318  0.00  0.00    +0.000 A 
ATOM      3  C   UNL     1      46.357   3.410  13.425  0.00  0.00    +0.000 A 
ATOM      4  C   UNL     1      46.717   4.710  13.765  0.00  0.00    +0.000 A 
ATOM      5  C   UNL     1      46.204   5.741  12.980  0.00  0.00    +0.000 A 
ATOM      6  F   UNL     1      46.491   7.016  13.289  0.00  0.00    +0.000 F 
ATOM      7  N   UNL     1      45.407   5.555  11.901  0.00  0.00    +0.000 NA
ENDROOT
BRANCH   1   8
ATOM      8  C   UNL     1      44.173   4.059  10.392  0.00  0.00    +0.000 C 
BRANCH   8   9
ATOM      9  N   UNL     1      43.376   5.249  10.080  0.00  0.00    +0.000 NA
ATOM     10  H   UNL     1      43.689   6.016  10.673  0.00  0.00    +0.000 HD
ATOM     11  H   UNL     1      42.411   5.061  10.355  0.00  0.00    +0.000 HD
ENDBRANCH   8   9
ENDBRANCH   1   8
BRANCH   4  12
ATOM     12  O   UNL     1      47.518   4.822  14.864  0.00  0.00    +0.000 OA
BRANCH  12  13
ATOM     13  C   UNL     1      47.253   3.905  15.931  0.00  0.00    +0.000 C 
BRANCH  13  14
ATOM     14  C   UNL     1      48.571   3.388  16.461  0.00  0.00    +0.000 A 
ATOM     15  N   UNL     1      48.992   2.157  16.059  0.00  0.00    +0.000 NA
ATOM     16  C   UNL     1      50.169   1.714  16.571  0.00  0.00    +0.000 A 
ATOM     17  C   UNL     1      50.944   2.434  17.468  0.00  0.00    +0.000 A 
ATOM     18 CL   UNL     1      52.413   1.792  18.081  0.00  0.00    +0.000 Cl
ATOM     19  C   UNL     1      50.502   3.687  17.872  0.00  0.00    +0.000 A 
ATOM     20  C   UNL     1      49.301   4.163  17.363  0.00  0.00    +0.000 A 
ATOM     21  F   UNL     1      48.854   5.362  17.759  0.00  0.00    +0.000 F 
ENDBRANCH  13  14
ENDBRANCH  12  13
ENDBRANCH   4  12
TORSDOF 5
ENDMDL
MODEL 8
REMARK VINA RESULT:    -5.585      4.850      6.809
REMARK INTER + INTRA:          -7.486
REMARK INTER:                  -6.993
REMARK INTRA:                  -0.493
REMARK UNBOUND:                -0.432
REMARK  Name = 
REMARK  5 active torsions:
REMARK  status: ('A' for Active; 'I' for Inactive)
REMARK    1  A    between atoms: N_1  and  C_2
REMARK    2  A    between atoms: C_2  and  C_3
REMARK    3  A    between atoms: C_6  and  O_7
REMARK    4  A    between atoms: O_7  and  C_8
REMARK    5  A    between atoms: C_8  and  C_9
REMARK                            x       y       z     vdW  Elec       q    Type
REMARK                         _______ _______ _______ _____ _____    ______ ____
ROOT
ATOM      1  C   UNL     1      45.737   7.014  12.654  0.00  0.00    +0.000 A 
ATOM      2  C   UNL     1      47.007   7.035  13.228  0.00  0.00    +0.000 A 
ATOM      3  C   UNL     1      47.471   5.898  13.884  0.00  0.00    +0.000 A 
ATOM      4  C   UNL     1      46.660   4.772  13.972  0.00  0.00    +0.000 A 
ATOM      5  C   UNL     1      45.411   4.834  13.357  0.00  0.00    +0.000 A 
ATOM      6  F   UNL     1      44.605   3.760  13.380  0.00  0.00    +0.000 F 
ATOM      7  N   UNL     1      44.933   5.923  12.708  0.00  0.00    +0.000 NA
ENDROOT
BRANCH   1   8
ATOM      8  C   UNL     1      45.223   8.226  11.906  0.00  0.00    +0.000 C 
BRANCH   8   9
ATOM      9  N   UNL     1      44.998   9.372  12.792  0.00  0.00    +0.000 NA
ATOM     10  H   UNL     1      44.290   9.119  13.479  0.00  0.00    +0.000 HD
ATOM     11  H   UNL     1      44.590  10.124  12.236  0.00  0.00    +0.000 HD
ENDBRANCH   8   9
ENDBRANCH   1   8
BRANCH   4  12
ATOM     12  O   UNL     1      47.207   3.712  14.636  0.00  0.00    +0.000 OA
BRANCH  12  13
ATOM     13  C   UNL     1      47.161   3.774  16.066  0.00  0.00    +0.000 C 
BRANCH  13  14
ATOM     14  C   UNL     1      48.551   3.528  16.605  0.00  0.00    +0.000 A 
ATOM     15  N   UNL     1      49.065   2.270  16.518  0.00  0.00    +0.000 NA
ATOM     16  C   UNL     1      50.308   2.079  17.031  0.00  0.00    +0.000 A 
ATOM     17  C   UNL     1      51.060   3.079  17.632  0.00  0.00    +0.000 A 
ATOM     18 CL   UNL     1      52.619   2.748  18.272  0.00  0.00    +0.000 Cl
ATOM     19  C   UNL     1      50.523   4.356  17.716  0.00  0.00    +0.000 A 
ATOM     20  C   UNL     1      49.253   4.577  17.199  0.00  0.00    +0.000 A 
ATOM     21  F   UNL     1      48.715   5.801  17.290  0.00  0.00    +0.000 F 
ENDBRANCH  13  14
ENDBRANCH  12  13
ENDBRANCH   4  12
TORSDOF 5
ENDMDL
MODEL 9
REMARK VINA RESULT:    -5.450      4.490      6.277
REMARK INTER + INTRA:          -7.316
REMARK INTER:                  -6.930
REMARK INTRA:                  -0.386
REMARK UNBOUND:                -0.432
REMARK  Name = 
REMARK  5 active torsions:
REMARK  status: ('A' for Active; 'I' for Inactive)
REMARK    1  A    between atoms: N_1  and  C_2
REMARK    2  A    between atoms: C_2  and  C_3
REMARK    3  A    between atoms: C_6  and  O_7
REMARK    4  A    between atoms: O_7  and  C_8
REMARK    5  A    between atoms: C_8  and  C_9
REMARK                            x       y       z     vdW  Elec       q    Type
REMARK                         _______ _______ _______ _____ _____    ______ ____
ROOT
ATOM      1  C   UNL     1      45.315   7.507  12.096  0.00  0.00    +0.000 A 
ATOM      2  C   UNL     1      46.461   7.861  12.804  0.00  0.00    +0.000 A 
ATOM      3  C   UNL     1      47.189   6.868  13.454  0.00  0.00    +0.000 A 
ATOM      4  C   UNL     1      46.755   5.547  13.400  0.00  0.00    +0.000 A 
ATOM      5  C   UNL     1      45.607   5.282  12.656  0.00  0.00    +0.000 A 
ATOM      6  F   UNL     1      45.167   4.017  12.542  0.00  0.00    +0.000 F 
ATOM      7  N   UNL     1      44.880   6.225  12.011  0.00  0.00    +0.000 NA
ENDROOT
BRANCH   1   8
ATOM      8  C   UNL     1      44.525   8.565  11.354  0.00  0.00    +0.000 C 
BRANCH   8   9
ATOM      9  N   UNL     1      43.189   8.097  10.973  0.00  0.00    +0.000 NA
ATOM     10  H   UNL     1      43.282   7.207  10.486  0.00  0.00    +0.000 HD
ATOM     11  H   UNL     1      42.811   8.751  10.287  0.00  0.00    +0.000 HD
ENDBRANCH   8   9
ENDBRANCH   1   8
BRANCH   4  12
ATOM     12  O   UNL     1      47.538   4.651  14.069  0.00  0.00    +0.000 OA
BRANCH  12  13
ATOM     13  C   UNL     1      46.961   4.066  15.242  0.00  0.00    +0.000 C 
BRANCH  13  14
ATOM     14  C   UNL     1      47.909   4.276  16.401  0.00  0.00    +0.000 A 
ATOM     15  N   UNL     1      48.891   5.210  16.273  0.00  0.00    +0.000 NA
ATOM     16  C   UNL     1      49.737   5.358  17.324  0.00  0.00    +0.000 A 
ATOM     17  C   UNL     1      49.657   4.616  18.494  0.00  0.00    +0.000 A 
ATOM     18 CL   UNL     1      50.780   4.854  19.771  0.00  0.00    +0.000 Cl
ATOM     19  C   UNL     1      48.652   3.665  18.611  0.00  0.00    +0.000 A 
ATOM     20  C   UNL     1      47.774   3.494  17.549  0.00  0.00    +0.000 A 
ATOM     21  F   UNL     1      46.811   2.567  17.641  0.00  0.00    +0.000 F 
ENDBRANCH  13  14
ENDBRANCH  12  13
ENDBRANCH   4  12
TORSDOF 5
ENDMDL
