MODEL 1
REMARK VINA RESULT:    -8.346      0.000      0.000
REMARK INTER + INTRA:         -11.887
REMARK INTER:                 -11.518
REMARK INTRA:                  -0.369
REMARK UNBOUND:                -0.369
REMARK  Name = 
REMARK  7 active torsions:
REMARK  status: ('A' for Active; 'I' for Inactive)
REMARK    1  A    between atoms: N_1  and  C_2
REMARK    2  A    between atoms: C_2  and  C_3
REMARK    3  A    between atoms: C_4  and  C_5
REMARK    4  A    between atoms: C_8  and  O_9
REMARK    5  A    between atoms: O_9  and  C_10
REMARK    6  A    between atoms: C_10  and  C_11
REMARK    7  A    between atoms: C_15  and  C_16
REMARK                            x       y       z     vdW  Elec       q    Type
REMARK                         _______ _______ _______ _____ _____    ______ ____
ROOT
ATOM      1  O   UNL     1      43.867   3.536  11.561  0.00  0.00    +0.000 OA
ENDROOT
BRANCH   1   5
ATOM      2  C   UNL     1      46.877   5.039  13.940  0.00  0.00    +0.000 A 
ATOM      3  C   UNL     1      45.932   5.904  13.388  0.00  0.00    +0.000 A 
ATOM      4  C   UNL     1      44.921   5.390  12.577  0.00  0.00    +0.000 A 
ATOM      5  C   UNL     1      44.880   4.022  12.363  0.00  0.00    +0.000 A 
ATOM      6  N   UNL     1      45.789   3.158  12.863  0.00  0.00    +0.000 NA
ATOM      7  C   UNL     1      46.768   3.686  13.635  0.00  0.00    +0.000 A 
BRANCH   2   9
ATOM      8  C   UNL     1      48.025   5.184  16.128  0.00  0.00    +0.000 C 
ATOM      9  C   UNL     1      47.917   5.535  14.836  0.00  0.00    +0.000 C 
BRANCH   8  10
ATOM     10  C   UNL     1      47.168   4.222  16.889  0.00  0.00    +0.000 C 
BRANCH  10  11
ATOM     11  N   UNL     1      46.678   4.856  18.104  0.00  0.00    +0.000 NA
ATOM     12  H   UNL     1      46.154   5.691  17.848  0.00  0.00    +0.000 HD
ATOM     13  H   UNL     1      47.477   5.187  18.642  0.00  0.00    +0.000 HD
ENDBRANCH  10  11
ENDBRANCH   8  10
ENDBRANCH   2   9
ENDBRANCH   1   5
BRANCH   1  14
ATOM     14  C   UNL     1      43.779   4.262  10.329  0.00  0.00    +0.000 C 
BRANCH  14  15
ATOM     15  C   UNL     1      44.769   3.698   9.341  0.00  0.00    +0.000 A 
ATOM     16  C   UNL     1      44.985   2.331   9.244  0.00  0.00    +0.000 A 
ATOM     17  C   UNL     1      45.900   1.867   8.309  0.00  0.00    +0.000 A 
ATOM     18  F   UNL     1      46.113   0.547   8.223  0.00  0.00    +0.000 F 
ATOM     19  C   UNL     1      46.559   2.776   7.506  0.00  0.00    +0.000 A 
ATOM     20  N   UNL     1      46.324   4.109   7.606  0.00  0.00    +0.000 NA
ATOM     21  N   UNL     1      45.421   4.569   8.531  0.00  0.00    +0.000 NA
BRANCH  19  22
ATOM     22  C   UNL     1      47.569   2.357   6.497  0.00  0.00    +0.000 C 
ATOM     23  N   UNL     1      47.558   3.053   5.313  0.00  0.00    +0.000 N 
ATOM     24  O   UNL     1      48.376   1.457   6.681  0.00  0.00    +0.000 OA
ATOM     25  H   UNL     1      46.898   3.805   5.148  0.00  0.00    +0.000 HD
ATOM     26  H   UNL     1      48.236   2.816   4.602  0.00  0.00    +0.000 HD
ENDBRANCH  19  22
ENDBRANCH  14  15
ENDBRANCH   1  14
TORSDOF 7
ENDMDL
MODEL 2
REMARK VINA RESULT:    -7.974      1.926      2.574
REMARK INTER + INTRA:         -11.373
REMARK INTER:                 -10.688
REMARK INTRA:                  -0.684
REMARK UNBOUND:                -0.369
REMARK  Name = 
REMARK  7 active torsions:
REMARK  status: ('A' for Active; 'I' for Inactive)
REMARK    1  A    between atoms: N_1  and  C_2
REMARK    2  A    between atoms: C_2  and  C_3
REMARK    3  A    between atoms: C_4  and  C_5
REMARK    4  A    between atoms: C_8  and  O_9
REMARK    5  A    between atoms: O_9  and  C_10
REMARK    6  A    between atoms: C_10  and  C_11
REMARK    7  A    between atoms: C_15  and  C_16
REMARK                            x       y       z     vdW  Elec       q    Type
REMARK                         _______ _______ _______ _____ _____    ______ ____
ROOT
ATOM      1  O   UNL     1      43.996   4.118  11.574  0.00  0.00    +0.000 OA
ENDROOT
BRANCH   1   5
ATOM      2  C   UNL     1      47.049   6.056  13.549  0.00  0.00    +0.000 A 
ATOM      3  C   UNL     1      46.982   4.663  13.571  0.00  0.00    +0.000 A 
ATOM      4  C   UNL     1      45.942   4.014  12.908  0.00  0.00    +0.000 A 
ATOM      5  C   UNL     1      45.013   4.784  12.227  0.00  0.00    +0.000 A 
ATOM      6  N   UNL     1      45.033   6.134  12.202  0.00  0.00    +0.000 NA
ATOM      7  C   UNL     1      46.046   6.738  12.866  0.00  0.00    +0.000 A 
BRANCH   2   9
ATOM      8  C   UNL     1      49.187   7.304  13.518  0.00  0.00    +0.000 C 
ATOM      9  C   UNL     1      48.152   6.767  14.187  0.00  0.00    +0.000 C 
BRANCH   8  10
ATOM     10  C   UNL     1      49.406   7.327  12.038  0.00  0.00    +0.000 C 
BRANCH  10  11
ATOM     11  N   UNL     1      50.829   7.422  11.754  0.00  0.00    +0.000 NA
ATOM     12  H   UNL     1      51.324   7.607  12.625  0.00  0.00    +0.000 HD
ATOM     13  H   UNL     1      50.989   8.241  11.168  0.00  0.00    +0.000 HD
ENDBRANCH  10  11
ENDBRANCH   8  10
ENDBRANCH   2   9
ENDBRANCH   1   5
BRANCH   1  14
ATOM     14  C   UNL     1      43.796   4.634  10.252  0.00  0.00    +0.000 C 
BRANCH  14  15
ATOM     15  C   UNL     1      44.762   3.972   9.302  0.00  0.00    +0.000 A 
ATOM     16  C   UNL     1      44.881   2.590   9.247  0.00  0.00    +0.000 A 
ATOM     17  C   UNL     1      45.779   2.035   8.346  0.00  0.00    +0.000 A 
ATOM     18  F   UNL     1      45.897   0.701   8.301  0.00  0.00    +0.000 F 
ATOM     19  C   UNL     1      46.518   2.871   7.534  0.00  0.00    +0.000 A 
ATOM     20  N   UNL     1      46.379   4.219   7.592  0.00  0.00    +0.000 NA
ATOM     21  N   UNL     1      45.493   4.769   8.484  0.00  0.00    +0.000 NA
BRANCH  19  22
ATOM     22  C   UNL     1      47.516   2.351   6.560  0.00  0.00    +0.000 C 
ATOM     23  N   UNL     1      47.488   2.923   5.311  0.00  0.00    +0.000 N 
ATOM     24  O   UNL     1      48.327   1.475   6.824  0.00  0.00    +0.000 OA
ATOM     25  H   UNL     1      46.824   3.653   5.078  0.00  0.00    +0.000 HD
ATOM     26  H   UNL     1      48.157   2.614   4.619  0.00  0.00    +0.000 HD
ENDBRANCH  19  22
ENDBRANCH  14  15
ENDBRANCH   1  14
TORSDOF 7
ENDMDL
MODEL 3
REMARK VINA RESULT:    -7.686      4.543      8.289
REMARK INTER + INTRA:         -10.976
REMARK INTER:                 -10.386
REMARK INTRA:                  -0.590
REMARK UNBOUND:                -0.369
REMARK  Name = 
REMARK  7 active torsions:
REMARK  status: ('A' for Active; 'I' for Inactive)
REMARK    1  A    between atoms: N_1  and  C_2
REMARK    2  A    between atoms: C_2  and  C_3
REMARK    3  A    between atoms: C_4  and  C_5
REMARK    4  A    between atoms: C_8  and  O_9
REMARK    5  A    between atoms: O_9  and  C_10
REMARK    6  A    between atoms: C_10  and  C_11
REMARK    7  A    between atoms: C_15  and  C_16
REMARK                            x       y       z     vdW  Elec       q    Type
REMARK                         _______ _______ _______ _____ _____    ______ ____
ROOT
ATOM      1  O   UNL     1      47.503   4.967  14.721  0.00  0.00    +0.000 OA
ENDROOT
BRANCH   1   5
ATOM      2  C   UNL     1      44.730   4.422  11.723  0.00  0.00    +0.000 A 
ATOM      3  C   UNL     1      45.114   5.712  12.086  0.00  0.00    +0.000 A 
ATOM      4  C   UNL     1      46.046   5.890  13.108  0.00  0.00    +0.000 A 
ATOM      5  C   UNL     1      46.578   4.766  13.717  0.00  0.00    +0.000 A 
ATOM      6  N   UNL     1      46.214   3.503  13.406  0.00  0.00    +0.000 NA
ATOM      7  C   UNL     1      45.297   3.360  12.421  0.00  0.00    +0.000 A 
BRANCH   2   9
ATOM      8  C   UNL     1      44.171   4.000   9.348  0.00  0.00    +0.000 C 
ATOM      9  C   UNL     1      43.797   4.197  10.623  0.00  0.00    +0.000 C 
BRANCH   8  10
ATOM     10  C   UNL     1      45.564   3.933   8.805  0.00  0.00    +0.000 C 
BRANCH  10  11
ATOM     11  N   UNL     1      46.031   5.272   8.482  0.00  0.00    +0.000 NA
ATOM     12  H   UNL     1      45.961   5.852   9.317  0.00  0.00    +0.000 HD
ATOM     13  H   UNL     1      45.390   5.686   7.806  0.00  0.00    +0.000 HD
ENDBRANCH  10  11
ENDBRANCH   8  10
ENDBRANCH   2   9
ENDBRANCH   1   5
BRANCH   1  14
ATOM     14  C   UNL     1      47.193   4.188  15.883  0.00  0.00    +0.000 C 
BRANCH  14  15
ATOM     15  C   UNL     1      48.446   3.516  16.387  0.00  0.00    +0.000 A 
ATOM     16  C   UNL     1      49.214   4.091  17.389  0.00  0.00    +0.000 A 
ATOM     17  C   UNL     1      50.352   3.423  17.821  0.00  0.00    +0.000 A 
ATOM     18  F   UNL     1      51.096   3.984  18.784  0.00  0.00    +0.000 F 
ATOM     19  C   UNL     1      50.678   2.211  17.246  0.00  0.00    +0.000 A 
ATOM     20  N   UNL     1      49.906   1.658  16.277  0.00  0.00    +0.000 NA
ATOM     21  N   UNL     1      48.783   2.319  15.847  0.00  0.00    +0.000 NA
BRANCH  19  22
ATOM     22  C   UNL     1      51.893   1.447  17.641  0.00  0.00    +0.000 C 
ATOM     23  N   UNL     1      51.676   0.166  18.084  0.00  0.00    +0.000 N 
ATOM     24  O   UNL     1      53.026   1.901  17.581  0.00  0.00    +0.000 OA
ATOM     25  H   UNL     1      50.742  -0.226  18.136  0.00  0.00    +0.000 HD
ATOM     26  H   UNL     1      52.472  -0.399  18.350  0.00  0.00    +0.000 HD
ENDBRANCH  19  22
ENDBRANCH  14  15
ENDBRANCH   1  14
TORSDOF 7
ENDMDL
MODEL 4
REMARK VINA RESULT:    -7.601      2.796      7.069
REMARK INTER + INTRA:         -10.858
REMARK INTER:                 -10.784
REMARK INTRA:                  -0.075
REMARK UNBOUND:                -0.369
REMARK  Name = 
REMARK  7 active torsions:
REMARK  status: ('A' for Active; 'I' for Inactive)
REMARK    1  A    between atoms: N_1  and  C_2
REMARK    2  A    between atoms: C_2  and  C_3
REMARK    3  A    between atoms: C_4  and  C_5
REMARK    4  A    between atoms: C_8  and  O_9
REMARK    5  A    between atoms: O_9  and  C_10
REMARK    6  A    between atoms: C_10  and  C_11
REMARK    7  A    between atoms: C_15  and  C_16
REMARK                            x       y       z     vdW  Elec       q    Type
REMARK                         _______ _______ _______ _____ _____    ______ ____
ROOT
ATOM      1  O   UNL     1      43.294   5.136  10.352  0.00  0.00    +0.000 OA
ENDROOT
BRANCH   1   5
ATOM      2  C   UNL     1      45.704   2.346   8.513  0.00  0.00    +0.000 A 
ATOM      3  C   UNL     1      45.913   3.705   8.279  0.00  0.00    +0.000 A 
ATOM      4  C   UNL     1      45.089   4.644   8.898  0.00  0.00    +0.000 A 
ATOM      5  C   UNL     1      44.094   4.188   9.747  0.00  0.00    +0.000 A 
ATOM      6  N   UNL     1      43.849   2.881   9.980  0.00  0.00    +0.000 NA
ATOM      7  C   UNL     1      44.656   1.991   9.355  0.00  0.00    +0.000 A 
BRANCH   2   9
ATOM      8  C   UNL     1      47.169   1.464   6.722  0.00  0.00    +0.000 C 
ATOM      9  C   UNL     1      46.581   1.339   7.924  0.00  0.00    +0.000 C 
BRANCH   8  10
ATOM     10  C   UNL     1      47.091   2.626   5.783  0.00  0.00    +0.000 C 
BRANCH  10  11
ATOM     11  N   UNL     1      48.242   2.616   4.893  0.00  0.00    +0.000 NA
ATOM     12  H   UNL     1      48.126   3.355   4.202  0.00  0.00    +0.000 HD
ATOM     13  H   UNL     1      48.238   1.744   4.366  0.00  0.00    +0.000 HD
ENDBRANCH  10  11
ENDBRANCH   8  10
ENDBRANCH   2   9
ENDBRANCH   1   5
BRANCH   1  14
ATOM     14  C   UNL     1      43.166   4.893  11.758  0.00  0.00    +0.000 C 
BRANCH  14  15
ATOM     15  C   UNL     1      44.473   5.201  12.444  0.00  0.00    +0.000 A 
ATOM     16  C   UNL     1      45.209   4.202  13.065  0.00  0.00    +0.000 A 
ATOM     17  C   UNL     1      46.411   4.540  13.672  0.00  0.00    +0.000 A 
ATOM     18  F   UNL     1      47.115   3.575  14.278  0.00  0.00    +0.000 F 
ATOM     19  C   UNL     1      46.836   5.853  13.634  0.00  0.00    +0.000 A 
ATOM     20  N   UNL     1      46.110   6.814  13.009  0.00  0.00    +0.000 NA
ATOM     21  N   UNL     1      44.920   6.480  12.411  0.00  0.00    +0.000 NA
BRANCH  19  22
ATOM     22  C   UNL     1      48.101   6.296  14.280  0.00  0.00    +0.000 C 
ATOM     23  N   UNL     1      48.093   6.329  15.653  0.00  0.00    +0.000 N 
ATOM     24  O   UNL     1      49.104   6.613  13.656  0.00  0.00    +0.000 OA
ATOM     25  H   UNL     1      47.270   6.065  16.184  0.00  0.00    +0.000 HD
ATOM     26  H   UNL     1      48.934   6.609  16.139  0.00  0.00    +0.000 HD
ENDBRANCH  19  22
ENDBRANCH  14  15
ENDBRANCH   1  14
TORSDOF 7
ENDMDL
MODEL 5
REMARK VINA RESULT:    -7.446      4.889      8.331
REMARK INTER + INTRA:         -10.645
REMARK INTER:                 -10.068
REMARK INTRA:                  -0.576
REMARK UNBOUND:                -0.369
REMARK  Name = 
REMARK  7 active torsions:
REMARK  status: ('A' for Active; 'I' for Inactive)
REMARK    1  A    between atoms: N_1  and  C_2
REMARK    2  A    between atoms: C_2  and  C_3
REMARK    3  A    between atoms: C_4  and  C_5
REMARK    4  A    between atoms: C_8  and  O_9
REMARK    5  A    between atoms: O_9  and  C_10
REMARK    6  A    between atoms: C_10  and  C_11
REMARK    7  A    between atoms: C_15  and  C_16
REMARK                            x       y       z     vdW  Elec       q    Type
REMARK                         _______ _______ _______ _____ _____    ______ ____
ROOT
ATOM      1  O   UNL     1      47.861   5.085  15.220  0.00  0.00    +0.000 OA
ENDROOT
BRANCH   1   5
ATOM      2  C   UNL     1      45.486   4.620  11.886  0.00  0.00    +0.000 A 
ATOM      3  C   UNL     1      46.076   5.856  12.150  0.00  0.00    +0.000 A 
ATOM      4  C   UNL     1      46.873   6.009  13.285  0.00  0.00    +0.000 A 
ATOM      5  C   UNL     1      47.065   4.910  14.107  0.00  0.00    +0.000 A 
ATOM      6  N   UNL     1      46.492   3.706  13.894  0.00  0.00    +0.000 NA
ATOM      7  C   UNL     1      45.713   3.590  12.793  0.00  0.00    +0.000 A 
BRANCH   2   9
ATOM      8  C   UNL     1      43.417   4.815  10.540  0.00  0.00    +0.000 C 
ATOM      9  C   UNL     1      44.690   4.409  10.681  0.00  0.00    +0.000 C 
BRANCH   8  10
ATOM     10  C   UNL     1      42.585   5.572  11.526  0.00  0.00    +0.000 C 
BRANCH  10  11
ATOM     11  N   UNL     1      42.658   6.997  11.240  0.00  0.00    +0.000 NA
ATOM     12  H   UNL     1      43.603   7.219  10.931  0.00  0.00    +0.000 HD
ATOM     13  H   UNL     1      42.526   7.510  12.110  0.00  0.00    +0.000 HD
ENDBRANCH  10  11
ENDBRANCH   8  10
ENDBRANCH   2   9
ENDBRANCH   1   5
BRANCH   1  14
ATOM     14  C   UNL     1      47.567   4.115  16.233  0.00  0.00    +0.000 C 
BRANCH  14  15
ATOM     15  C   UNL     1      48.839   3.419  16.649  0.00  0.00    +0.000 A 
ATOM     16  C   UNL     1      49.706   3.999  17.565  0.00  0.00    +0.000 A 
ATOM     17  C   UNL     1      50.857   3.310  17.919  0.00  0.00    +0.000 A 
ATOM     18  F   UNL     1      51.696   3.875  18.798  0.00  0.00    +0.000 F 
ATOM     19  C   UNL     1      51.099   2.073  17.356  0.00  0.00    +0.000 A 
ATOM     20  N   UNL     1      50.233   1.516  16.473  0.00  0.00    +0.000 NA
ATOM     21  N   UNL     1      49.096   2.198  16.120  0.00  0.00    +0.000 NA
BRANCH  19  22
ATOM     22  C   UNL     1      52.322   1.284  17.670  0.00  0.00    +0.000 C 
ATOM     23  N   UNL     1      52.111   0.065  18.267  0.00  0.00    +0.000 N 
ATOM     24  O   UNL     1      53.456   1.666  17.420  0.00  0.00    +0.000 OA
ATOM     25  H   UNL     1      51.176  -0.267  18.477  0.00  0.00    +0.000 HD
ATOM     26  H   UNL     1      52.910  -0.515  18.486  0.00  0.00    +0.000 HD
ENDBRANCH  19  22
ENDBRANCH  14  15
ENDBRANCH   1  14
TORSDOF 7
ENDMDL
MODEL 6
REMARK VINA RESULT:    -7.384      3.392      8.058
REMARK INTER + INTRA:         -10.559
REMARK INTER:                 -10.011
REMARK INTRA:                  -0.548
REMARK UNBOUND:                -0.369
REMARK  Name = 
REMARK  7 active torsions:
REMARK  status: ('A' for Active; 'I' for Inactive)
REMARK    1  A    between atoms: N_1  and  C_2
REMARK    2  A    between atoms: C_2  and  C_3
REMARK    3  A    between atoms: C_4  and  C_5
REMARK    4  A    between atoms: C_8  and  O_9
REMARK    5  A    between atoms: O_9  and  C_10
REMARK    6  A    between atoms: C_10  and  C_11
REMARK    7  A    between atoms: C_15  and  C_16
REMARK                            x       y       z     vdW  Elec       q    Type
REMARK                         _______ _______ _______ _____ _____    ______ ____
ROOT
ATOM      1  O   UNL     1      45.324   4.440  12.815  0.00  0.00    +0.000 OA
ENDROOT
BRANCH   1   5
ATOM      2  C   UNL     1      45.192   3.784   8.750  0.00  0.00    +0.000 A 
ATOM      3  C   UNL     1      45.588   5.029   9.239  0.00  0.00    +0.000 A 
ATOM      4  C   UNL     1      45.622   5.247  10.616  0.00  0.00    +0.000 A 
ATOM      5  C   UNL     1      45.277   4.202  11.457  0.00  0.00    +0.000 A 
ATOM      6  N   UNL     1      44.869   2.992  11.019  0.00  0.00    +0.000 NA
ATOM      7  C   UNL     1      44.832   2.812   9.677  0.00  0.00    +0.000 A 
BRANCH   2   9
ATOM      8  C   UNL     1      46.222   2.932   6.666  0.00  0.00    +0.000 C 
ATOM      9  C   UNL     1      45.196   3.504   7.317  0.00  0.00    +0.000 C 
BRANCH   8  10
ATOM     10  C   UNL     1      47.512   2.441   7.244  0.00  0.00    +0.000 C 
BRANCH  10  11
ATOM     11  N   UNL     1      48.562   2.524   6.241  0.00  0.00    +0.000 NA
ATOM     12  H   UNL     1      49.440   2.227   6.663  0.00  0.00    +0.000 HD
ATOM     13  H   UNL     1      48.695   3.502   5.989  0.00  0.00    +0.000 HD
ENDBRANCH  10  11
ENDBRANCH   8  10
ENDBRANCH   2   9
ENDBRANCH   1   5
BRANCH   1  14
ATOM     14  C   UNL     1      46.426   5.288  13.161  0.00  0.00    +0.000 C 
BRANCH  14  15
ATOM     15  C   UNL     1      47.125   4.734  14.377  0.00  0.00    +0.000 A 
ATOM     16  C   UNL     1      47.581   5.572  15.386  0.00  0.00    +0.000 A 
ATOM     17  C   UNL     1      48.208   5.006  16.487  0.00  0.00    +0.000 A 
ATOM     18  F   UNL     1      48.654   5.818  17.456  0.00  0.00    +0.000 F 
ATOM     19  C   UNL     1      48.354   3.635  16.547  0.00  0.00    +0.000 A 
ATOM     20  N   UNL     1      47.889   2.831  15.557  0.00  0.00    +0.000 NA
ATOM     21  N   UNL     1      47.271   3.389  14.467  0.00  0.00    +0.000 NA
BRANCH  19  22
ATOM     22  C   UNL     1      49.034   2.958  17.683  0.00  0.00    +0.000 C 
ATOM     23  N   UNL     1      48.324   2.900  18.858  0.00  0.00    +0.000 N 
ATOM     24  O   UNL     1      50.152   2.469  17.608  0.00  0.00    +0.000 OA
ATOM     25  H   UNL     1      47.394   3.297  18.935  0.00  0.00    +0.000 HD
ATOM     26  H   UNL     1      48.739   2.436  19.655  0.00  0.00    +0.000 HD
ENDBRANCH  19  22
ENDBRANCH  14  15
ENDBRANCH   1  14
TORSDOF 7
ENDMDL
MODEL 7
REMARK VINA RESULT:    -6.703      3.675      8.239
REMARK INTER + INTRA:          -9.619
REMARK INTER:                  -9.078
REMARK INTRA:                  -0.541
REMARK UNBOUND:                -0.369
REMARK  Name = 
REMARK  7 active torsions:
REMARK  status: ('A' for Active; 'I' for Inactive)
REMARK    1  A    between atoms: N_1  and  C_2
REMARK    2  A    between atoms: C_2  and  C_3
REMARK    3  A    between atoms: C_4  and  C_5
REMARK    4  A    between atoms: C_8  and  O_9
REMARK    5  A    between atoms: O_9  and  C_10
REMARK    6  A    between atoms: C_10  and  C_11
REMARK    7  A    between atoms: C_15  and  C_16
REMARK                            x       y       z     vdW  Elec       q    Type
REMARK                         _______ _______ _______ _____ _____    ______ ____
ROOT
ATOM      1  O   UNL     1      45.842   4.412  14.002  0.00  0.00    +0.000 OA
ENDROOT
BRANCH   1   5
ATOM      2  C   UNL     1      44.757   4.174  10.034  0.00  0.00    +0.000 A 
ATOM      3  C   UNL     1      45.462   5.286  10.495  0.00  0.00    +0.000 A 
ATOM      4  C   UNL     1      45.819   5.364  11.841  0.00  0.00    +0.000 A 
ATOM      5  C   UNL     1      45.473   4.314  12.676  0.00  0.00    +0.000 A 
ATOM      6  N   UNL     1      44.773   3.234  12.269  0.00  0.00    +0.000 NA
ATOM      7  C   UNL     1      44.427   3.190  10.961  0.00  0.00    +0.000 A 
BRANCH   2   9
ATOM      8  C   UNL     1      45.123   3.305   7.745  0.00  0.00    +0.000 C 
ATOM      9  C   UNL     1      44.414   4.034   8.623  0.00  0.00    +0.000 C 
BRANCH   8  10
ATOM     10  C   UNL     1      46.343   2.481   8.017  0.00  0.00    +0.000 C 
BRANCH  10  11
ATOM     11  N   UNL     1      45.950   1.135   8.404  0.00  0.00    +0.000 NA
ATOM     12  H   UNL     1      45.426   1.186   9.276  0.00  0.00    +0.000 HD
ATOM     13  H   UNL     1      46.790   0.601   8.619  0.00  0.00    +0.000 HD
ENDBRANCH  10  11
ENDBRANCH   8  10
ENDBRANCH   2   9
ENDBRANCH   1   5
BRANCH   1  14
ATOM     14  C   UNL     1      46.849   5.413  14.194  0.00  0.00    +0.000 C 
BRANCH  14  15
ATOM     15  C   UNL     1      47.725   5.028  15.360  0.00  0.00    +0.000 A 
ATOM     16  C   UNL     1      47.416   3.937  16.160  0.00  0.00    +0.000 A 
ATOM     17  C   UNL     1      48.263   3.623  17.213  0.00  0.00    +0.000 A 
ATOM     18  F   UNL     1      47.958   2.574  17.989  0.00  0.00    +0.000 F 
ATOM     19  C   UNL     1      49.385   4.399  17.427  0.00  0.00    +0.000 A 
ATOM     20  N   UNL     1      49.679   5.454  16.625  0.00  0.00    +0.000 NA
ATOM     21  N   UNL     1      48.840   5.766  15.585  0.00  0.00    +0.000 NA
BRANCH  19  22
ATOM     22  C   UNL     1      50.328   4.138  18.548  0.00  0.00    +0.000 C 
ATOM     23  N   UNL     1      49.840   4.378  19.809  0.00  0.00    +0.000 N 
ATOM     24  O   UNL     1      51.470   3.731  18.389  0.00  0.00    +0.000 OA
ATOM     25  H   UNL     1      48.894   4.712  19.956  0.00  0.00    +0.000 HD
ATOM     26  H   UNL     1      50.439   4.201  20.605  0.00  0.00    +0.000 HD
ENDBRANCH  19  22
ENDBRANCH  14  15
ENDBRANCH   1  14
TORSDOF 7
ENDMDL
MODEL 8
REMARK VINA RESULT:    -6.595      3.362      7.330
REMARK INTER + INTRA:          -9.470
REMARK INTER:                  -9.080
REMARK INTRA:                  -0.390
REMARK UNBOUND:                -0.369
REMARK  Name = 
REMARK  7 active torsions:
REMARK  status: ('A' for Active; 'I' for Inactive)
REMARK    1  A    between atoms: N_1  and  C_2
REMARK    2  A    between atoms: C_2  and  C_3
REMARK    3  A    between atoms: C_4  and  C_5
REMARK    4  A    between atoms: C_8  and  O_9
REMARK    5  A    between atoms: O_9  and  C_10
REMARK    6  A    between atoms: C_10  and  C_11
REMARK    7  A    between atoms: C_15  and  C_16
REMARK                            x       y       z     vdW  Elec       q    Type
REMARK                         _______ _______ _______ _____ _____    ______ ____
ROOT
ATOM      1  O   UNL     1      43.681   4.672  11.024  0.00  0.00    +0.000 OA
ENDROOT
BRANCH   1   5
ATOM      2  C   UNL     1      45.642   3.338   7.655  0.00  0.00    +0.000 A 
ATOM      3  C   UNL     1      45.969   4.578   8.203  0.00  0.00    +0.000 A 
ATOM      4  C   UNL     1      45.296   5.028   9.338  0.00  0.00    +0.000 A 
ATOM      5  C   UNL     1      44.330   4.208   9.898  0.00  0.00    +0.000 A 
ATOM      6  N   UNL     1      43.972   3.012   9.383  0.00  0.00    +0.000 NA
ATOM      7  C   UNL     1      44.632   2.607   8.273  0.00  0.00    +0.000 A 
BRANCH   2   9
ATOM      8  C   UNL     1      47.124   1.706   6.528  0.00  0.00    +0.000 C 
ATOM      9  C   UNL     1      46.363   2.813   6.500  0.00  0.00    +0.000 C 
BRANCH   8  10
ATOM     10  C   UNL     1      47.359   0.788   7.686  0.00  0.00    +0.000 C 
BRANCH  10  11
ATOM     11  N   UNL     1      46.759  -0.509   7.414  0.00  0.00    +0.000 NA
ATOM     12  H   UNL     1      46.728  -1.043   8.281  0.00  0.00    +0.000 HD
ATOM     13  H   UNL     1      47.378  -1.029   6.793  0.00  0.00    +0.000 HD
ENDBRANCH  10  11
ENDBRANCH   8  10
ENDBRANCH   2   9
ENDBRANCH   1   5
BRANCH   1  14
ATOM     14  C   UNL     1      44.405   4.348  12.217  0.00  0.00    +0.000 C 
BRANCH  14  15
ATOM     15  C   UNL     1      45.268   5.519  12.616  0.00  0.00    +0.000 A 
ATOM     16  C   UNL     1      46.610   5.348  12.927  0.00  0.00    +0.000 A 
ATOM     17  C   UNL     1      47.359   6.462  13.277  0.00  0.00    +0.000 A 
ATOM     18  F   UNL     1      48.652   6.292  13.585  0.00  0.00    +0.000 F 
ATOM     19  C   UNL     1      46.751   7.701  13.300  0.00  0.00    +0.000 A 
ATOM     20  N   UNL     1      45.440   7.851  12.978  0.00  0.00    +0.000 NA
ATOM     21  N   UNL     1      44.698   6.749  12.635  0.00  0.00    +0.000 NA
BRANCH  19  22
ATOM     22  C   UNL     1      47.482   8.938  13.686  0.00  0.00    +0.000 C 
ATOM     23  N   UNL     1      47.439   9.267  15.019  0.00  0.00    +0.000 N 
ATOM     24  O   UNL     1      48.096   9.636  12.892  0.00  0.00    +0.000 OA
ATOM     25  H   UNL     1      46.937   8.696  15.689  0.00  0.00    +0.000 HD
ATOM     26  H   UNL     1      47.934  10.091  15.333  0.00  0.00    +0.000 HD
ENDBRANCH  19  22
ENDBRANCH  14  15
ENDBRANCH   1  14
TORSDOF 7
ENDMDL
MODEL 9
REMARK VINA RESULT:    -6.451      3.833      9.011
REMARK INTER + INTRA:          -9.272
REMARK INTER:                  -8.724
REMARK INTRA:                  -0.547
REMARK UNBOUND:                -0.369
REMARK  Name = 
REMARK  7 active torsions:
REMARK  status: ('A' for Active; 'I' for Inactive)
REMARK    1  A    between atoms: N_1  and  C_2
REMARK    2  A    between atoms: C_2  and  C_3
REMARK    3  A    between atoms: C_4  and  C_5
REMARK    4  A    between atoms: C_8  and  O_9
REMARK    5  A    between atoms: O_9  and  C_10
REMARK    6  A    between atoms: C_10  and  C_11
REMARK    7  A    between atoms: C_15  and  C_16
REMARK                            x       y       z     vdW  Elec       q    Type
REMARK                         _______ _______ _______ _____ _____    ______ ____
ROOT
ATOM      1  O   UNL     1      46.720   5.239  13.887  0.00  0.00    +0.000 OA
ENDROOT
BRANCH   1   5
ATOM      2  C   UNL     1      44.939   4.388  10.270  0.00  0.00    +0.000 A 
ATOM      3  C   UNL     1      44.960   3.423  11.277  0.00  0.00    +0.000 A 
ATOM      4  C   UNL     1      45.572   3.714  12.496  0.00  0.00    +0.000 A 
ATOM      5  C   UNL     1      46.125   4.972  12.670  0.00  0.00    +0.000 A 
ATOM      6  N   UNL     1      46.142   5.923  11.712  0.00  0.00    +0.000 NA
ATOM      7  C   UNL     1      45.553   5.608  10.534  0.00  0.00    +0.000 A 
BRANCH   2   9
ATOM      8  C   UNL     1      44.869   3.649   7.909  0.00  0.00    +0.000 C 
ATOM      9  C   UNL     1      44.261   4.137   9.002  0.00  0.00    +0.000 C 
BRANCH   8  10
ATOM     10  C   UNL     1      46.300   3.236   7.767  0.00  0.00    +0.000 C 
BRANCH  10  11
ATOM     11  N   UNL     1      46.992   4.161   6.882  0.00  0.00    +0.000 NA
ATOM     12  H   UNL     1      47.635   3.632   6.295  0.00  0.00    +0.000 HD
ATOM     13  H   UNL     1      47.578   4.773   7.448  0.00  0.00    +0.000 HD
ENDBRANCH  10  11
ENDBRANCH   8  10
ENDBRANCH   2   9
ENDBRANCH   1   5
BRANCH   1  14
ATOM     14  C   UNL     1      47.050   4.032  14.585  0.00  0.00    +0.000 C 
BRANCH  14  15
ATOM     15  C   UNL     1      47.411   4.359  16.012  0.00  0.00    +0.000 A 
ATOM     16  C   UNL     1      48.352   5.336  16.308  0.00  0.00    +0.000 A 
ATOM     17  C   UNL     1      48.638   5.603  17.639  0.00  0.00    +0.000 A 
ATOM     18  F   UNL     1      49.552   6.541  17.921  0.00  0.00    +0.000 F 
ATOM     19  C   UNL     1      47.977   4.896  18.623  0.00  0.00    +0.000 A 
ATOM     20  N   UNL     1      47.050   3.953  18.315  0.00  0.00    +0.000 NA
ATOM     21  N   UNL     1      46.768   3.687  16.999  0.00  0.00    +0.000 NA
BRANCH  19  22
ATOM     22  C   UNL     1      48.245   5.110  20.071  0.00  0.00    +0.000 C 
ATOM     23  N   UNL     1      49.254   4.350  20.612  0.00  0.00    +0.000 N 
ATOM     24  O   UNL     1      47.629   5.907  20.762  0.00  0.00    +0.000 OA
ATOM     25  H   UNL     1      49.777   3.687  20.050  0.00  0.00    +0.000 HD
ATOM     26  H   UNL     1      49.484   4.470  21.589  0.00  0.00    +0.000 HD
ENDBRANCH  19  22
ENDBRANCH  14  15
ENDBRANCH   1  14
TORSDOF 7
ENDMDL
