MODEL 1
REMARK VINA RESULT:    -6.230      0.000      0.000
REMARK INTER + INTRA:          -8.685
REMARK INTER:                  -8.233
REMARK INTRA:                  -0.452
REMARK UNBOUND:                -0.452
REMARK  Name = 
REMARK  6 active torsions:
REMARK  status: ('A' for Active; 'I' for Inactive)
REMARK    1  A    between atoms: N_1  and  C_2
REMARK    2  A    between atoms: C_2  and  C_3
REMARK    3  A    between atoms: C_3  and  C_4
REMARK    4  A    between atoms: C_8  and  C_9
REMARK    5  A    between atoms: C_9  and  S_10
REMARK    6  A    between atoms: S_10  and  C_11
REMARK                            x       y       z     vdW  Elec       q    Type
REMARK                         _______ _______ _______ _____ _____    ______ ____
ROOT
ATOM      1  C   UNL     1      45.664   3.389   8.130  0.00  0.00    +0.000 A 
ATOM      2  C   UNL     1      45.442   2.060   8.490  0.00  0.00    +0.000 A 
ATOM      3  C   UNL     1      44.579   1.796   9.541  0.00  0.00    +0.000 A 
ATOM      4  N   UNL     1      43.920   2.750  10.232  0.00  0.00    +0.000 NA
ATOM      5  C   UNL     1      44.144   4.043   9.887  0.00  0.00    +0.000 A 
ATOM      6  C   UNL     1      45.023   4.394   8.863  0.00  0.00    +0.000 A 
ENDROOT
BRANCH   1   7
ATOM      7  C   UNL     1      46.564   3.740   6.971  0.00  0.00    +0.000 C 
BRANCH   7   8
ATOM      8  C   UNL     1      47.156   2.502   6.292  0.00  0.00    +0.000 C 
BRANCH   8   9
ATOM      9  N   UNL     1      48.617   2.524   6.353  0.00  0.00    +0.000 NA
ATOM     10  H   UNL     1      48.921   2.106   7.234  0.00  0.00    +0.000 HD
ATOM     11  H   UNL     1      48.946   3.488   6.372  0.00  0.00    +0.000 HD
ENDBRANCH   8   9
ENDBRANCH   7   8
ENDBRANCH   1   7
BRANCH   5  12
ATOM     12  C   UNL     1      43.417   5.094  10.688  0.00  0.00    +0.000 C 
BRANCH  12  13
ATOM     13  S   UNL     1      44.336   5.784  12.102  0.00  0.00    +0.000 S 
BRANCH  13  14
ATOM     14  C   UNL     1      45.340   7.127  11.310  0.00  0.00    +0.000 C 
ATOM     15  C   UNL     1      45.309   8.487  12.037  0.00  0.00    +0.000 C 
ATOM     16  C   UNL     1      46.198   8.562  13.252  0.00  0.00    +0.000 C 
ATOM     17  C   UNL     1      47.164   7.672  13.502  0.00  0.00    +0.000 C 
ATOM     18  C   UNL     1      47.484   6.523  12.591  0.00  0.00    +0.000 C 
ATOM     19  C   UNL     1      46.797   6.633  11.221  0.00  0.00    +0.000 C 
ENDBRANCH  13  14
ENDBRANCH  12  13
ENDBRANCH   5  12
TORSDOF 6
ENDMDL
MODEL 2
REMARK VINA RESULT:    -5.776      1.273      1.917
REMARK INTER + INTRA:          -8.086
REMARK INTER:                  -7.699
REMARK INTRA:                  -0.387
REMARK UNBOUND:                -0.452
REMARK  Name = 
REMARK  6 active torsions:
REMARK  status: ('A' for Active; 'I' for Inactive)
REMARK    1  A    between atoms: N_1  and  C_2
REMARK    2  A    between atoms: C_2  and  C_3
REMARK    3  A    between atoms: C_3  and  C_4
REMARK    4  A    between atoms: C_8  and  C_9
REMARK    5  A    between atoms: C_9  and  S_10
REMARK    6  A    between atoms: S_10  and  C_11
REMARK                            x       y       z     vdW  Elec       q    Type
REMARK                         _______ _______ _______ _____ _____    ______ ____
ROOT
ATOM      1  C   UNL     1      45.654   3.731   8.361  0.00  0.00    +0.000 A 
ATOM      2  C   UNL     1      44.811   2.777   8.930  0.00  0.00    +0.000 A 
ATOM      3  C   UNL     1      44.200   3.072  10.137  0.00  0.00    +0.000 A 
ATOM      4  N   UNL     1      44.355   4.242  10.794  0.00  0.00    +0.000 NA
ATOM      5  C   UNL     1      45.183   5.165  10.245  0.00  0.00    +0.000 A 
ATOM      6  C   UNL     1      45.862   4.932   9.049  0.00  0.00    +0.000 A 
ENDROOT
BRANCH   1   7
ATOM      7  C   UNL     1      46.321   3.484   7.030  0.00  0.00    +0.000 C 
BRANCH   7   8
ATOM      8  C   UNL     1      47.270   2.284   7.063  0.00  0.00    +0.000 C 
BRANCH   8   9
ATOM      9  N   UNL     1      48.520   2.590   6.367  0.00  0.00    +0.000 NA
ATOM     10  H   UNL     1      49.285   2.086   6.817  0.00  0.00    +0.000 HD
ATOM     11  H   UNL     1      48.737   3.580   6.469  0.00  0.00    +0.000 HD
ENDBRANCH   8   9
ENDBRANCH   7   8
ENDBRANCH   1   7
BRANCH   5  12
ATOM     12  C   UNL     1      45.361   6.454  11.007  0.00  0.00    +0.000 C 
BRANCH  12  13
ATOM     13  S   UNL     1      45.845   6.276  12.755  0.00  0.00    +0.000 S 
BRANCH  13  14
ATOM     14  C   UNL     1      47.691   6.426  12.677  0.00  0.00    +0.000 C 
ATOM     15  C   UNL     1      48.229   7.368  11.581  0.00  0.00    +0.000 C 
ATOM     16  C   UNL     1      48.142   8.833  11.923  0.00  0.00    +0.000 C 
ATOM     17  C   UNL     1      47.928   9.278  13.166  0.00  0.00    +0.000 C 
ATOM     18  C   UNL     1      47.780   8.372  14.353  0.00  0.00    +0.000 C 
ATOM     19  C   UNL     1      48.179   6.918  14.054  0.00  0.00    +0.000 C 
ENDBRANCH  13  14
ENDBRANCH  12  13
ENDBRANCH   5  12
TORSDOF 6
ENDMDL
MODEL 3
REMARK VINA RESULT:    -5.208      2.029      2.561
REMARK INTER + INTRA:          -7.335
REMARK INTER:                  -7.005
REMARK INTRA:                  -0.330
REMARK UNBOUND:                -0.452
REMARK  Name = 
REMARK  6 active torsions:
REMARK  status: ('A' for Active; 'I' for Inactive)
REMARK    1  A    between atoms: N_1  and  C_2
REMARK    2  A    between atoms: C_2  and  C_3
REMARK    3  A    between atoms: C_3  and  C_4
REMARK    4  A    between atoms: C_8  and  C_9
REMARK    5  A    between atoms: C_9  and  S_10
REMARK    6  A    between atoms: S_10  and  C_11
REMARK                            x       y       z     vdW  Elec       q    Type
REMARK                         _______ _______ _______ _____ _____    ______ ____
ROOT
ATOM      1  C   UNL     1      44.509   3.888  10.015  0.00  0.00    +0.000 A 
ATOM      2  C   UNL     1      43.818   2.801  10.549  0.00  0.00    +0.000 A 
ATOM      3  C   UNL     1      43.696   2.707  11.925  0.00  0.00    +0.000 A 
ATOM      4  N   UNL     1      44.192   3.620  12.789  0.00  0.00    +0.000 NA
ATOM      5  C   UNL     1      44.871   4.672  12.269  0.00  0.00    +0.000 A 
ATOM      6  C   UNL     1      45.067   4.822  10.896  0.00  0.00    +0.000 A 
ENDROOT
BRANCH   1   7
ATOM      7  C   UNL     1      44.644   4.065   8.522  0.00  0.00    +0.000 C 
BRANCH   7   8
ATOM      8  C   UNL     1      45.869   3.345   7.954  0.00  0.00    +0.000 C 
BRANCH   8   9
ATOM      9  N   UNL     1      46.751   4.284   7.262  0.00  0.00    +0.000 NA
ATOM     10  H   UNL     1      46.249   5.160   7.104  0.00  0.00    +0.000 HD
ATOM     11  H   UNL     1      46.981   3.923   6.337  0.00  0.00    +0.000 HD
ENDBRANCH   8   9
ENDBRANCH   7   8
ENDBRANCH   1   7
BRANCH   5  12
ATOM     12  C   UNL     1      45.436   5.666  13.251  0.00  0.00    +0.000 C 
BRANCH  12  13
ATOM     13  S   UNL     1      47.228   5.974  13.118  0.00  0.00    +0.000 S 
BRANCH  13  14
ATOM     14  C   UNL     1      47.289   7.632  12.291  0.00  0.00    +0.000 C 
ATOM     15  C   UNL     1      47.086   8.842  13.225  0.00  0.00    +0.000 C 
ATOM     16  C   UNL     1      48.303   9.218  14.029  0.00  0.00    +0.000 C 
ATOM     17  C   UNL     1      49.531   8.772  13.740  0.00  0.00    +0.000 C 
ATOM     18  C   UNL     1      49.831   7.876  12.574  0.00  0.00    +0.000 C 
ATOM     19  C   UNL     1      48.656   7.756  11.590  0.00  0.00    +0.000 C 
ENDBRANCH  13  14
ENDBRANCH  12  13
ENDBRANCH   5  12
TORSDOF 6
ENDMDL
MODEL 4
REMARK VINA RESULT:    -5.174      1.953      2.806
REMARK INTER + INTRA:          -7.289
REMARK INTER:                  -6.893
REMARK INTRA:                  -0.396
REMARK UNBOUND:                -0.452
REMARK  Name = 
REMARK  6 active torsions:
REMARK  status: ('A' for Active; 'I' for Inactive)
REMARK    1  A    between atoms: N_1  and  C_2
REMARK    2  A    between atoms: C_2  and  C_3
REMARK    3  A    between atoms: C_3  and  C_4
REMARK    4  A    between atoms: C_8  and  C_9
REMARK    5  A    between atoms: C_9  and  S_10
REMARK    6  A    between atoms: S_10  and  C_11
REMARK                            x       y       z     vdW  Elec       q    Type
REMARK                         _______ _______ _______ _____ _____    ______ ____
ROOT
ATOM      1  C   UNL     1      44.806   4.090   9.938  0.00  0.00    +0.000 A 
ATOM      2  C   UNL     1      44.887   2.912  10.680  0.00  0.00    +0.000 A 
ATOM      3  C   UNL     1      44.931   3.004  12.062  0.00  0.00    +0.000 A 
ATOM      4  N   UNL     1      44.881   4.171  12.741  0.00  0.00    +0.000 NA
ATOM      5  C   UNL     1      44.812   5.316  12.017  0.00  0.00    +0.000 A 
ATOM      6  C   UNL     1      44.798   5.310  10.622  0.00  0.00    +0.000 A 
ENDROOT
BRANCH   1   7
ATOM      7  C   UNL     1      44.719   4.053   8.432  0.00  0.00    +0.000 C 
BRANCH   7   8
ATOM      8  C   UNL     1      45.923   3.361   7.790  0.00  0.00    +0.000 C 
BRANCH   8   9
ATOM      9  N   UNL     1      46.831   4.341   7.196  0.00  0.00    +0.000 NA
ATOM     10  H   UNL     1      46.498   5.281   7.413  0.00  0.00    +0.000 HD
ATOM     11  H   UNL     1      46.805   4.263   6.179  0.00  0.00    +0.000 HD
ENDBRANCH   8   9
ENDBRANCH   7   8
ENDBRANCH   1   7
BRANCH   5  12
ATOM     12  C   UNL     1      44.783   6.608  12.794  0.00  0.00    +0.000 C 
BRANCH  12  13
ATOM     13  S   UNL     1      45.755   7.977  12.084  0.00  0.00    +0.000 S 
BRANCH  13  14
ATOM     14  C   UNL     1      47.072   8.236  13.361  0.00  0.00    +0.000 C 
ATOM     15  C   UNL     1      48.054   7.060  13.544  0.00  0.00    +0.000 C 
ATOM     16  C   UNL     1      49.121   6.972  12.485  0.00  0.00    +0.000 C 
ATOM     17  C   UNL     1      49.406   7.981  11.654  0.00  0.00    +0.000 C 
ATOM     18  C   UNL     1      48.715   9.312  11.704  0.00  0.00    +0.000 C 
ATOM     19  C   UNL     1      47.863   9.500  12.969  0.00  0.00    +0.000 C 
ENDBRANCH  13  14
ENDBRANCH  12  13
ENDBRANCH   5  12
TORSDOF 6
ENDMDL
MODEL 5
REMARK VINA RESULT:    -5.171      1.619      2.252
REMARK INTER + INTRA:          -7.286
REMARK INTER:                  -6.904
REMARK INTRA:                  -0.382
REMARK UNBOUND:                -0.452
REMARK  Name = 
REMARK  6 active torsions:
REMARK  status: ('A' for Active; 'I' for Inactive)
REMARK    1  A    between atoms: N_1  and  C_2
REMARK    2  A    between atoms: C_2  and  C_3
REMARK    3  A    between atoms: C_3  and  C_4
REMARK    4  A    between atoms: C_8  and  C_9
REMARK    5  A    between atoms: C_9  and  S_10
REMARK    6  A    between atoms: S_10  and  C_11
REMARK                            x       y       z     vdW  Elec       q    Type
REMARK                         _______ _______ _______ _____ _____    ______ ____
ROOT
ATOM      1  C   UNL     1      45.763   2.108   8.257  0.00  0.00    +0.000 A 
ATOM      2  C   UNL     1      45.556   3.271   7.516  0.00  0.00    +0.000 A 
ATOM      3  C   UNL     1      44.738   4.255   8.046  0.00  0.00    +0.000 A 
ATOM      4  N   UNL     1      44.138   4.166   9.253  0.00  0.00    +0.000 NA
ATOM      5  C   UNL     1      44.333   3.030   9.969  0.00  0.00    +0.000 A 
ATOM      6  C   UNL     1      45.115   1.979   9.491  0.00  0.00    +0.000 A 
ENDROOT
BRANCH   1   7
ATOM      7  C   UNL     1      46.672   1.016   7.750  0.00  0.00    +0.000 C 
BRANCH   7   8
ATOM      8  C   UNL     1      47.299   1.355   6.396  0.00  0.00    +0.000 C 
BRANCH   8   9
ATOM      9  N   UNL     1      48.597   2.006   6.571  0.00  0.00    +0.000 NA
ATOM     10  H   UNL     1      49.289   1.305   6.840  0.00  0.00    +0.000 HD
ATOM     11  H   UNL     1      48.549   2.665   7.347  0.00  0.00    +0.000 HD
ENDBRANCH   8   9
ENDBRANCH   7   8
ENDBRANCH   1   7
BRANCH   5  12
ATOM     12  C   UNL     1      43.635   2.942  11.303  0.00  0.00    +0.000 C 
BRANCH  12  13
ATOM     13  S   UNL     1      44.266   4.057  12.598  0.00  0.00    +0.000 S 
BRANCH  13  14
ATOM     14  C   UNL     1      46.049   4.248  12.128  0.00  0.00    +0.000 C 
ATOM     15  C   UNL     1      46.471   5.671  11.710  0.00  0.00    +0.000 C 
ATOM     16  C   UNL     1      46.690   6.618  12.861  0.00  0.00    +0.000 C 
ATOM     17  C   UNL     1      46.830   6.205  14.125  0.00  0.00    +0.000 C 
ATOM     18  C   UNL     1      46.810   4.760  14.529  0.00  0.00    +0.000 C 
ATOM     19  C   UNL     1      46.902   3.800  13.332  0.00  0.00    +0.000 C 
ENDBRANCH  13  14
ENDBRANCH  12  13
ENDBRANCH   5  12
TORSDOF 6
ENDMDL
MODEL 6
REMARK VINA RESULT:    -5.087      4.339      7.433
REMARK INTER + INTRA:          -7.175
REMARK INTER:                  -6.910
REMARK INTRA:                  -0.265
REMARK UNBOUND:                -0.452
REMARK  Name = 
REMARK  6 active torsions:
REMARK  status: ('A' for Active; 'I' for Inactive)
REMARK    1  A    between atoms: N_1  and  C_2
REMARK    2  A    between atoms: C_2  and  C_3
REMARK    3  A    between atoms: C_3  and  C_4
REMARK    4  A    between atoms: C_8  and  C_9
REMARK    5  A    between atoms: C_9  and  S_10
REMARK    6  A    between atoms: S_10  and  C_11
REMARK                            x       y       z     vdW  Elec       q    Type
REMARK                         _______ _______ _______ _____ _____    ______ ____
ROOT
ATOM      1  C   UNL     1      47.713   4.424  16.386  0.00  0.00    +0.000 A 
ATOM      2  C   UNL     1      48.613   5.440  16.707  0.00  0.00    +0.000 A 
ATOM      3  C   UNL     1      48.878   6.412  15.756  0.00  0.00    +0.000 A 
ATOM      4  N   UNL     1      48.301   6.448  14.535  0.00  0.00    +0.000 NA
ATOM      5  C   UNL     1      47.433   5.453  14.221  0.00  0.00    +0.000 A 
ATOM      6  C   UNL     1      47.139   4.420  15.110  0.00  0.00    +0.000 A 
ENDROOT
BRANCH   1   7
ATOM      7  C   UNL     1      47.355   3.357  17.392  0.00  0.00    +0.000 C 
BRANCH   7   8
ATOM      8  C   UNL     1      48.545   2.953  18.267  0.00  0.00    +0.000 C 
BRANCH   8   9
ATOM      9  N   UNL     1      48.265   3.213  19.679  0.00  0.00    +0.000 NA
ATOM     10  H   UNL     1      48.377   2.347  20.207  0.00  0.00    +0.000 HD
ATOM     11  H   UNL     1      47.289   3.486  19.792  0.00  0.00    +0.000 HD
ENDBRANCH   8   9
ENDBRANCH   7   8
ENDBRANCH   1   7
BRANCH   5  12
ATOM     12  C   UNL     1      46.820   5.499  12.845  0.00  0.00    +0.000 C 
BRANCH  12  13
ATOM     13  S   UNL     1      45.492   6.726  12.614  0.00  0.00    +0.000 S 
BRANCH  13  14
ATOM     14  C   UNL     1      44.589   6.067  11.136  0.00  0.00    +0.000 C 
ATOM     15  C   UNL     1      45.025   4.663  10.670  0.00  0.00    +0.000 C 
ATOM     16  C   UNL     1      44.465   3.533  11.494  0.00  0.00    +0.000 C 
ATOM     17  C   UNL     1      43.438   3.688  12.338  0.00  0.00    +0.000 C 
ATOM     18  C   UNL     1      42.721   4.992  12.534  0.00  0.00    +0.000 C 
ATOM     19  C   UNL     1      43.086   6.044  11.475  0.00  0.00    +0.000 C 
ENDBRANCH  13  14
ENDBRANCH  12  13
ENDBRANCH   5  12
TORSDOF 6
ENDMDL
MODEL 7
REMARK VINA RESULT:    -5.036      4.442      6.410
REMARK INTER + INTRA:          -7.108
REMARK INTER:                  -6.854
REMARK INTRA:                  -0.253
REMARK UNBOUND:                -0.452
REMARK  Name = 
REMARK  6 active torsions:
REMARK  status: ('A' for Active; 'I' for Inactive)
REMARK    1  A    between atoms: N_1  and  C_2
REMARK    2  A    between atoms: C_2  and  C_3
REMARK    3  A    between atoms: C_3  and  C_4
REMARK    4  A    between atoms: C_8  and  C_9
REMARK    5  A    between atoms: C_9  and  S_10
REMARK    6  A    between atoms: S_10  and  C_11
REMARK                            x       y       z     vdW  Elec       q    Type
REMARK                         _______ _______ _______ _____ _____    ______ ____
ROOT
ATOM      1  C   UNL     1      45.166   5.313  11.672  0.00  0.00    +0.000 A 
ATOM      2  C   UNL     1      46.012   6.316  11.197  0.00  0.00    +0.000 A 
ATOM      3  C   UNL     1      47.149   6.620  11.927  0.00  0.00    +0.000 A 
ATOM      4  N   UNL     1      47.503   5.990  13.068  0.00  0.00    +0.000 NA
ATOM      5  C   UNL     1      46.675   5.021  13.533  0.00  0.00    +0.000 A 
ATOM      6  C   UNL     1      45.494   4.679  12.875  0.00  0.00    +0.000 A 
ENDROOT
BRANCH   1   7
ATOM      7  C   UNL     1      43.932   4.911  10.903  0.00  0.00    +0.000 C 
BRANCH   7   8
ATOM      8  C   UNL     1      42.656   5.534  11.473  0.00  0.00    +0.000 C 
BRANCH   8   9
ATOM      9  N   UNL     1      42.630   6.977  11.237  0.00  0.00    +0.000 NA
ATOM     10  H   UNL     1      42.667   7.153  10.232  0.00  0.00    +0.000 HD
ATOM     11  H   UNL     1      43.470   7.405  11.627  0.00  0.00    +0.000 HD
ENDBRANCH   8   9
ENDBRANCH   7   8
ENDBRANCH   1   7
BRANCH   5  12
ATOM     12  C   UNL     1      47.076   4.347  14.821  0.00  0.00    +0.000 C 
BRANCH  12  13
ATOM     13  S   UNL     1      48.046   5.369  15.976  0.00  0.00    +0.000 S 
BRANCH  13  14
ATOM     14  C   UNL     1      47.941   4.400  17.553  0.00  0.00    +0.000 C 
ATOM     15  C   UNL     1      47.762   2.878  17.380  0.00  0.00    +0.000 C 
ATOM     16  C   UNL     1      49.027   2.139  17.031  0.00  0.00    +0.000 C 
ATOM     17  C   UNL     1      50.245   2.675  17.172  0.00  0.00    +0.000 C 
ATOM     18  C   UNL     1      50.482   4.053  17.716  0.00  0.00    +0.000 C 
ATOM     19  C   UNL     1      49.229   4.671  18.356  0.00  0.00    +0.000 C 
ENDBRANCH  13  14
ENDBRANCH  12  13
ENDBRANCH   5  12
TORSDOF 6
ENDMDL
MODEL 8
REMARK VINA RESULT:    -5.026      2.932      6.243
REMARK INTER + INTRA:          -7.095
REMARK INTER:                  -6.774
REMARK INTRA:                  -0.321
REMARK UNBOUND:                -0.452
REMARK  Name = 
REMARK  6 active torsions:
REMARK  status: ('A' for Active; 'I' for Inactive)
REMARK    1  A    between atoms: N_1  and  C_2
REMARK    2  A    between atoms: C_2  and  C_3
REMARK    3  A    between atoms: C_3  and  C_4
REMARK    4  A    between atoms: C_8  and  C_9
REMARK    5  A    between atoms: C_9  and  S_10
REMARK    6  A    between atoms: S_10  and  C_11
REMARK                            x       y       z     vdW  Elec       q    Type
REMARK                         _______ _______ _______ _____ _____    ______ ____
ROOT
ATOM      1  C   UNL     1      45.334   4.988  12.723  0.00  0.00    +0.000 A 
ATOM      2  C   UNL     1      44.081   5.197  13.297  0.00  0.00    +0.000 A 
ATOM      3  C   UNL     1      42.967   5.193  12.473  0.00  0.00    +0.000 A 
ATOM      4  N   UNL     1      43.018   4.979  11.140  0.00  0.00    +0.000 NA
ATOM      5  C   UNL     1      44.238   4.785  10.582  0.00  0.00    +0.000 A 
ATOM      6  C   UNL     1      45.411   4.808  11.337  0.00  0.00    +0.000 A 
ENDROOT
BRANCH   1   7
ATOM      7  C   UNL     1      46.580   4.945  13.572  0.00  0.00    +0.000 C 
BRANCH   7   8
ATOM      8  C   UNL     1      46.995   3.517  13.935  0.00  0.00    +0.000 C 
BRANCH   8   9
ATOM      9  N   UNL     1      47.549   3.462  15.287  0.00  0.00    +0.000 NA
ATOM     10  H   UNL     1      47.447   2.514  15.652  0.00  0.00    +0.000 HD
ATOM     11  H   UNL     1      47.005   4.061  15.906  0.00  0.00    +0.000 HD
ENDBRANCH   8   9
ENDBRANCH   7   8
ENDBRANCH   1   7
BRANCH   5  12
ATOM     12  C   UNL     1      44.274   4.573   9.089  0.00  0.00    +0.000 C 
BRANCH  12  13
ATOM     13  S   UNL     1      45.935   4.429   8.353  0.00  0.00    +0.000 S 
BRANCH  13  14
ATOM     14  C   UNL     1      45.627   3.357   6.873  0.00  0.00    +0.000 C 
ATOM     15  C   UNL     1      46.800   3.255   5.878  0.00  0.00    +0.000 C 
ATOM     16  C   UNL     1      47.899   2.317   6.306  0.00  0.00    +0.000 C 
ATOM     17  C   UNL     1      47.743   1.412   7.280  0.00  0.00    +0.000 C 
ATOM     18  C   UNL     1      46.457   1.218   8.028  0.00  0.00    +0.000 C 
ATOM     19  C   UNL     1      45.269   1.947   7.381  0.00  0.00    +0.000 C 
ENDBRANCH  13  14
ENDBRANCH  12  13
ENDBRANCH   5  12
TORSDOF 6
ENDMDL
MODEL 9
REMARK VINA RESULT:    -4.917      2.574      6.169
REMARK INTER + INTRA:          -6.950
REMARK INTER:                  -6.685
REMARK INTRA:                  -0.265
REMARK UNBOUND:                -0.452
REMARK  Name = 
REMARK  6 active torsions:
REMARK  status: ('A' for Active; 'I' for Inactive)
REMARK    1  A    between atoms: N_1  and  C_2
REMARK    2  A    between atoms: C_2  and  C_3
REMARK    3  A    between atoms: C_3  and  C_4
REMARK    4  A    between atoms: C_8  and  C_9
REMARK    5  A    between atoms: C_9  and  S_10
REMARK    6  A    between atoms: S_10  and  C_11
REMARK                            x       y       z     vdW  Elec       q    Type
REMARK                         _______ _______ _______ _____ _____    ______ ____
ROOT
ATOM      1  C   UNL     1      45.355   5.595  11.888  0.00  0.00    +0.000 A 
ATOM      2  C   UNL     1      44.422   5.574  12.925  0.00  0.00    +0.000 A 
ATOM      3  C   UNL     1      43.451   4.586  12.920  0.00  0.00    +0.000 A 
ATOM      4  N   UNL     1      43.362   3.623  11.977  0.00  0.00    +0.000 NA
ATOM      5  C   UNL     1      44.264   3.650  10.964  0.00  0.00    +0.000 A 
ATOM      6  C   UNL     1      45.251   4.632  10.878  0.00  0.00    +0.000 A 
ENDROOT
BRANCH   1   7
ATOM      7  C   UNL     1      46.458   6.624  11.857  0.00  0.00    +0.000 C 
BRANCH   7   8
ATOM      8  C   UNL     1      47.102   6.836  13.230  0.00  0.00    +0.000 C 
BRANCH   8   9
ATOM      9  N   UNL     1      48.397   6.163  13.307  0.00  0.00    +0.000 NA
ATOM     10  H   UNL     1      48.611   5.742  12.401  0.00  0.00    +0.000 HD
ATOM     11  H   UNL     1      48.345   5.390  13.969  0.00  0.00    +0.000 HD
ENDBRANCH   8   9
ENDBRANCH   7   8
ENDBRANCH   1   7
BRANCH   5  12
ATOM     12  C   UNL     1      44.130   2.581   9.909  0.00  0.00    +0.000 C 
BRANCH  12  13
ATOM     13  S   UNL     1      44.589   3.082   8.218  0.00  0.00    +0.000 S 
BRANCH  13  14
ATOM     14  C   UNL     1      46.428   2.853   8.217  0.00  0.00    +0.000 C 
ATOM     15  C   UNL     1      46.919   1.463   7.763  0.00  0.00    +0.000 C 
ATOM     16  C   UNL     1      46.910   1.258   6.271  0.00  0.00    +0.000 C 
ATOM     17  C   UNL     1      46.805   2.267   5.399  0.00  0.00    +0.000 C 
ATOM     18  C   UNL     1      46.711   3.707   5.810  0.00  0.00    +0.000 C 
ATOM     19  C   UNL     1      47.034   3.930   7.296  0.00  0.00    +0.000 C 
ENDBRANCH  13  14
ENDBRANCH  12  13
ENDBRANCH   5  12
TORSDOF 6
ENDMDL
