MODEL 1
REMARK VINA RESULT:    -7.064      0.000      0.000
REMARK INTER + INTRA:          -9.058
REMARK INTER:                  -8.716
REMARK INTRA:                  -0.342
REMARK UNBOUND:                -0.342
REMARK  Name = 
REMARK  7 active torsions:
REMARK  status: ('A' for Active; 'I' for Inactive)
REMARK    1  A    between atoms: C_1  and  C_2
REMARK    2  A    between atoms: C_2  and  C_3
REMARK    3  A    between atoms: C_2  and  C_4
REMARK    4  A    between atoms: C_2  and  O_5
REMARK    5  A    between atoms: O_5  and  C_6
REMARK    6  A    between atoms: N_14  and  C_15
REMARK    7  A    between atoms: C_15  and  C_16
REMARK                            x       y       z     vdW  Elec       q    Type
REMARK                         _______ _______ _______ _____ _____    ______ ____
ROOT
ATOM      1  C   UNL     1      46.748   7.672  12.402  0.00  0.00    +0.000 C 
ATOM      2  O   UNL     1      46.518   8.315  11.387  0.00  0.00    +0.000 OA
ATOM      3  N   UNL     1      46.730   6.293  12.410  0.00  0.00    +0.000 N 
ATOM      4  C   UNL     1      47.008   5.449  13.589  0.00  0.00    +0.000 C 
ATOM      5  C   UNL     1      45.738   4.719  14.074  0.00  0.00    +0.000 C 
ATOM      6  C   UNL     1      45.010   4.186  12.893  0.00  0.00    +0.000 A 
ATOM      7  N   UNL     1      44.033   3.234  12.920  0.00  0.00    +0.000 NA
ATOM      8  C   UNL     1      43.652   3.110  11.665  0.00  0.00    +0.000 A 
ATOM      9  N   UNL     1      44.332   3.964  10.831  0.00  0.00    +0.000 N 
ATOM     10  C   UNL     1      45.242   4.626  11.609  0.00  0.00    +0.000 A 
ATOM     11  C   UNL     1      46.261   5.617  11.197  0.00  0.00    +0.000 C 
ENDROOT
BRANCH   1  12
ATOM     12  O   UNL     1      47.035   8.229  13.616  0.00  0.00    +0.000 OA
BRANCH  12  14
ATOM     13  C   UNL     1      48.235  10.355  13.247  0.00  0.00    +0.000 C 
ATOM     14  C   UNL     1      48.311   8.912  13.771  0.00  0.00    +0.000 C 
ATOM     15  C   UNL     1      49.443   8.105  13.118  0.00  0.00    +0.000 C 
ATOM     16  C   UNL     1      48.600   8.989  15.281  0.00  0.00    +0.000 C 
ENDBRANCH  12  14
ENDBRANCH   1  12
BRANCH   9  17
ATOM     17  C   UNL     1      44.158   4.064   9.390  0.00  0.00    +0.000 C 
BRANCH  17  18
ATOM     18  C   UNL     1      45.167   3.252   8.626  0.00  0.00    +0.000 A 
ATOM     19  C   UNL     1      46.019   3.838   7.684  0.00  0.00    +0.000 A 
ATOM     20  C   UNL     1      46.952   3.057   7.006  0.00  0.00    +0.000 A 
ATOM     21  C   UNL     1      47.013   1.705   7.299  0.00  0.00    +0.000 A 
ATOM     22  N   UNL     1      46.227   1.105   8.215  0.00  0.00    +0.000 NA
ATOM     23  C   UNL     1      45.325   1.886   8.852  0.00  0.00    +0.000 A 
ENDBRANCH  17  18
ENDBRANCH   9  17
TORSDOF 4
ENDMDL
MODEL 2
REMARK VINA RESULT:    -6.792      1.699      2.473
REMARK INTER + INTRA:          -8.723
REMARK INTER:                  -8.740
REMARK INTRA:                   0.017
REMARK UNBOUND:                -0.342
REMARK  Name = 
REMARK  7 active torsions:
REMARK  status: ('A' for Active; 'I' for Inactive)
REMARK    1  A    between atoms: C_1  and  C_2
REMARK    2  A    between atoms: C_2  and  C_3
REMARK    3  A    between atoms: C_2  and  C_4
REMARK    4  A    between atoms: C_2  and  O_5
REMARK    5  A    between atoms: O_5  and  C_6
REMARK    6  A    between atoms: N_14  and  C_15
REMARK    7  A    between atoms: C_15  and  C_16
REMARK                            x       y       z     vdW  Elec       q    Type
REMARK                         _______ _______ _______ _____ _____    ______ ____
ROOT
ATOM      1  C   UNL     1      46.983   4.814  13.552  0.00  0.00    +0.000 C 
ATOM      2  O   UNL     1      47.904   4.031  13.373  0.00  0.00    +0.000 OA
ATOM      3  N   UNL     1      45.718   4.576  13.055  0.00  0.00    +0.000 N 
ATOM      4  C   UNL     1      44.555   5.466  13.240  0.00  0.00    +0.000 C 
ATOM      5  C   UNL     1      44.134   6.130  11.912  0.00  0.00    +0.000 C 
ATOM      6  C   UNL     1      44.166   5.109  10.833  0.00  0.00    +0.000 A 
ATOM      7  N   UNL     1      43.574   5.221   9.609  0.00  0.00    +0.000 NA
ATOM      8  C   UNL     1      43.898   4.111   8.978  0.00  0.00    +0.000 A 
ATOM      9  N   UNL     1      44.697   3.296   9.741  0.00  0.00    +0.000 N 
ATOM     10  C   UNL     1      44.834   3.911  10.956  0.00  0.00    +0.000 A 
ATOM     11  C   UNL     1      45.550   3.430  12.158  0.00  0.00    +0.000 C 
ENDROOT
BRANCH   1  12
ATOM     12  O   UNL     1      47.095   5.988  14.241  0.00  0.00    +0.000 OA
BRANCH  12  14
ATOM     13  C   UNL     1      47.843   6.976  12.106  0.00  0.00    +0.000 C 
ATOM     14  C   UNL     1      47.869   7.064  13.639  0.00  0.00    +0.000 C 
ATOM     15  C   UNL     1      49.296   7.090  14.206  0.00  0.00    +0.000 C 
ATOM     16  C   UNL     1      47.183   8.386  14.033  0.00  0.00    +0.000 C 
ENDBRANCH  12  14
ENDBRANCH   1  12
BRANCH   9  17
ATOM     17  C   UNL     1      45.214   1.996   9.342  0.00  0.00    +0.000 C 
BRANCH  17  18
ATOM     18  C   UNL     1      46.104   2.072   8.133  0.00  0.00    +0.000 A 
ATOM     19  C   UNL     1      46.217   3.244   7.377  0.00  0.00    +0.000 A 
ATOM     20  C   UNL     1      47.063   3.282   6.271  0.00  0.00    +0.000 A 
ATOM     21  C   UNL     1      47.785   2.143   5.958  0.00  0.00    +0.000 A 
ATOM     22  N   UNL     1      47.724   1.001   6.672  0.00  0.00    +0.000 NA
ATOM     23  C   UNL     1      46.887   0.990   7.736  0.00  0.00    +0.000 A 
ENDBRANCH  17  18
ENDBRANCH   9  17
TORSDOF 4
ENDMDL
MODEL 3
REMARK VINA RESULT:    -5.781      4.021      7.474
REMARK INTER + INTRA:          -7.475
REMARK INTER:                  -7.275
REMARK INTRA:                  -0.200
REMARK UNBOUND:                -0.342
REMARK  Name = 
REMARK  7 active torsions:
REMARK  status: ('A' for Active; 'I' for Inactive)
REMARK    1  A    between atoms: C_1  and  C_2
REMARK    2  A    between atoms: C_2  and  C_3
REMARK    3  A    between atoms: C_2  and  C_4
REMARK    4  A    between atoms: C_2  and  O_5
REMARK    5  A    between atoms: O_5  and  C_6
REMARK    6  A    between atoms: N_14  and  C_15
REMARK    7  A    between atoms: C_15  and  C_16
REMARK                            x       y       z     vdW  Elec       q    Type
REMARK                         _______ _______ _______ _____ _____    ______ ____
ROOT
ATOM      1  C   UNL     1      45.622   4.992  13.301  0.00  0.00    +0.000 C 
ATOM      2  O   UNL     1      44.977   4.221  13.998  0.00  0.00    +0.000 OA
ATOM      3  N   UNL     1      46.954   5.253  13.545  0.00  0.00    +0.000 N 
ATOM      4  C   UNL     1      47.799   6.160  12.743  0.00  0.00    +0.000 C 
ATOM      5  C   UNL     1      48.182   7.427  13.536  0.00  0.00    +0.000 C 
ATOM      6  C   UNL     1      48.561   7.031  14.918  0.00  0.00    +0.000 A 
ATOM      7  N   UNL     1      49.245   7.804  15.811  0.00  0.00    +0.000 NA
ATOM      8  C   UNL     1      49.315   7.071  16.903  0.00  0.00    +0.000 A 
ATOM      9  N   UNL     1      48.682   5.861  16.755  0.00  0.00    +0.000 N 
ATOM     10  C   UNL     1      48.235   5.810  15.464  0.00  0.00    +0.000 A 
ATOM     11  C   UNL     1      47.536   4.703  14.773  0.00  0.00    +0.000 C 
ENDROOT
BRANCH   1  12
ATOM     12  O   UNL     1      45.111   5.672  12.232  0.00  0.00    +0.000 OA
BRANCH  12  14
ATOM     13  C   UNL     1      45.018   3.413  11.240  0.00  0.00    +0.000 C 
ATOM     14  C   UNL     1      44.811   4.919  11.022  0.00  0.00    +0.000 C 
ATOM     15  C   UNL     1      45.617   5.462   9.832  0.00  0.00    +0.000 C 
ATOM     16  C   UNL     1      43.318   5.136  10.716  0.00  0.00    +0.000 C 
ENDBRANCH  12  14
ENDBRANCH   1  12
BRANCH   9  17
ATOM     17  C   UNL     1      48.592   4.820  17.767  0.00  0.00    +0.000 C 
BRANCH  17  18
ATOM     18  C   UNL     1      49.673   3.784  17.632  0.00  0.00    +0.000 A 
ATOM     19  C   UNL     1      50.974   4.018  18.090  0.00  0.00    +0.000 A 
ATOM     20  C   UNL     1      51.947   3.029  17.960  0.00  0.00    +0.000 A 
ATOM     21  C   UNL     1      51.585   1.824  17.383  0.00  0.00    +0.000 A 
ATOM     22  N   UNL     1      50.339   1.550  16.949  0.00  0.00    +0.000 NA
ATOM     23  C   UNL     1      49.417   2.531  17.079  0.00  0.00    +0.000 A 
ENDBRANCH  17  18
ENDBRANCH   9  17
TORSDOF 4
ENDMDL
MODEL 4
REMARK VINA RESULT:    -5.493      3.412      7.889
REMARK INTER + INTRA:          -7.119
REMARK INTER:                  -6.742
REMARK INTRA:                  -0.377
REMARK UNBOUND:                -0.342
REMARK  Name = 
REMARK  7 active torsions:
REMARK  status: ('A' for Active; 'I' for Inactive)
REMARK    1  A    between atoms: C_1  and  C_2
REMARK    2  A    between atoms: C_2  and  C_3
REMARK    3  A    between atoms: C_2  and  C_4
REMARK    4  A    between atoms: C_2  and  O_5
REMARK    5  A    between atoms: O_5  and  C_6
REMARK    6  A    between atoms: N_14  and  C_15
REMARK    7  A    between atoms: C_15  and  C_16
REMARK                            x       y       z     vdW  Elec       q    Type
REMARK                         _______ _______ _______ _____ _____    ______ ____
ROOT
ATOM      1  C   UNL     1      45.707   5.182  13.473  0.00  0.00    +0.000 C 
ATOM      2  O   UNL     1      45.967   4.170  14.107  0.00  0.00    +0.000 OA
ATOM      3  N   UNL     1      46.666   6.136  13.198  0.00  0.00    +0.000 N 
ATOM      4  C   UNL     1      46.433   7.374  12.430  0.00  0.00    +0.000 C 
ATOM      5  C   UNL     1      46.525   8.625  13.330  0.00  0.00    +0.000 C 
ATOM      6  C   UNL     1      47.697   8.481  14.233  0.00  0.00    +0.000 A 
ATOM      7  N   UNL     1      48.288   9.486  14.941  0.00  0.00    +0.000 NA
ATOM      8  C   UNL     1      49.246   8.895  15.625  0.00  0.00    +0.000 A 
ATOM      9  N   UNL     1      49.281   7.541  15.401  0.00  0.00    +0.000 N 
ATOM     10  C   UNL     1      48.316   7.274  14.468  0.00  0.00    +0.000 A 
ATOM     11  C   UNL     1      47.975   5.979  13.838  0.00  0.00    +0.000 C 
ENDROOT
BRANCH   1  12
ATOM     12  O   UNL     1      44.470   5.484  12.978  0.00  0.00    +0.000 OA
BRANCH  12  14
ATOM     13  C   UNL     1      43.529   3.271  12.419  0.00  0.00    +0.000 C 
ATOM     14  C   UNL     1      43.943   4.657  11.902  0.00  0.00    +0.000 C 
ATOM     15  C   UNL     1      44.942   4.579  10.737  0.00  0.00    +0.000 C 
ATOM     16  C   UNL     1      42.670   5.351  11.384  0.00  0.00    +0.000 C 
ENDBRANCH  12  14
ENDBRANCH   1  12
BRANCH   9  17
ATOM     17  C   UNL     1      50.227   6.606  15.991  0.00  0.00    +0.000 C 
BRANCH  17  18
ATOM     18  C   UNL     1      49.693   5.945  17.232  0.00  0.00    +0.000 A 
ATOM     19  C   UNL     1      49.092   4.683  17.190  0.00  0.00    +0.000 A 
ATOM     20  C   UNL     1      48.622   4.095  18.362  0.00  0.00    +0.000 A 
ATOM     21  C   UNL     1      48.777   4.787  19.551  0.00  0.00    +0.000 A 
ATOM     22  N   UNL     1      49.370   5.994  19.639  0.00  0.00    +0.000 NA
ATOM     23  C   UNL     1      49.809   6.545  18.484  0.00  0.00    +0.000 A 
ENDBRANCH  17  18
ENDBRANCH   9  17
TORSDOF 4
ENDMDL
MODEL 5
REMARK VINA RESULT:    -5.450      2.638      6.817
REMARK INTER + INTRA:          -7.067
REMARK INTER:                  -6.718
REMARK INTRA:                  -0.349
REMARK UNBOUND:                -0.342
REMARK  Name = 
REMARK  7 active torsions:
REMARK  status: ('A' for Active; 'I' for Inactive)
REMARK    1  A    between atoms: C_1  and  C_2
REMARK    2  A    between atoms: C_2  and  C_3
REMARK    3  A    between atoms: C_2  and  C_4
REMARK    4  A    between atoms: C_2  and  O_5
REMARK    5  A    between atoms: O_5  and  C_6
REMARK    6  A    between atoms: N_14  and  C_15
REMARK    7  A    between atoms: C_15  and  C_16
REMARK                            x       y       z     vdW  Elec       q    Type
REMARK                         _______ _______ _______ _____ _____    ______ ____
ROOT
ATOM      1  C   UNL     1      45.807   5.198  11.430  0.00  0.00    +0.000 C 
ATOM      2  O   UNL     1      46.029   5.818  10.399  0.00  0.00    +0.000 OA
ATOM      3  N   UNL     1      46.037   5.748  12.674  0.00  0.00    +0.000 N 
ATOM      4  C   UNL     1      45.784   5.067  13.960  0.00  0.00    +0.000 C 
ATOM      5  C   UNL     1      47.101   4.736  14.694  0.00  0.00    +0.000 C 
ATOM      6  C   UNL     1      48.010   5.909  14.601  0.00  0.00    +0.000 A 
ATOM      7  N   UNL     1      49.115   6.124  15.372  0.00  0.00    +0.000 NA
ATOM      8  C   UNL     1      49.626   7.249  14.915  0.00  0.00    +0.000 A 
ATOM      9  N   UNL     1      48.903   7.756  13.863  0.00  0.00    +0.000 N 
ATOM     10  C   UNL     1      47.833   6.923  13.687  0.00  0.00    +0.000 A 
ATOM     11  C   UNL     1      46.717   7.045  12.724  0.00  0.00    +0.000 C 
ENDROOT
BRANCH   1  12
ATOM     12  O   UNL     1      45.325   3.921  11.469  0.00  0.00    +0.000 OA
BRANCH  12  14
ATOM     13  C   UNL     1      44.191   3.087   9.441  0.00  0.00    +0.000 C 
ATOM     14  C   UNL     1      44.030   3.658  10.858  0.00  0.00    +0.000 C 
ATOM     15  C   UNL     1      43.149   4.916  10.892  0.00  0.00    +0.000 C 
ATOM     16  C   UNL     1      43.341   2.578  11.711  0.00  0.00    +0.000 C 
ENDBRANCH  12  14
ENDBRANCH   1  12
BRANCH   9  17
ATOM     17  C   UNL     1      49.194   8.990  13.148  0.00  0.00    +0.000 C 
BRANCH  17  18
ATOM     18  C   UNL     1      50.373   8.860  12.224  0.00  0.00    +0.000 A 
ATOM     19  C   UNL     1      50.514   7.766  11.364  0.00  0.00    +0.000 A 
ATOM     20  C   UNL     1      51.613   7.687  10.511  0.00  0.00    +0.000 A 
ATOM     21  C   UNL     1      52.538   8.716  10.536  0.00  0.00    +0.000 A 
ATOM     22  N   UNL     1      52.429   9.798  11.332  0.00  0.00    +0.000 NA
ATOM     23  C   UNL     1      51.356   9.845  12.156  0.00  0.00    +0.000 A 
ENDBRANCH  17  18
ENDBRANCH   9  17
TORSDOF 4
ENDMDL
MODEL 6
REMARK VINA RESULT:    -5.443      4.049      5.951
REMARK INTER + INTRA:          -7.058
REMARK INTER:                  -7.139
REMARK INTRA:                   0.081
REMARK UNBOUND:                -0.342
REMARK  Name = 
REMARK  7 active torsions:
REMARK  status: ('A' for Active; 'I' for Inactive)
REMARK    1  A    between atoms: C_1  and  C_2
REMARK    2  A    between atoms: C_2  and  C_3
REMARK    3  A    between atoms: C_2  and  C_4
REMARK    4  A    between atoms: C_2  and  O_5
REMARK    5  A    between atoms: O_5  and  C_6
REMARK    6  A    between atoms: N_14  and  C_15
REMARK    7  A    between atoms: C_15  and  C_16
REMARK                            x       y       z     vdW  Elec       q    Type
REMARK                         _______ _______ _______ _____ _____    ______ ____
ROOT
ATOM      1  C   UNL     1      49.133   3.908  17.840  0.00  0.00    +0.000 C 
ATOM      2  O   UNL     1      48.967   2.708  17.677  0.00  0.00    +0.000 OA
ATOM      3  N   UNL     1      48.344   4.845  17.206  0.00  0.00    +0.000 N 
ATOM      4  C   UNL     1      48.476   6.307  17.362  0.00  0.00    +0.000 C 
ATOM      5  C   UNL     1      48.994   6.971  16.068  0.00  0.00    +0.000 C 
ATOM      6  C   UNL     1      48.284   6.375  14.906  0.00  0.00    +0.000 A 
ATOM      7  N   UNL     1      48.232   6.899  13.648  0.00  0.00    +0.000 NA
ATOM      8  C   UNL     1      47.540   6.023  12.949  0.00  0.00    +0.000 A 
ATOM      9  N   UNL     1      47.162   4.941  13.705  0.00  0.00    +0.000 N 
ATOM     10  C   UNL     1      47.597   5.184  14.979  0.00  0.00    +0.000 A 
ATOM     11  C   UNL     1      47.402   4.361  16.193  0.00  0.00    +0.000 C 
ENDROOT
BRANCH   1  12
ATOM     12  O   UNL     1      50.097   4.448  18.644  0.00  0.00    +0.000 OA
BRANCH  12  14
ATOM     13  C   UNL     1      51.641   2.782  17.678  0.00  0.00    +0.000 C 
ATOM     14  C   UNL     1      51.489   4.165  18.328  0.00  0.00    +0.000 C 
ATOM     15  C   UNL     1      52.374   4.335  19.572  0.00  0.00    +0.000 C 
ATOM     16  C   UNL     1      51.935   5.210  17.288  0.00  0.00    +0.000 C 
ENDBRANCH  12  14
ENDBRANCH   1  12
BRANCH   9  17
ATOM     17  C   UNL     1      46.378   3.808  13.236  0.00  0.00    +0.000 C 
BRANCH  17  18
ATOM     18  C   UNL     1      45.097   4.227  12.568  0.00  0.00    +0.000 A 
ATOM     19  C   UNL     1      44.880   4.014  11.202  0.00  0.00    +0.000 A 
ATOM     20  C   UNL     1      43.675   4.402  10.620  0.00  0.00    +0.000 A 
ATOM     21  C   UNL     1      42.713   4.984  11.428  0.00  0.00    +0.000 A 
ATOM     22  N   UNL     1      42.873   5.186  12.751  0.00  0.00    +0.000 NA
ATOM     23  C   UNL     1      44.056   4.808  13.288  0.00  0.00    +0.000 A 
ENDBRANCH  17  18
ENDBRANCH   9  17
TORSDOF 4
ENDMDL
MODEL 7
REMARK VINA RESULT:    -5.356      3.770      5.598
REMARK INTER + INTRA:          -6.950
REMARK INTER:                  -6.639
REMARK INTRA:                  -0.311
REMARK UNBOUND:                -0.342
REMARK  Name = 
REMARK  7 active torsions:
REMARK  status: ('A' for Active; 'I' for Inactive)
REMARK    1  A    between atoms: C_1  and  C_2
REMARK    2  A    between atoms: C_2  and  C_3
REMARK    3  A    between atoms: C_2  and  C_4
REMARK    4  A    between atoms: C_2  and  O_5
REMARK    5  A    between atoms: O_5  and  C_6
REMARK    6  A    between atoms: N_14  and  C_15
REMARK    7  A    between atoms: C_15  and  C_16
REMARK                            x       y       z     vdW  Elec       q    Type
REMARK                         _______ _______ _______ _____ _____    ______ ____
ROOT
ATOM      1  C   UNL     1      48.678   7.371  17.991  0.00  0.00    +0.000 C 
ATOM      2  O   UNL     1      48.107   8.412  17.702  0.00  0.00    +0.000 OA
ATOM      3  N   UNL     1      49.027   6.441  17.033  0.00  0.00    +0.000 N 
ATOM      4  C   UNL     1      49.726   5.169  17.303  0.00  0.00    +0.000 C 
ATOM      5  C   UNL     1      48.804   3.955  17.066  0.00  0.00    +0.000 C 
ATOM      6  C   UNL     1      48.041   4.170  15.809  0.00  0.00    +0.000 A 
ATOM      7  N   UNL     1      47.372   3.210  15.107  0.00  0.00    +0.000 NA
ATOM      8  C   UNL     1      46.817   3.856  14.102  0.00  0.00    +0.000 A 
ATOM      9  N   UNL     1      47.085   5.203  14.142  0.00  0.00    +0.000 N 
ATOM     10  C   UNL     1      47.913   5.404  15.212  0.00  0.00    +0.000 A 
ATOM     11  C   UNL     1      48.541   6.664  15.668  0.00  0.00    +0.000 C 
ENDROOT
BRANCH   1  12
ATOM     12  O   UNL     1      49.023   7.011  19.263  0.00  0.00    +0.000 OA
BRANCH  12  14
ATOM     13  C   UNL     1      46.802   5.935  19.350  0.00  0.00    +0.000 C 
ATOM     14  C   UNL     1      47.971   6.532  20.148  0.00  0.00    +0.000 C 
ATOM     15  C   UNL     1      47.523   7.643  21.110  0.00  0.00    +0.000 C 
ATOM     16  C   UNL     1      48.576   5.396  20.992  0.00  0.00    +0.000 C 
ENDBRANCH  12  14
ENDBRANCH   1  12
BRANCH   9  17
ATOM     17  C   UNL     1      46.632   6.188  13.173  0.00  0.00    +0.000 C 
BRANCH  17  18
ATOM     18  C   UNL     1      45.430   5.729  12.396  0.00  0.00    +0.000 A 
ATOM     19  C   UNL     1      44.147   5.742  12.954  0.00  0.00    +0.000 A 
ATOM     20  C   UNL     1      43.054   5.322  12.198  0.00  0.00    +0.000 A 
ATOM     21  C   UNL     1      43.276   4.909  10.896  0.00  0.00    +0.000 A 
ATOM     22  N   UNL     1      44.491   4.901  10.313  0.00  0.00    +0.000 NA
ATOM     23  C   UNL     1      45.536   5.306  11.073  0.00  0.00    +0.000 A 
ENDBRANCH  17  18
ENDBRANCH   9  17
TORSDOF 4
ENDMDL
MODEL 8
REMARK VINA RESULT:    -4.884      4.014      6.313
REMARK INTER + INTRA:          -6.369
REMARK INTER:                  -5.878
REMARK INTRA:                  -0.491
REMARK UNBOUND:                -0.342
REMARK  Name = 
REMARK  7 active torsions:
REMARK  status: ('A' for Active; 'I' for Inactive)
REMARK    1  A    between atoms: C_1  and  C_2
REMARK    2  A    between atoms: C_2  and  C_3
REMARK    3  A    between atoms: C_2  and  C_4
REMARK    4  A    between atoms: C_2  and  O_5
REMARK    5  A    between atoms: O_5  and  C_6
REMARK    6  A    between atoms: N_14  and  C_15
REMARK    7  A    between atoms: C_15  and  C_16
REMARK                            x       y       z     vdW  Elec       q    Type
REMARK                         _______ _______ _______ _____ _____    ______ ____
ROOT
ATOM      1  C   UNL     1      50.647   7.858  14.216  0.00  0.00    +0.000 C 
ATOM      2  O   UNL     1      51.298   7.476  15.178  0.00  0.00    +0.000 OA
ATOM      3  N   UNL     1      49.278   7.700  14.155  0.00  0.00    +0.000 N 
ATOM      4  C   UNL     1      48.425   8.145  13.035  0.00  0.00    +0.000 C 
ATOM      5  C   UNL     1      47.843   6.947  12.256  0.00  0.00    +0.000 C 
ATOM      6  C   UNL     1      47.377   5.923  13.228  0.00  0.00    +0.000 A 
ATOM      7  N   UNL     1      46.537   4.883  12.953  0.00  0.00    +0.000 NA
ATOM      8  C   UNL     1      46.440   4.222  14.088  0.00  0.00    +0.000 A 
ATOM      9  N   UNL     1      47.204   4.784  15.081  0.00  0.00    +0.000 N 
ATOM     10  C   UNL     1      47.773   5.908  14.547  0.00  0.00    +0.000 A 
ATOM     11  C   UNL     1      48.642   6.905  15.209  0.00  0.00    +0.000 C 
ENDROOT
BRANCH   1  12
ATOM     12  O   UNL     1      51.185   8.464  13.116  0.00  0.00    +0.000 OA
BRANCH  12  14
ATOM     13  C   UNL     1      53.266   9.676  13.657  0.00  0.00    +0.000 C 
ATOM     14  C   UNL     1      51.780   9.782  13.283  0.00  0.00    +0.000 C 
ATOM     15  C   UNL     1      50.975  10.618  14.290  0.00  0.00    +0.000 C 
ATOM     16  C   UNL     1      51.701  10.488  11.917  0.00  0.00    +0.000 C 
ENDBRANCH  12  14
ENDBRANCH   1  12
BRANCH   9  17
ATOM     17  C   UNL     1      47.304   4.305  16.451  0.00  0.00    +0.000 C 
BRANCH  17  18
ATOM     18  C   UNL     1      48.586   3.565  16.715  0.00  0.00    +0.000 A 
ATOM     19  C   UNL     1      49.610   4.125  17.487  0.00  0.00    +0.000 A 
ATOM     20  C   UNL     1      50.779   3.404  17.722  0.00  0.00    +0.000 A 
ATOM     21  C   UNL     1      50.885   2.133  17.185  0.00  0.00    +0.000 A 
ATOM     22  N   UNL     1      49.915   1.548  16.455  0.00  0.00    +0.000 NA
ATOM     23  C   UNL     1      48.795   2.274  16.235  0.00  0.00    +0.000 A 
ENDBRANCH  17  18
ENDBRANCH   9  17
TORSDOF 4
ENDMDL
MODEL 9
REMARK VINA RESULT:    -4.864      2.443      3.951
REMARK INTER + INTRA:          -6.344
REMARK INTER:                  -6.041
REMARK INTRA:                  -0.303
REMARK UNBOUND:                -0.342
REMARK  Name = 
REMARK  7 active torsions:
REMARK  status: ('A' for Active; 'I' for Inactive)
REMARK    1  A    between atoms: C_1  and  C_2
REMARK    2  A    between atoms: C_2  and  C_3
REMARK    3  A    between atoms: C_2  and  C_4
REMARK    4  A    between atoms: C_2  and  O_5
REMARK    5  A    between atoms: O_5  and  C_6
REMARK    6  A    between atoms: N_14  and  C_15
REMARK    7  A    between atoms: C_15  and  C_16
REMARK                            x       y       z     vdW  Elec       q    Type
REMARK                         _______ _______ _______ _____ _____    ______ ____
ROOT
ATOM      1  C   UNL     1      49.967   8.369  11.629  0.00  0.00    +0.000 C 
ATOM      2  O   UNL     1      50.401   7.265  11.334  0.00  0.00    +0.000 OA
ATOM      3  N   UNL     1      48.796   8.525  12.340  0.00  0.00    +0.000 N 
ATOM      4  C   UNL     1      48.216   9.822  12.743  0.00  0.00    +0.000 C 
ATOM      5  C   UNL     1      46.910  10.121  11.978  0.00  0.00    +0.000 C 
ATOM      6  C   UNL     1      46.087   8.884  11.932  0.00  0.00    +0.000 A 
ATOM      7  N   UNL     1      44.758   8.819  11.628  0.00  0.00    +0.000 NA
ATOM      8  C   UNL     1      44.468   7.535  11.669  0.00  0.00    +0.000 A 
ATOM      9  N   UNL     1      45.567   6.766  11.965  0.00  0.00    +0.000 N 
ATOM     10  C   UNL     1      46.603   7.632  12.184  0.00  0.00    +0.000 A 
ATOM     11  C   UNL     1      47.992   7.325  12.589  0.00  0.00    +0.000 C 
ENDROOT
BRANCH   1  12
ATOM     12  O   UNL     1      50.572   9.548  11.294  0.00  0.00    +0.000 OA
BRANCH  12  14
ATOM     13  C   UNL     1      53.002   9.307  10.929  0.00  0.00    +0.000 C 
ATOM     14  C   UNL     1      51.888   9.824  11.852  0.00  0.00    +0.000 C 
ATOM     15  C   UNL     1      52.000   9.271  13.281  0.00  0.00    +0.000 C 
ATOM     16  C   UNL     1      52.032  11.355  11.928  0.00  0.00    +0.000 C 
ENDBRANCH  12  14
ENDBRANCH   1  12
BRANCH   9  17
ATOM     17  C   UNL     1      45.579   5.317  12.099  0.00  0.00    +0.000 C 
BRANCH  17  18
ATOM     18  C   UNL     1      45.219   4.613  10.820  0.00  0.00    +0.000 A 
ATOM     19  C   UNL     1      45.695   5.054   9.581  0.00  0.00    +0.000 A 
ATOM     20  C   UNL     1      45.352   4.368   8.417  0.00  0.00    +0.000 A 
ATOM     21  C   UNL     1      44.546   3.248   8.530  0.00  0.00    +0.000 A 
ATOM     22  N   UNL     1      44.085   2.776   9.705  0.00  0.00    +0.000 NA
ATOM     23  C   UNL     1      44.426   3.467  10.817  0.00  0.00    +0.000 A 
ENDBRANCH  17  18
ENDBRANCH   9  17
TORSDOF 4
ENDMDL
