MODEL 1
REMARK VINA RESULT:    -8.184      0.000      0.000
REMARK INTER + INTRA:         -11.314
REMARK INTER:                 -10.815
REMARK INTRA:                  -0.499
REMARK UNBOUND:                -0.499
REMARK  Name = 
REMARK  8 active torsions:
REMARK  status: ('A' for Active; 'I' for Inactive)
REMARK    1  A    between atoms: C_1  and  O_2
REMARK    2  A    between atoms: O_2  and  C_3
REMARK    3  A    between atoms: C_6  and  C_7
REMARK    4  A    between atoms: C_7  and  C_8
REMARK    5  A    between atoms: C_7  and  N_9
REMARK    6  A    between atoms: N_9  and  C_10
REMARK    7  A    between atoms: C_13  and  C_14
REMARK    8  A    between atoms: C_14  and  O_16
REMARK                            x       y       z     vdW  Elec       q    Type
REMARK                         _______ _______ _______ _____ _____    ______ ____
ROOT
ATOM      1  N   UNL     1      43.757   4.812   9.749  0.00  0.00    +0.000 N 
ATOM      2  H   UNL     1      42.817   4.637   9.387  0.00  0.00    +0.000 HD
ENDROOT
BRANCH   1   3
ATOM      3  C   UNL     1      44.697   3.957   9.185  0.00  0.00    +0.000 A 
ATOM      4  C   UNL     1      45.685   4.355   8.277  0.00  0.00    +0.000 A 
ATOM      5  C   UNL     1      46.526   3.423   7.654  0.00  0.00    +0.000 A 
ATOM      6  C   UNL     1      46.358   2.057   7.897  0.00  0.00    +0.000 A 
ATOM      7  C   UNL     1      45.390   1.638   8.811  0.00  0.00    +0.000 A 
ATOM      8  C   UNL     1      44.569   2.581   9.438  0.00  0.00    +0.000 A 
BRANCH   6   9
ATOM      9  C   UNL     1      47.189   1.030   7.223  0.00  0.00    +0.000 C 
ATOM     10  O   UNL     1      48.005   1.294   6.358  0.00  0.00    +0.000 OA
BRANCH   9  11
ATOM     11  O   UNL     1      46.993  -0.220   7.697  0.00  0.00    +0.000 OA
ATOM     12  H   UNL     1      47.696  -0.548   8.287  0.00  0.00    +0.000 HD
ENDBRANCH   9  11
ENDBRANCH   6   9
ENDBRANCH   1   3
BRANCH   1  13
ATOM     13  C   UNL     1      43.706   5.146  11.177  0.00  0.00    +0.000 C 
ATOM     14  C   UNL     1      43.018   3.992  11.911  0.00  0.00    +0.000 C 
BRANCH  13  18
ATOM     15  C   UNL     1      47.580   5.922  12.857  0.00  0.00    +0.000 A 
ATOM     16  C   UNL     1      46.851   4.826  13.299  0.00  0.00    +0.000 A 
ATOM     17  C   UNL     1      45.604   4.554  12.734  0.00  0.00    +0.000 A 
ATOM     18  C   UNL     1      45.105   5.392  11.734  0.00  0.00    +0.000 A 
ATOM     19  N   UNL     1      45.813   6.453  11.267  0.00  0.00    +0.000 NA
ATOM     20  C   UNL     1      47.027   6.683  11.834  0.00  0.00    +0.000 A 
BRANCH  15  22
ATOM     21  C   UNL     1      49.435   7.383  12.627  0.00  0.00    +0.000 C 
ATOM     22  O   UNL     1      48.795   6.323  13.332  0.00  0.00    +0.000 OA
ENDBRANCH  15  22
ENDBRANCH  13  18
ENDBRANCH   1  13
TORSDOF 6
ENDMDL
MODEL 2
REMARK VINA RESULT:    -8.162      1.272      1.966
REMARK INTER + INTRA:         -11.285
REMARK INTER:                 -10.659
REMARK INTRA:                  -0.625
REMARK UNBOUND:                -0.499
REMARK  Name = 
REMARK  8 active torsions:
REMARK  status: ('A' for Active; 'I' for Inactive)
REMARK    1  A    between atoms: C_1  and  O_2
REMARK    2  A    between atoms: O_2  and  C_3
REMARK    3  A    between atoms: C_6  and  C_7
REMARK    4  A    between atoms: C_7  and  C_8
REMARK    5  A    between atoms: C_7  and  N_9
REMARK    6  A    between atoms: N_9  and  C_10
REMARK    7  A    between atoms: C_13  and  C_14
REMARK    8  A    between atoms: C_14  and  O_16
REMARK                            x       y       z     vdW  Elec       q    Type
REMARK                         _______ _______ _______ _____ _____    ______ ____
ROOT
ATOM      1  N   UNL     1      43.770   3.803  10.434  0.00  0.00    +0.000 N 
ATOM      2  H   UNL     1      43.698   3.122  11.194  0.00  0.00    +0.000 HD
ENDROOT
BRANCH   1   3
ATOM      3  C   UNL     1      44.603   3.356   9.415  0.00  0.00    +0.000 A 
ATOM      4  C   UNL     1      45.060   2.039   9.287  0.00  0.00    +0.000 A 
ATOM      5  C   UNL     1      45.993   1.679   8.305  0.00  0.00    +0.000 A 
ATOM      6  C   UNL     1      46.526   2.653   7.457  0.00  0.00    +0.000 A 
ATOM      7  C   UNL     1      46.074   3.969   7.556  0.00  0.00    +0.000 A 
ATOM      8  C   UNL     1      45.129   4.310   8.529  0.00  0.00    +0.000 A 
BRANCH   6   9
ATOM      9  C   UNL     1      47.553   2.331   6.437  0.00  0.00    +0.000 C 
ATOM     10  O   UNL     1      48.360   1.427   6.564  0.00  0.00    +0.000 OA
BRANCH   9  11
ATOM     11  O   UNL     1      47.476   3.100   5.329  0.00  0.00    +0.000 OA
ATOM     12  H   UNL     1      47.295   2.613   4.505  0.00  0.00    +0.000 HD
ENDBRANCH   9  11
ENDBRANCH   6   9
ENDBRANCH   1   3
BRANCH   1  13
ATOM     13  C   UNL     1      43.789   5.170  10.967  0.00  0.00    +0.000 C 
ATOM     14  C   UNL     1      42.474   5.408  11.714  0.00  0.00    +0.000 C 
BRANCH  13  18
ATOM     15  C   UNL     1      47.234   5.668  13.481  0.00  0.00    +0.000 A 
ATOM     16  C   UNL     1      47.123   6.417  12.317  0.00  0.00    +0.000 A 
ATOM     17  C   UNL     1      45.991   6.279  11.512  0.00  0.00    +0.000 A 
ATOM     18  C   UNL     1      44.987   5.385  11.888  0.00  0.00    +0.000 A 
ATOM     19  N   UNL     1      45.060   4.663  13.036  0.00  0.00    +0.000 NA
ATOM     20  C   UNL     1      46.173   4.829  13.800  0.00  0.00    +0.000 A 
BRANCH  15  22
ATOM     21  C   UNL     1      48.728   6.958  14.796  0.00  0.00    +0.000 C 
ATOM     22  O   UNL     1      48.289   5.680  14.347  0.00  0.00    +0.000 OA
ENDBRANCH  15  22
ENDBRANCH  13  18
ENDBRANCH   1  13
TORSDOF 6
ENDMDL
MODEL 3
REMARK VINA RESULT:    -7.287      1.364      1.957
REMARK INTER + INTRA:         -10.129
REMARK INTER:                  -9.986
REMARK INTRA:                  -0.143
REMARK UNBOUND:                -0.499
REMARK  Name = 
REMARK  8 active torsions:
REMARK  status: ('A' for Active; 'I' for Inactive)
REMARK    1  A    between atoms: C_1  and  O_2
REMARK    2  A    between atoms: O_2  and  C_3
REMARK    3  A    between atoms: C_6  and  C_7
REMARK    4  A    between atoms: C_7  and  C_8
REMARK    5  A    between atoms: C_7  and  N_9
REMARK    6  A    between atoms: N_9  and  C_10
REMARK    7  A    between atoms: C_13  and  C_14
REMARK    8  A    between atoms: C_14  and  O_16
REMARK                            x       y       z     vdW  Elec       q    Type
REMARK                         _______ _______ _______ _____ _____    ______ ____
ROOT
ATOM      1  N   UNL     1      44.007   4.943   9.931  0.00  0.00    +0.000 N 
ATOM      2  H   UNL     1      43.017   4.996   9.683  0.00  0.00    +0.000 HD
ENDROOT
BRANCH   1   3
ATOM      3  C   UNL     1      44.664   3.937   9.230  0.00  0.00    +0.000 A 
ATOM      4  C   UNL     1      44.450   2.567   9.426  0.00  0.00    +0.000 A 
ATOM      5  C   UNL     1      45.229   1.603   8.772  0.00  0.00    +0.000 A 
ATOM      6  C   UNL     1      46.278   2.000   7.940  0.00  0.00    +0.000 A 
ATOM      7  C   UNL     1      46.501   3.359   7.718  0.00  0.00    +0.000 A 
ATOM      8  C   UNL     1      45.704   4.310   8.363  0.00  0.00    +0.000 A 
BRANCH   6   9
ATOM      9  C   UNL     1      47.163   1.018   7.267  0.00  0.00    +0.000 C 
ATOM     10  O   UNL     1      48.007   1.332   6.446  0.00  0.00    +0.000 OA
BRANCH   9  11
ATOM     11  O   UNL     1      46.980  -0.252   7.689  0.00  0.00    +0.000 OA
ATOM     12  H   UNL     1      47.285  -0.937   7.067  0.00  0.00    +0.000 HD
ENDBRANCH   9  11
ENDBRANCH   6   9
ENDBRANCH   1   3
BRANCH   1  13
ATOM     13  C   UNL     1      44.195   5.198  11.363  0.00  0.00    +0.000 C 
ATOM     14  C   UNL     1      44.747   3.923  12.007  0.00  0.00    +0.000 C 
BRANCH  13  18
ATOM     15  C   UNL     1      46.826   8.496  12.161  0.00  0.00    +0.000 A 
ATOM     16  C   UNL     1      47.349   7.214  12.057  0.00  0.00    +0.000 A 
ATOM     17  C   UNL     1      46.500   6.144  11.768  0.00  0.00    +0.000 A 
ATOM     18  C   UNL     1      45.135   6.378  11.594  0.00  0.00    +0.000 A 
ATOM     19  N   UNL     1      44.605   7.626  11.664  0.00  0.00    +0.000 NA
ATOM     20  C   UNL     1      45.462   8.646  11.937  0.00  0.00    +0.000 A 
BRANCH  15  22
ATOM     21  C   UNL     1      48.335   9.582  13.634  0.00  0.00    +0.000 C 
ATOM     22  O   UNL     1      47.526   9.628  12.462  0.00  0.00    +0.000 OA
ENDBRANCH  15  22
ENDBRANCH  13  18
ENDBRANCH   1  13
TORSDOF 6
ENDMDL
MODEL 4
REMARK VINA RESULT:    -6.465      1.840      6.835
REMARK INTER + INTRA:          -9.043
REMARK INTER:                  -8.501
REMARK INTRA:                  -0.542
REMARK UNBOUND:                -0.499
REMARK  Name = 
REMARK  8 active torsions:
REMARK  status: ('A' for Active; 'I' for Inactive)
REMARK    1  A    between atoms: C_1  and  O_2
REMARK    2  A    between atoms: O_2  and  C_3
REMARK    3  A    between atoms: C_6  and  C_7
REMARK    4  A    between atoms: C_7  and  C_8
REMARK    5  A    between atoms: C_7  and  N_9
REMARK    6  A    between atoms: N_9  and  C_10
REMARK    7  A    between atoms: C_13  and  C_14
REMARK    8  A    between atoms: C_14  and  O_16
REMARK                            x       y       z     vdW  Elec       q    Type
REMARK                         _______ _______ _______ _____ _____    ______ ____
ROOT
ATOM      1  N   UNL     1      44.959   6.305  10.800  0.00  0.00    +0.000 N 
ATOM      2  H   UNL     1      45.161   6.533   9.824  0.00  0.00    +0.000 HD
ENDROOT
BRANCH   1   3
ATOM      3  C   UNL     1      45.849   6.923  11.672  0.00  0.00    +0.000 A 
ATOM      4  C   UNL     1      47.066   6.368  12.085  0.00  0.00    +0.000 A 
ATOM      5  C   UNL     1      47.862   6.988  13.057  0.00  0.00    +0.000 A 
ATOM      6  C   UNL     1      47.424   8.163  13.673  0.00  0.00    +0.000 A 
ATOM      7  C   UNL     1      46.222   8.743  13.267  0.00  0.00    +0.000 A 
ATOM      8  C   UNL     1      45.446   8.122  12.282  0.00  0.00    +0.000 A 
BRANCH   6   9
ATOM      9  C   UNL     1      48.206   8.829  14.743  0.00  0.00    +0.000 C 
ATOM     10  O   UNL     1      49.408   9.016  14.673  0.00  0.00    +0.000 OA
BRANCH   9  11
ATOM     11  O   UNL     1      47.452   9.254  15.780  0.00  0.00    +0.000 OA
ATOM     12  H   UNL     1      46.910  10.042  15.595  0.00  0.00    +0.000 HD
ENDBRANCH   9  11
ENDBRANCH   6   9
ENDBRANCH   1   3
BRANCH   1  13
ATOM     13  C   UNL     1      44.528   4.908  10.925  0.00  0.00    +0.000 C 
ATOM     14  C   UNL     1      42.998   4.886  10.987  0.00  0.00    +0.000 C 
BRANCH  13  18
ATOM     15  C   UNL     1      46.099   2.531   7.714  0.00  0.00    +0.000 A 
ATOM     16  C   UNL     1      45.470   1.906   8.782  0.00  0.00    +0.000 A 
ATOM     17  C   UNL     1      44.933   2.678   9.814  0.00  0.00    +0.000 A 
ATOM     18  C   UNL     1      45.039   4.069   9.758  0.00  0.00    +0.000 A 
ATOM     19  N   UNL     1      45.625   4.704   8.710  0.00  0.00    +0.000 NA
ATOM     20  C   UNL     1      46.130   3.921   7.719  0.00  0.00    +0.000 A 
BRANCH  15  22
ATOM     21  C   UNL     1      48.067   2.202   6.430  0.00  0.00    +0.000 C 
ATOM     22  O   UNL     1      46.691   1.908   6.653  0.00  0.00    +0.000 OA
ENDBRANCH  15  22
ENDBRANCH  13  18
ENDBRANCH   1  13
TORSDOF 6
ENDMDL
MODEL 5
REMARK VINA RESULT:    -6.409      1.537      5.983
REMARK INTER + INTRA:          -8.969
REMARK INTER:                  -8.784
REMARK INTRA:                  -0.185
REMARK UNBOUND:                -0.499
REMARK  Name = 
REMARK  8 active torsions:
REMARK  status: ('A' for Active; 'I' for Inactive)
REMARK    1  A    between atoms: C_1  and  O_2
REMARK    2  A    between atoms: O_2  and  C_3
REMARK    3  A    between atoms: C_6  and  C_7
REMARK    4  A    between atoms: C_7  and  C_8
REMARK    5  A    between atoms: C_7  and  N_9
REMARK    6  A    between atoms: N_9  and  C_10
REMARK    7  A    between atoms: C_13  and  C_14
REMARK    8  A    between atoms: C_14  and  O_16
REMARK                            x       y       z     vdW  Elec       q    Type
REMARK                         _______ _______ _______ _____ _____    ______ ____
ROOT
ATOM      1  N   UNL     1      43.893   4.460  13.075  0.00  0.00    +0.000 N 
ATOM      2  H   UNL     1      43.302   4.563  13.903  0.00  0.00    +0.000 HD
ENDROOT
BRANCH   1   3
ATOM      3  C   UNL     1      45.017   5.276  13.136  0.00  0.00    +0.000 A 
ATOM      4  C   UNL     1      45.012   6.650  12.866  0.00  0.00    +0.000 A 
ATOM      5  C   UNL     1      46.199   7.394  12.828  0.00  0.00    +0.000 A 
ATOM      6  C   UNL     1      47.429   6.757  13.015  0.00  0.00    +0.000 A 
ATOM      7  C   UNL     1      47.458   5.392  13.300  0.00  0.00    +0.000 A 
ATOM      8  C   UNL     1      46.263   4.666  13.352  0.00  0.00    +0.000 A 
BRANCH   6   9
ATOM      9  C   UNL     1      48.715   7.492  12.933  0.00  0.00    +0.000 C 
ATOM     10  O   UNL     1      48.808   8.696  13.095  0.00  0.00    +0.000 OA
BRANCH   9  11
ATOM     11  O   UNL     1      49.781   6.692  12.713  0.00  0.00    +0.000 OA
ATOM     12  H   UNL     1      50.459   6.713  13.413  0.00  0.00    +0.000 HD
ENDBRANCH   9  11
ENDBRANCH   6   9
ENDBRANCH   1   3
BRANCH   1  13
ATOM     13  C   UNL     1      43.071   4.286  11.872  0.00  0.00    +0.000 C 
ATOM     14  C   UNL     1      42.348   5.608  11.595  0.00  0.00    +0.000 C 
BRANCH  13  18
ATOM     15  C   UNL     1      45.353   3.144   8.420  0.00  0.00    +0.000 A 
ATOM     16  C   UNL     1      45.356   4.469   8.833  0.00  0.00    +0.000 A 
ATOM     17  C   UNL     1      44.639   4.839   9.972  0.00  0.00    +0.000 A 
ATOM     18  C   UNL     1      43.924   3.869  10.678  0.00  0.00    +0.000 A 
ATOM     19  N   UNL     1      43.929   2.562  10.309  0.00  0.00    +0.000 NA
ATOM     20  C   UNL     1      44.645   2.237   9.200  0.00  0.00    +0.000 A 
BRANCH  15  22
ATOM     21  C   UNL     1      46.869   1.549   7.534  0.00  0.00    +0.000 C 
ATOM     22  O   UNL     1      45.984   2.644   7.318  0.00  0.00    +0.000 OA
ENDBRANCH  15  22
ENDBRANCH  13  18
ENDBRANCH   1  13
TORSDOF 6
ENDMDL
MODEL 6
REMARK VINA RESULT:    -6.254      1.827      6.728
REMARK INTER + INTRA:          -8.764
REMARK INTER:                  -8.241
REMARK INTRA:                  -0.523
REMARK UNBOUND:                -0.499
REMARK  Name = 
REMARK  8 active torsions:
REMARK  status: ('A' for Active; 'I' for Inactive)
REMARK    1  A    between atoms: C_1  and  O_2
REMARK    2  A    between atoms: O_2  and  C_3
REMARK    3  A    between atoms: C_6  and  C_7
REMARK    4  A    between atoms: C_7  and  C_8
REMARK    5  A    between atoms: C_7  and  N_9
REMARK    6  A    between atoms: N_9  and  C_10
REMARK    7  A    between atoms: C_13  and  C_14
REMARK    8  A    between atoms: C_14  and  O_16
REMARK                            x       y       z     vdW  Elec       q    Type
REMARK                         _______ _______ _______ _____ _____    ______ ____
ROOT
ATOM      1  N   UNL     1      45.596   5.706  11.418  0.00  0.00    +0.000 N 
ATOM      2  H   UNL     1      46.130   6.039  10.611  0.00  0.00    +0.000 HD
ENDROOT
BRANCH   1   3
ATOM      3  C   UNL     1      46.384   5.614  12.559  0.00  0.00    +0.000 A 
ATOM      4  C   UNL     1      46.255   4.616  13.532  0.00  0.00    +0.000 A 
ATOM      5  C   UNL     1      47.000   4.648  14.718  0.00  0.00    +0.000 A 
ATOM      6  C   UNL     1      47.863   5.717  14.973  0.00  0.00    +0.000 A 
ATOM      7  C   UNL     1      48.020   6.715  14.011  0.00  0.00    +0.000 A 
ATOM      8  C   UNL     1      47.282   6.661  12.824  0.00  0.00    +0.000 A 
BRANCH   6   9
ATOM      9  C   UNL     1      48.634   5.821  16.236  0.00  0.00    +0.000 C 
ATOM     10  O   UNL     1      49.825   5.577  16.313  0.00  0.00    +0.000 OA
BRANCH   9  11
ATOM     11  O   UNL     1      47.902   6.263  17.282  0.00  0.00    +0.000 OA
ATOM     12  H   UNL     1      47.258   6.960  17.064  0.00  0.00    +0.000 HD
ENDBRANCH   9  11
ENDBRANCH   6   9
ENDBRANCH   1   3
BRANCH   1  13
ATOM     13  C   UNL     1      44.627   4.684  11.008  0.00  0.00    +0.000 C 
ATOM     14  C   UNL     1      43.290   5.379  10.732  0.00  0.00    +0.000 C 
BRANCH  13  18
ATOM     15  C   UNL     1      46.133   2.542   7.605  0.00  0.00    +0.000 A 
ATOM     16  C   UNL     1      45.580   1.837   8.666  0.00  0.00    +0.000 A 
ATOM     17  C   UNL     1      45.063   2.532   9.761  0.00  0.00    +0.000 A 
ATOM     18  C   UNL     1      45.113   3.927   9.775  0.00  0.00    +0.000 A 
ATOM     19  N   UNL     1      45.624   4.639   8.737  0.00  0.00    +0.000 NA
ATOM     20  C   UNL     1      46.111   3.929   7.683  0.00  0.00    +0.000 A 
BRANCH  15  22
ATOM     21  C   UNL     1      47.079   2.911   5.462  0.00  0.00    +0.000 C 
ATOM     22  O   UNL     1      46.696   1.999   6.487  0.00  0.00    +0.000 OA
ENDBRANCH  15  22
ENDBRANCH  13  18
ENDBRANCH   1  13
TORSDOF 6
ENDMDL
MODEL 7
REMARK VINA RESULT:    -5.885      3.417      4.781
REMARK INTER + INTRA:          -8.276
REMARK INTER:                  -7.794
REMARK INTRA:                  -0.482
REMARK UNBOUND:                -0.499
REMARK  Name = 
REMARK  8 active torsions:
REMARK  status: ('A' for Active; 'I' for Inactive)
REMARK    1  A    between atoms: C_1  and  O_2
REMARK    2  A    between atoms: O_2  and  C_3
REMARK    3  A    between atoms: C_6  and  C_7
REMARK    4  A    between atoms: C_7  and  C_8
REMARK    5  A    between atoms: C_7  and  N_9
REMARK    6  A    between atoms: N_9  and  C_10
REMARK    7  A    between atoms: C_13  and  C_14
REMARK    8  A    between atoms: C_14  and  O_16
REMARK                            x       y       z     vdW  Elec       q    Type
REMARK                         _______ _______ _______ _____ _____    ______ ____
ROOT
ATOM      1  N   UNL     1      46.131   6.081  13.512  0.00  0.00    +0.000 N 
ATOM      2  H   UNL     1      45.583   5.978  14.369  0.00  0.00    +0.000 HD
ENDROOT
BRANCH   1   3
ATOM      3  C   UNL     1      45.631   5.294  12.480  0.00  0.00    +0.000 A 
ATOM      4  C   UNL     1      45.197   3.972  12.632  0.00  0.00    +0.000 A 
ATOM      5  C   UNL     1      44.816   3.194  11.531  0.00  0.00    +0.000 A 
ATOM      6  C   UNL     1      44.910   3.718  10.239  0.00  0.00    +0.000 A 
ATOM      7  C   UNL     1      45.325   5.039  10.064  0.00  0.00    +0.000 A 
ATOM      8  C   UNL     1      45.686   5.809  11.175  0.00  0.00    +0.000 A 
BRANCH   6   9
ATOM      9  C   UNL     1      44.567   2.918   9.038  0.00  0.00    +0.000 C 
ATOM     10  O   UNL     1      44.576   1.700   9.024  0.00  0.00    +0.000 OA
BRANCH   9  11
ATOM     11  O   UNL     1      44.194   3.666   7.978  0.00  0.00    +0.000 OA
ATOM     12  H   UNL     1      44.265   4.629   8.112  0.00  0.00    +0.000 HD
ENDBRANCH   9  11
ENDBRANCH   6   9
ENDBRANCH   1   3
BRANCH   1  13
ATOM     13  C   UNL     1      47.558   6.210  13.825  0.00  0.00    +0.000 C 
ATOM     14  C   UNL     1      47.896   7.702  13.899  0.00  0.00    +0.000 C 
BRANCH  13  18
ATOM     15  C   UNL     1      48.417   4.319  17.582  0.00  0.00    +0.000 A 
ATOM     16  C   UNL     1      47.417   3.802  16.770  0.00  0.00    +0.000 A 
ATOM     17  C   UNL     1      47.155   4.397  15.534  0.00  0.00    +0.000 A 
ATOM     18  C   UNL     1      47.900   5.507  15.135  0.00  0.00    +0.000 A 
ATOM     19  N   UNL     1      48.902   6.014  15.900  0.00  0.00    +0.000 NA
ATOM     20  C   UNL     1      49.136   5.404  17.093  0.00  0.00    +0.000 A 
BRANCH  15  22
ATOM     21  C   UNL     1      49.400   4.794  19.688  0.00  0.00    +0.000 C 
ATOM     22  O   UNL     1      48.766   3.860  18.819  0.00  0.00    +0.000 OA
ENDBRANCH  15  22
ENDBRANCH  13  18
ENDBRANCH   1  13
TORSDOF 6
ENDMDL
MODEL 8
REMARK VINA RESULT:    -5.594      3.487      7.714
REMARK INTER + INTRA:          -7.892
REMARK INTER:                  -7.351
REMARK INTRA:                  -0.540
REMARK UNBOUND:                -0.499
REMARK  Name = 
REMARK  8 active torsions:
REMARK  status: ('A' for Active; 'I' for Inactive)
REMARK    1  A    between atoms: C_1  and  O_2
REMARK    2  A    between atoms: O_2  and  C_3
REMARK    3  A    between atoms: C_6  and  C_7
REMARK    4  A    between atoms: C_7  and  C_8
REMARK    5  A    between atoms: C_7  and  N_9
REMARK    6  A    between atoms: N_9  and  C_10
REMARK    7  A    between atoms: C_13  and  C_14
REMARK    8  A    between atoms: C_14  and  O_16
REMARK                            x       y       z     vdW  Elec       q    Type
REMARK                         _______ _______ _______ _____ _____    ______ ____
ROOT
ATOM      1  N   UNL     1      47.519   5.885  13.692  0.00  0.00    +0.000 N 
ATOM      2  H   UNL     1      47.979   5.323  12.972  0.00  0.00    +0.000 HD
ENDROOT
BRANCH   1   3
ATOM      3  C   UNL     1      47.788   5.411  14.971  0.00  0.00    +0.000 A 
ATOM      4  C   UNL     1      47.183   4.285  15.541  0.00  0.00    +0.000 A 
ATOM      5  C   UNL     1      47.409   3.929  16.878  0.00  0.00    +0.000 A 
ATOM      6  C   UNL     1      48.217   4.731  17.687  0.00  0.00    +0.000 A 
ATOM      7  C   UNL     1      48.843   5.850  17.137  0.00  0.00    +0.000 A 
ATOM      8  C   UNL     1      48.622   6.183  15.796  0.00  0.00    +0.000 A 
BRANCH   6   9
ATOM      9  C   UNL     1      48.445   4.424  19.121  0.00  0.00    +0.000 C 
ATOM     10  O   UNL     1      48.658   5.280  19.961  0.00  0.00    +0.000 OA
BRANCH   9  11
ATOM     11  O   UNL     1      48.342   3.110  19.415  0.00  0.00    +0.000 OA
ATOM     12  H   UNL     1      47.754   2.904  20.165  0.00  0.00    +0.000 HD
ENDBRANCH   9  11
ENDBRANCH   6   9
ENDBRANCH   1   3
BRANCH   1  13
ATOM     13  C   UNL     1      46.190   6.313  13.241  0.00  0.00    +0.000 C 
ATOM     14  C   UNL     1      46.320   7.715  12.638  0.00  0.00    +0.000 C 
BRANCH  13  18
ATOM     15  C   UNL     1      44.699   3.486  10.373  0.00  0.00    +0.000 A 
ATOM     16  C   UNL     1      44.624   3.190  11.728  0.00  0.00    +0.000 A 
ATOM     17  C   UNL     1      45.081   4.119  12.664  0.00  0.00    +0.000 A 
ATOM     18  C   UNL     1      45.612   5.333  12.224  0.00  0.00    +0.000 A 
ATOM     19  N   UNL     1      45.671   5.656  10.906  0.00  0.00    +0.000 NA
ATOM     20  C   UNL     1      45.208   4.731  10.022  0.00  0.00    +0.000 A 
BRANCH  15  22
ATOM     21  C   UNL     1      45.326   1.826   8.799  0.00  0.00    +0.000 C 
ATOM     22  O   UNL     1      44.318   2.668   9.349  0.00  0.00    +0.000 OA
ENDBRANCH  15  22
ENDBRANCH  13  18
ENDBRANCH   1  13
TORSDOF 6
ENDMDL
