MODEL 1
REMARK VINA RESULT:    -8.143      0.000      0.000
REMARK INTER + INTRA:         -12.912
REMARK INTER:                 -11.713
REMARK INTRA:                  -1.199
REMARK UNBOUND:                -1.199
REMARK  Name = 
REMARK  8 active torsions:
REMARK  status: ('A' for Active; 'I' for Inactive)
REMARK    1  A    between atoms: N_1  and  C_2
REMARK    2  A    between atoms: C_2  and  C_3
REMARK    3  A    between atoms: C_2  and  C_24
REMARK    4  A    between atoms: C_3  and  C_4
REMARK    5  A    between atoms: C_7  and  C_8
REMARK    6  A    between atoms: C_8  and  N_9
REMARK    7  A    between atoms: C_10  and  C_12
REMARK    8  A    between atoms: N_26  and  C_27
REMARK                            x       y       z     vdW  Elec       q    Type
REMARK                         _______ _______ _______ _____ _____    ______ ____
ROOT
ATOM      1  C   UNL     1      45.711   4.670  12.765  0.00  0.00    +0.000 A 
ATOM      2  C   UNL     1      45.023   5.821  12.360  0.00  0.00    +0.000 A 
ATOM      3  C   UNL     1      45.537   7.096  12.620  0.00  0.00    +0.000 A 
ATOM      4  C   UNL     1      46.756   7.248  13.293  0.00  0.00    +0.000 A 
ATOM      5  C   UNL     1      47.437   6.095  13.701  0.00  0.00    +0.000 A 
ATOM      6  C   UNL     1      46.928   4.822  13.437  0.00  0.00    +0.000 A 
ENDROOT
BRANCH   1   7
ATOM      7  C   UNL     1      45.157   3.295  12.453  0.00  0.00    +0.000 C 
BRANCH   7   8
ATOM      8  C   UNL     1      43.931   3.294  11.508  0.00  0.00    +0.000 C 
BRANCH   8   9
ATOM      9  C   UNL     1      44.351   3.304  10.021  0.00  0.00    +0.000 C 
ATOM     10  O   UNL     1      43.921   4.148   9.224  0.00  0.00    +0.000 OA
ATOM     11  N   UNL     1      45.201   2.300   9.620  0.00  0.00    +0.000 N 
ATOM     12  H   UNL     1      45.465   1.575  10.279  0.00  0.00    +0.000 HD
BRANCH  11  13
ATOM     13  C   UNL     1      45.645   2.232   8.263  0.00  0.00    +0.000 C 
ATOM     14  C   UNL     1      46.562   1.034   8.006  0.00  0.00    +0.000 C 
ATOM     15  C   UNL     1      47.031   1.035   6.556  0.00  0.00    +0.000 C 
ATOM     16  C   UNL     1      47.681   2.375   6.222  0.00  0.00    +0.000 C 
ATOM     17  C   UNL     1      46.773   3.544   6.606  0.00  0.00    +0.000 C 
ATOM     18  N   UNL     1      46.339   3.483   8.010  0.00  0.00    +0.000 NA
ATOM     19  H   UNL     1      45.675   4.238   8.172  0.00  0.00    +0.000 HD
ENDBRANCH  11  13
ENDBRANCH   8   9
BRANCH   8  20
ATOM     20  N   UNL     1      43.014   2.154  11.770  0.00  0.00    +0.000 NA
ATOM     21  H   UNL     1      43.000   1.982  12.776  0.00  0.00    +0.000 HD
ATOM     22  H   UNL     1      43.465   1.324  11.371  0.00  0.00    +0.000 HD
ENDBRANCH   8  20
ENDBRANCH   7   8
ENDBRANCH   1   7
BRANCH   4  23
ATOM     23  C   UNL     1      47.344   8.602  13.605  0.00  0.00    +0.000 C 
BRANCH  23  24
ATOM     24  N   UNL     1      47.260   8.927  15.004  0.00  0.00    +0.000 N 
ATOM     25  C   UNL     1      48.382   8.954  15.794  0.00  0.00    +0.000 C 
ATOM     26  O   UNL     1      49.509   8.718  15.374  0.00  0.00    +0.000 OA
ATOM     27  H   UNL     1      46.367   8.750  15.452  0.00  0.00    +0.000 HD
BRANCH  25  28
ATOM     28  C   UNL     1      48.148   9.342  17.201  0.00  0.00    +0.000 A 
ATOM     29  C   UNL     1      48.039  10.680  17.548  0.00  0.00    +0.000 A 
ATOM     30  S   UNL     1      47.735  10.933  19.207  0.00  0.00    +0.000 S 
ATOM     31  C   UNL     1      47.783   9.260  19.528  0.00  0.00    +0.000 A 
ATOM     32  N   UNL     1      47.626   8.782  20.794  0.00  0.00    +0.000 NA
ATOM     33  C   UNL     1      47.712   7.498  20.894  0.00  0.00    +0.000 A 
ATOM     34  N   UNL     1      47.930   6.645  19.840  0.00  0.00    +0.000 N 
ATOM     35  C   UNL     1      48.037   7.080  18.542  0.00  0.00    +0.000 A 
ATOM     36  O   UNL     1      48.141   6.283  17.613  0.00  0.00    +0.000 OA
ATOM     37  C   UNL     1      47.989   8.517  18.382  0.00  0.00    +0.000 A 
ATOM     38  H   UNL     1      47.957   5.646  19.980  0.00  0.00    +0.000 HD
ENDBRANCH  25  28
ENDBRANCH  23  24
ENDBRANCH   4  23
TORSDOF 8
ENDMDL
MODEL 2
REMARK VINA RESULT:    -7.938      2.647      3.252
REMARK INTER + INTRA:         -12.617
REMARK INTER:                 -12.189
REMARK INTRA:                  -0.428
REMARK UNBOUND:                -1.199
REMARK  Name = 
REMARK  8 active torsions:
REMARK  status: ('A' for Active; 'I' for Inactive)
REMARK    1  A    between atoms: N_1  and  C_2
REMARK    2  A    between atoms: C_2  and  C_3
REMARK    3  A    between atoms: C_2  and  C_24
REMARK    4  A    between atoms: C_3  and  C_4
REMARK    5  A    between atoms: C_7  and  C_8
REMARK    6  A    between atoms: C_8  and  N_9
REMARK    7  A    between atoms: C_10  and  C_12
REMARK    8  A    between atoms: N_26  and  C_27
REMARK                            x       y       z     vdW  Elec       q    Type
REMARK                         _______ _______ _______ _____ _____    ______ ____
ROOT
ATOM      1  C   UNL     1      45.124   7.364  11.744  0.00  0.00    +0.000 A 
ATOM      2  C   UNL     1      45.318   8.414  12.651  0.00  0.00    +0.000 A 
ATOM      3  C   UNL     1      46.553   8.604  13.280  0.00  0.00    +0.000 A 
ATOM      4  C   UNL     1      47.626   7.744  13.014  0.00  0.00    +0.000 A 
ATOM      5  C   UNL     1      47.427   6.693  12.111  0.00  0.00    +0.000 A 
ATOM      6  C   UNL     1      46.196   6.506  11.478  0.00  0.00    +0.000 A 
ENDROOT
BRANCH   1   7
ATOM      7  C   UNL     1      43.790   7.186  11.048  0.00  0.00    +0.000 C 
BRANCH   7   8
ATOM      8  C   UNL     1      43.002   5.926  11.481  0.00  0.00    +0.000 C 
BRANCH   8   9
ATOM      9  C   UNL     1      43.393   4.688  10.642  0.00  0.00    +0.000 C 
ATOM     10  O   UNL     1      43.014   3.548  10.940  0.00  0.00    +0.000 OA
ATOM     11  N   UNL     1      44.217   4.916   9.566  0.00  0.00    +0.000 N 
ATOM     12  H   UNL     1      44.580   5.849   9.400  0.00  0.00    +0.000 HD
BRANCH  11  13
ATOM     13  C   UNL     1      44.628   3.831   8.731  0.00  0.00    +0.000 C 
ATOM     14  C   UNL     1      45.164   2.643   9.534  0.00  0.00    +0.000 C 
ATOM     15  C   UNL     1      45.618   1.536   8.591  0.00  0.00    +0.000 C 
ATOM     16  C   UNL     1      46.626   2.089   7.587  0.00  0.00    +0.000 C 
ATOM     17  C   UNL     1      46.089   3.344   6.896  0.00  0.00    +0.000 C 
ATOM     18  N   UNL     1      45.652   4.371   7.853  0.00  0.00    +0.000 NA
ATOM     19  H   UNL     1      45.232   5.137   7.329  0.00  0.00    +0.000 HD
ENDBRANCH  11  13
ENDBRANCH   8   9
BRANCH   8  20
ATOM     20  N   UNL     1      43.158   5.629  12.929  0.00  0.00    +0.000 NA
ATOM     21  H   UNL     1      42.477   4.912  13.180  0.00  0.00    +0.000 HD
ATOM     22  H   UNL     1      42.848   6.468  13.430  0.00  0.00    +0.000 HD
ENDBRANCH   8  20
ENDBRANCH   7   8
ENDBRANCH   1   7
BRANCH   4  23
ATOM     23  C   UNL     1      48.973   7.902  13.677  0.00  0.00    +0.000 C 
BRANCH  23  24
ATOM     24  N   UNL     1      49.136   7.024  14.804  0.00  0.00    +0.000 N 
ATOM     25  C   UNL     1      48.862   7.448  16.079  0.00  0.00    +0.000 C 
ATOM     26  O   UNL     1      48.459   8.575  16.344  0.00  0.00    +0.000 OA
ATOM     27  H   UNL     1      49.800   6.265  14.688  0.00  0.00    +0.000 HD
BRANCH  25  28
ATOM     28  C   UNL     1      49.037   6.425  17.131  0.00  0.00    +0.000 A 
ATOM     29  C   UNL     1      49.860   6.675  18.219  0.00  0.00    +0.000 A 
ATOM     30  S   UNL     1      49.911   5.394  19.345  0.00  0.00    +0.000 S 
ATOM     31  C   UNL     1      48.868   4.441  18.393  0.00  0.00    +0.000 A 
ATOM     32  N   UNL     1      48.521   3.181  18.776  0.00  0.00    +0.000 NA
ATOM     33  C   UNL     1      47.748   2.565  17.947  0.00  0.00    +0.000 A 
ATOM     34  N   UNL     1      47.278   3.099  16.772  0.00  0.00    +0.000 N 
ATOM     35  C   UNL     1      47.556   4.384  16.377  0.00  0.00    +0.000 A 
ATOM     36  O   UNL     1      47.047   4.860  15.365  0.00  0.00    +0.000 OA
ATOM     37  C   UNL     1      48.455   5.103  17.253  0.00  0.00    +0.000 A 
ATOM     38  H   UNL     1      46.651   2.575  16.180  0.00  0.00    +0.000 HD
ENDBRANCH  25  28
ENDBRANCH  23  24
ENDBRANCH   4  23
TORSDOF 8
ENDMDL
MODEL 3
REMARK VINA RESULT:    -7.933      3.426      4.046
REMARK INTER + INTRA:         -12.610
REMARK INTER:                 -11.506
REMARK INTRA:                  -1.104
REMARK UNBOUND:                -1.199
REMARK  Name = 
REMARK  8 active torsions:
REMARK  status: ('A' for Active; 'I' for Inactive)
REMARK    1  A    between atoms: N_1  and  C_2
REMARK    2  A    between atoms: C_2  and  C_3
REMARK    3  A    between atoms: C_2  and  C_24
REMARK    4  A    between atoms: C_3  and  C_4
REMARK    5  A    between atoms: C_7  and  C_8
REMARK    6  A    between atoms: C_8  and  N_9
REMARK    7  A    between atoms: C_10  and  C_12
REMARK    8  A    between atoms: N_26  and  C_27
REMARK                            x       y       z     vdW  Elec       q    Type
REMARK                         _______ _______ _______ _____ _____    ______ ____
ROOT
ATOM      1  C   UNL     1      45.970   4.297  12.912  0.00  0.00    +0.000 A 
ATOM      2  C   UNL     1      46.219   5.591  12.439  0.00  0.00    +0.000 A 
ATOM      3  C   UNL     1      47.062   6.463  13.136  0.00  0.00    +0.000 A 
ATOM      4  C   UNL     1      47.677   6.057  14.328  0.00  0.00    +0.000 A 
ATOM      5  C   UNL     1      47.421   4.764  14.799  0.00  0.00    +0.000 A 
ATOM      6  C   UNL     1      46.584   3.891  14.101  0.00  0.00    +0.000 A 
ENDROOT
BRANCH   1   7
ATOM      7  C   UNL     1      45.077   3.353  12.132  0.00  0.00    +0.000 C 
BRANCH   7   8
ATOM      8  C   UNL     1      44.094   4.051  11.162  0.00  0.00    +0.000 C 
BRANCH   8   9
ATOM      9  C   UNL     1      44.464   3.793   9.684  0.00  0.00    +0.000 C 
ATOM     10  O   UNL     1      43.983   4.463   8.761  0.00  0.00    +0.000 OA
ATOM     11  N   UNL     1      45.328   2.751   9.445  0.00  0.00    +0.000 N 
ATOM     12  H   UNL     1      45.636   2.167  10.216  0.00  0.00    +0.000 HD
BRANCH  11  13
ATOM     13  C   UNL     1      45.729   2.440   8.108  0.00  0.00    +0.000 C 
ATOM     14  C   UNL     1      46.654   1.222   8.041  0.00  0.00    +0.000 C 
ATOM     15  C   UNL     1      47.076   0.963   6.600  0.00  0.00    +0.000 C 
ATOM     16  C   UNL     1      47.695   2.225   6.005  0.00  0.00    +0.000 C 
ATOM     17  C   UNL     1      46.783   3.438   6.202  0.00  0.00    +0.000 C 
ATOM     18  N   UNL     1      46.397   3.630   7.608  0.00  0.00    +0.000 NA
ATOM     19  H   UNL     1      45.728   4.396   7.653  0.00  0.00    +0.000 HD
ENDBRANCH  11  13
ENDBRANCH   8   9
BRANCH   8  20
ATOM     20  N   UNL     1      42.681   3.662  11.408  0.00  0.00    +0.000 NA
ATOM     21  H   UNL     1      42.159   3.797  10.541  0.00  0.00    +0.000 HD
ATOM     22  H   UNL     1      42.298   4.361  12.053  0.00  0.00    +0.000 HD
ENDBRANCH   8  20
ENDBRANCH   7   8
ENDBRANCH   1   7
BRANCH   4  23
ATOM     23  C   UNL     1      48.585   6.965  15.120  0.00  0.00    +0.000 C 
BRANCH  23  24
ATOM     24  N   UNL     1      49.692   6.257  15.707  0.00  0.00    +0.000 N 
ATOM     25  C   UNL     1      49.664   5.862  17.020  0.00  0.00    +0.000 C 
ATOM     26  O   UNL     1      48.715   6.070  17.768  0.00  0.00    +0.000 OA
ATOM     27  H   UNL     1      50.598   6.404  15.273  0.00  0.00    +0.000 HD
BRANCH  25  28
ATOM     28  C   UNL     1      50.854   5.111  17.473  0.00  0.00    +0.000 A 
ATOM     29  C   UNL     1      51.956   5.784  17.978  0.00  0.00    +0.000 A 
ATOM     30  S   UNL     1      53.216   4.751  18.482  0.00  0.00    +0.000 S 
ATOM     31  C   UNL     1      52.347   3.365  18.001  0.00  0.00    +0.000 A 
ATOM     32  N   UNL     1      52.884   2.120  18.129  0.00  0.00    +0.000 NA
ATOM     33  C   UNL     1      52.127   1.166  17.699  0.00  0.00    +0.000 A 
ATOM     34  N   UNL     1      50.875   1.344  17.164  0.00  0.00    +0.000 N 
ATOM     35  C   UNL     1      50.274   2.575  17.070  0.00  0.00    +0.000 A 
ATOM     36  O   UNL     1      49.119   2.688  16.669  0.00  0.00    +0.000 OA
ATOM     37  C   UNL     1      51.100   3.683  17.500  0.00  0.00    +0.000 A 
ATOM     38  H   UNL     1      50.320   0.553  16.873  0.00  0.00    +0.000 HD
ENDBRANCH  25  28
ENDBRANCH  23  24
ENDBRANCH   4  23
TORSDOF 8
ENDMDL
MODEL 4
REMARK VINA RESULT:    -7.928      2.698      2.983
REMARK INTER + INTRA:         -12.603
REMARK INTER:                 -11.508
REMARK INTRA:                  -1.096
REMARK UNBOUND:                -1.199
REMARK  Name = 
REMARK  8 active torsions:
REMARK  status: ('A' for Active; 'I' for Inactive)
REMARK    1  A    between atoms: N_1  and  C_2
REMARK    2  A    between atoms: C_2  and  C_3
REMARK    3  A    between atoms: C_2  and  C_24
REMARK    4  A    between atoms: C_3  and  C_4
REMARK    5  A    between atoms: C_7  and  C_8
REMARK    6  A    between atoms: C_8  and  N_9
REMARK    7  A    between atoms: C_10  and  C_12
REMARK    8  A    between atoms: N_26  and  C_27
REMARK                            x       y       z     vdW  Elec       q    Type
REMARK                         _______ _______ _______ _____ _____    ______ ____
ROOT
ATOM      1  C   UNL     1      44.724   5.579  12.487  0.00  0.00    +0.000 A 
ATOM      2  C   UNL     1      45.836   4.988  13.098  0.00  0.00    +0.000 A 
ATOM      3  C   UNL     1      47.095   5.596  13.044  0.00  0.00    +0.000 A 
ATOM      4  C   UNL     1      47.270   6.814  12.375  0.00  0.00    +0.000 A 
ATOM      5  C   UNL     1      46.156   7.398  11.760  0.00  0.00    +0.000 A 
ATOM      6  C   UNL     1      44.898   6.796  11.818  0.00  0.00    +0.000 A 
ENDROOT
BRANCH   1   7
ATOM      7  C   UNL     1      43.360   4.925  12.576  0.00  0.00    +0.000 C 
BRANCH   7   8
ATOM      8  C   UNL     1      43.241   3.580  11.820  0.00  0.00    +0.000 C 
BRANCH   8   9
ATOM      9  C   UNL     1      43.811   3.674  10.386  0.00  0.00    +0.000 C 
ATOM     10  O   UNL     1      43.512   4.600   9.621  0.00  0.00    +0.000 OA
ATOM     11  N   UNL     1      44.640   2.651   9.991  0.00  0.00    +0.000 N 
ATOM     12  H   UNL     1      44.795   1.863  10.612  0.00  0.00    +0.000 HD
BRANCH  11  13
ATOM     13  C   UNL     1      45.216   2.656   8.683  0.00  0.00    +0.000 C 
ATOM     14  C   UNL     1      46.071   1.415   8.414  0.00  0.00    +0.000 C 
ATOM     15  C   UNL     1      46.686   1.494   7.022  0.00  0.00    +0.000 C 
ATOM     16  C   UNL     1      47.456   2.803   6.868  0.00  0.00    +0.000 C 
ATOM     17  C   UNL     1      46.595   4.004   7.262  0.00  0.00    +0.000 C 
ATOM     18  N   UNL     1      46.016   3.866   8.606  0.00  0.00    +0.000 NA
ATOM     19  H   UNL     1      45.391   4.655   8.767  0.00  0.00    +0.000 HD
ENDBRANCH  11  13
ENDBRANCH   8   9
BRANCH   8  20
ATOM     20  N   UNL     1      43.887   2.459  12.551  0.00  0.00    +0.000 NA
ATOM     21  H   UNL     1      43.238   2.131  13.267  0.00  0.00    +0.000 HD
ATOM     22  H   UNL     1      44.667   2.869  13.076  0.00  0.00    +0.000 HD
ENDBRANCH   8  20
ENDBRANCH   7   8
ENDBRANCH   1   7
BRANCH   4  23
ATOM     23  C   UNL     1      48.610   7.501  12.281  0.00  0.00    +0.000 C 
BRANCH  23  24
ATOM     24  N   UNL     1      49.526   7.058  13.298  0.00  0.00    +0.000 N 
ATOM     25  C   UNL     1      49.541   7.641  14.540  0.00  0.00    +0.000 C 
ATOM     26  O   UNL     1      48.789   8.552  14.868  0.00  0.00    +0.000 OA
ATOM     27  H   UNL     1      50.377   6.612  12.972  0.00  0.00    +0.000 HD
BRANCH  25  28
ATOM     28  C   UNL     1      50.507   7.056  15.494  0.00  0.00    +0.000 A 
ATOM     29  C   UNL     1      51.826   7.483  15.505  0.00  0.00    +0.000 A 
ATOM     30  S   UNL     1      52.781   6.721  16.695  0.00  0.00    +0.000 S 
ATOM     31  C   UNL     1      51.472   5.759  17.210  0.00  0.00    +0.000 A 
ATOM     32  N   UNL     1      51.623   4.840  18.203  0.00  0.00    +0.000 NA
ATOM     33  C   UNL     1      50.557   4.164  18.472  0.00  0.00    +0.000 A 
ATOM     34  N   UNL     1      49.347   4.332  17.844  0.00  0.00    +0.000 N 
ATOM     35  C   UNL     1      49.136   5.284  16.879  0.00  0.00    +0.000 A 
ATOM     36  O   UNL     1      48.020   5.468  16.401  0.00  0.00    +0.000 OA
ATOM     37  C   UNL     1      50.314   6.041  16.512  0.00  0.00    +0.000 A 
ATOM     38  H   UNL     1      48.542   3.791  18.121  0.00  0.00    +0.000 HD
ENDBRANCH  25  28
ENDBRANCH  23  24
ENDBRANCH   4  23
TORSDOF 8
ENDMDL
MODEL 5
REMARK VINA RESULT:    -7.914      1.904      2.140
REMARK INTER + INTRA:         -12.583
REMARK INTER:                 -11.847
REMARK INTRA:                  -0.736
REMARK UNBOUND:                -1.199
REMARK  Name = 
REMARK  8 active torsions:
REMARK  status: ('A' for Active; 'I' for Inactive)
REMARK    1  A    between atoms: N_1  and  C_2
REMARK    2  A    between atoms: C_2  and  C_3
REMARK    3  A    between atoms: C_2  and  C_24
REMARK    4  A    between atoms: C_3  and  C_4
REMARK    5  A    between atoms: C_7  and  C_8
REMARK    6  A    between atoms: C_8  and  N_9
REMARK    7  A    between atoms: C_10  and  C_12
REMARK    8  A    between atoms: N_26  and  C_27
REMARK                            x       y       z     vdW  Elec       q    Type
REMARK                         _______ _______ _______ _____ _____    ______ ____
ROOT
ATOM      1  C   UNL     1      44.525   5.371  12.868  0.00  0.00    +0.000 A 
ATOM      2  C   UNL     1      44.971   6.651  12.515  0.00  0.00    +0.000 A 
ATOM      3  C   UNL     1      46.239   7.103  12.899  0.00  0.00    +0.000 A 
ATOM      4  C   UNL     1      47.091   6.281  13.647  0.00  0.00    +0.000 A 
ATOM      5  C   UNL     1      46.639   5.004  14.002  0.00  0.00    +0.000 A 
ATOM      6  C   UNL     1      45.377   4.550  13.614  0.00  0.00    +0.000 A 
ENDROOT
BRANCH   1   7
ATOM      7  C   UNL     1      43.162   4.883  12.422  0.00  0.00    +0.000 C 
BRANCH   7   8
ATOM      8  C   UNL     1      43.177   3.526  11.678  0.00  0.00    +0.000 C 
BRANCH   8   9
ATOM      9  C   UNL     1      43.814   3.646  10.275  0.00  0.00    +0.000 C 
ATOM     10  O   UNL     1      43.600   4.617   9.538  0.00  0.00    +0.000 OA
ATOM     11  N   UNL     1      44.603   2.594   9.871  0.00  0.00    +0.000 N 
ATOM     12  H   UNL     1      44.688   1.775  10.464  0.00  0.00    +0.000 HD
BRANCH  11  13
ATOM     13  C   UNL     1      45.236   2.620   8.590  0.00  0.00    +0.000 C 
ATOM     14  C   UNL     1      46.094   1.378   8.335  0.00  0.00    +0.000 C 
ATOM     15  C   UNL     1      46.771   1.479   6.974  0.00  0.00    +0.000 C 
ATOM     16  C   UNL     1      47.556   2.785   6.879  0.00  0.00    +0.000 C 
ATOM     17  C   UNL     1      46.686   3.985   7.257  0.00  0.00    +0.000 C 
ATOM     18  N   UNL     1      46.047   3.826   8.572  0.00  0.00    +0.000 NA
ATOM     19  H   UNL     1      45.422   4.616   8.721  0.00  0.00    +0.000 HD
ENDBRANCH  11  13
ENDBRANCH   8   9
BRANCH   8  20
ATOM     20  N   UNL     1      43.860   2.459  12.456  0.00  0.00    +0.000 NA
ATOM     21  H   UNL     1      43.233   2.162  13.205  0.00  0.00    +0.000 HD
ATOM     22  H   UNL     1      44.643   2.912  12.939  0.00  0.00    +0.000 HD
ENDBRANCH   8  20
ENDBRANCH   7   8
ENDBRANCH   1   7
BRANCH   4  23
ATOM     23  C   UNL     1      48.461   6.729  14.093  0.00  0.00    +0.000 C 
BRANCH  23  24
ATOM     24  N   UNL     1      48.588   6.762  15.526  0.00  0.00    +0.000 N 
ATOM     25  C   UNL     1      49.820   6.776  16.129  0.00  0.00    +0.000 C 
ATOM     26  O   UNL     1      50.876   6.772  15.507  0.00  0.00    +0.000 OA
ATOM     27  H   UNL     1      47.805   6.389  16.053  0.00  0.00    +0.000 HD
BRANCH  25  28
ATOM     28  C   UNL     1      49.794   6.850  17.605  0.00  0.00    +0.000 A 
ATOM     29  C   UNL     1      50.249   7.987  18.256  0.00  0.00    +0.000 A 
ATOM     30  S   UNL     1      50.109   7.903  19.954  0.00  0.00    +0.000 S 
ATOM     31  C   UNL     1      49.476   6.323  19.880  0.00  0.00    +0.000 A 
ATOM     32  N   UNL     1      49.163   5.637  21.014  0.00  0.00    +0.000 NA
ATOM     33  C   UNL     1      48.719   4.443  20.811  0.00  0.00    +0.000 A 
ATOM     34  N   UNL     1      48.548   3.874  19.572  0.00  0.00    +0.000 N 
ATOM     35  C   UNL     1      48.796   4.549  18.404  0.00  0.00    +0.000 A 
ATOM     36  O   UNL     1      48.546   4.042  17.313  0.00  0.00    +0.000 OA
ATOM     37  C   UNL     1      49.336   5.880  18.579  0.00  0.00    +0.000 A 
ATOM     38  H   UNL     1      48.167   2.944  19.479  0.00  0.00    +0.000 HD
ENDBRANCH  25  28
ENDBRANCH  23  24
ENDBRANCH   4  23
TORSDOF 8
ENDMDL
MODEL 6
REMARK VINA RESULT:    -7.667      3.964      5.093
REMARK INTER + INTRA:         -12.227
REMARK INTER:                 -10.821
REMARK INTRA:                  -1.406
REMARK UNBOUND:                -1.199
REMARK  Name = 
REMARK  8 active torsions:
REMARK  status: ('A' for Active; 'I' for Inactive)
REMARK    1  A    between atoms: N_1  and  C_2
REMARK    2  A    between atoms: C_2  and  C_3
REMARK    3  A    between atoms: C_2  and  C_24
REMARK    4  A    between atoms: C_3  and  C_4
REMARK    5  A    between atoms: C_7  and  C_8
REMARK    6  A    between atoms: C_8  and  N_9
REMARK    7  A    between atoms: C_10  and  C_12
REMARK    8  A    between atoms: N_26  and  C_27
REMARK                            x       y       z     vdW  Elec       q    Type
REMARK                         _______ _______ _______ _____ _____    ______ ____
ROOT
ATOM      1  C   UNL     1      45.397   5.059  12.610  0.00  0.00    +0.000 A 
ATOM      2  C   UNL     1      46.732   5.351  12.918  0.00  0.00    +0.000 A 
ATOM      3  C   UNL     1      47.173   6.674  13.024  0.00  0.00    +0.000 A 
ATOM      4  C   UNL     1      46.285   7.739  12.823  0.00  0.00    +0.000 A 
ATOM      5  C   UNL     1      44.953   7.442  12.510  0.00  0.00    +0.000 A 
ATOM      6  C   UNL     1      44.510   6.122  12.410  0.00  0.00    +0.000 A 
ENDROOT
BRANCH   1   7
ATOM      7  C   UNL     1      44.925   3.621  12.526  0.00  0.00    +0.000 C 
BRANCH   7   8
ATOM      8  C   UNL     1      43.768   3.382  11.526  0.00  0.00    +0.000 C 
BRANCH   8   9
ATOM      9  C   UNL     1      44.259   3.410  10.061  0.00  0.00    +0.000 C 
ATOM     10  O   UNL     1      43.923   4.304   9.273  0.00  0.00    +0.000 OA
ATOM     11  N   UNL     1      45.061   2.365   9.666  0.00  0.00    +0.000 N 
ATOM     12  H   UNL     1      45.247   1.604  10.311  0.00  0.00    +0.000 HD
BRANCH  11  13
ATOM     13  C   UNL     1      45.565   2.309   8.330  0.00  0.00    +0.000 C 
ATOM     14  C   UNL     1      46.471   1.098   8.094  0.00  0.00    +0.000 C 
ATOM     15  C   UNL     1      47.006   1.113   6.668  0.00  0.00    +0.000 C 
ATOM     16  C   UNL     1      47.694   2.445   6.384  0.00  0.00    +0.000 C 
ATOM     17  C   UNL     1      46.790   3.625   6.746  0.00  0.00    +0.000 C 
ATOM     18  N   UNL     1      46.292   3.551   8.128  0.00  0.00    +0.000 NA
ATOM     19  H   UNL     1      45.635   4.316   8.272  0.00  0.00    +0.000 HD
ENDBRANCH  11  13
ENDBRANCH   8   9
BRANCH   8  20
ATOM     20  N   UNL     1      43.040   2.114  11.794  0.00  0.00    +0.000 NA
ATOM     21  H   UNL     1      42.267   2.047  11.131  0.00  0.00    +0.000 HD
ATOM     22  H   UNL     1      42.589   2.229  12.707  0.00  0.00    +0.000 HD
ENDBRANCH   8  20
ENDBRANCH   7   8
ENDBRANCH   1   7
BRANCH   4  23
ATOM     23  C   UNL     1      46.717   9.182  12.916  0.00  0.00    +0.000 C 
BRANCH  23  24
ATOM     24  N   UNL     1      48.138   9.340  12.749  0.00  0.00    +0.000 N 
ATOM     25  C   UNL     1      48.650  10.190  11.802  0.00  0.00    +0.000 C 
ATOM     26  O   UNL     1      47.953  10.867  11.054  0.00  0.00    +0.000 OA
ATOM     27  H   UNL     1      48.713   8.561  13.050  0.00  0.00    +0.000 HD
BRANCH  25  28
ATOM     28  C   UNL     1      50.125  10.280  11.773  0.00  0.00    +0.000 A 
ATOM     29  C   UNL     1      50.758  11.482  12.050  0.00  0.00    +0.000 A 
ATOM     30  S   UNL     1      52.460  11.384  12.003  0.00  0.00    +0.000 S 
ATOM     31  C   UNL     1      52.410   9.738  11.566  0.00  0.00    +0.000 A 
ATOM     32  N   UNL     1      53.553   9.037  11.333  0.00  0.00    +0.000 NA
ATOM     33  C   UNL     1      53.365   7.809  10.984  0.00  0.00    +0.000 A 
ATOM     34  N   UNL     1      52.134   7.212  10.858  0.00  0.00    +0.000 N 
ATOM     35  C   UNL     1      50.960   7.865  11.140  0.00  0.00    +0.000 A 
ATOM     36  O   UNL     1      49.883   7.276  11.104  0.00  0.00    +0.000 OA
ATOM     37  C   UNL     1      51.116   9.259  11.495  0.00  0.00    +0.000 A 
ATOM     38  H   UNL     1      52.055   6.237  10.611  0.00  0.00    +0.000 HD
ENDBRANCH  25  28
ENDBRANCH  23  24
ENDBRANCH   4  23
TORSDOF 8
ENDMDL
MODEL 7
REMARK VINA RESULT:    -7.442      2.054      2.243
REMARK INTER + INTRA:         -11.904
REMARK INTER:                 -10.707
REMARK INTRA:                  -1.197
REMARK UNBOUND:                -1.199
REMARK  Name = 
REMARK  8 active torsions:
REMARK  status: ('A' for Active; 'I' for Inactive)
REMARK    1  A    between atoms: N_1  and  C_2
REMARK    2  A    between atoms: C_2  and  C_3
REMARK    3  A    between atoms: C_2  and  C_24
REMARK    4  A    between atoms: C_3  and  C_4
REMARK    5  A    between atoms: C_7  and  C_8
REMARK    6  A    between atoms: C_8  and  N_9
REMARK    7  A    between atoms: C_10  and  C_12
REMARK    8  A    between atoms: N_26  and  C_27
REMARK                            x       y       z     vdW  Elec       q    Type
REMARK                         _______ _______ _______ _____ _____    ______ ____
ROOT
ATOM      1  C   UNL     1      45.206   4.794  12.617  0.00  0.00    +0.000 A 
ATOM      2  C   UNL     1      46.572   5.094  12.690  0.00  0.00    +0.000 A 
ATOM      3  C   UNL     1      47.015   6.419  12.764  0.00  0.00    +0.000 A 
ATOM      4  C   UNL     1      46.097   7.478  12.767  0.00  0.00    +0.000 A 
ATOM      5  C   UNL     1      44.732   7.172  12.689  0.00  0.00    +0.000 A 
ATOM      6  C   UNL     1      44.289   5.850  12.621  0.00  0.00    +0.000 A 
ENDROOT
BRANCH   1   7
ATOM      7  C   UNL     1      44.738   3.353  12.566  0.00  0.00    +0.000 C 
BRANCH   7   8
ATOM      8  C   UNL     1      43.655   3.067  11.498  0.00  0.00    +0.000 C 
BRANCH   8   9
ATOM      9  C   UNL     1      44.210   3.213  10.063  0.00  0.00    +0.000 C 
ATOM     10  O   UNL     1      43.920   4.177   9.343  0.00  0.00    +0.000 OA
ATOM     11  N   UNL     1      45.016   2.193   9.613  0.00  0.00    +0.000 N 
ATOM     12  H   UNL     1      45.163   1.376  10.197  0.00  0.00    +0.000 HD
BRANCH  11  13
ATOM     13  C   UNL     1      45.577   2.245   8.300  0.00  0.00    +0.000 C 
ATOM     14  C   UNL     1      46.505   1.062   8.012  0.00  0.00    +0.000 C 
ATOM     15  C   UNL     1      47.100   1.191   6.615  0.00  0.00    +0.000 C 
ATOM     16  C   UNL     1      47.785   2.547   6.465  0.00  0.00    +0.000 C 
ATOM     17  C   UNL     1      46.854   3.689   6.877  0.00  0.00    +0.000 C 
ATOM     18  N   UNL     1      46.299   3.504   8.226  0.00  0.00    +0.000 NA
ATOM     19  H   UNL     1      45.628   4.250   8.400  0.00  0.00    +0.000 HD
ENDBRANCH  11  13
ENDBRANCH   8   9
BRANCH   8  20
ATOM     20  N   UNL     1      43.031   1.728  11.668  0.00  0.00    +0.000 NA
ATOM     21  H   UNL     1      43.736   1.096  12.048  0.00  0.00    +0.000 HD
ATOM     22  H   UNL     1      42.848   1.374  10.723  0.00  0.00    +0.000 HD
ENDBRANCH   8  20
ENDBRANCH   7   8
ENDBRANCH   1   7
BRANCH   4  23
ATOM     23  C   UNL     1      46.527   8.922  12.834  0.00  0.00    +0.000 C 
BRANCH  23  24
ATOM     24  N   UNL     1      47.317   9.205  14.002  0.00  0.00    +0.000 N 
ATOM     25  C   UNL     1      48.680   9.339  13.921  0.00  0.00    +0.000 C 
ATOM     26  O   UNL     1      49.307   9.239  12.872  0.00  0.00    +0.000 OA
ATOM     27  H   UNL     1      46.920   8.920  14.892  0.00  0.00    +0.000 HD
BRANCH  25  28
ATOM     28  C   UNL     1      49.354   9.667  15.195  0.00  0.00    +0.000 A 
ATOM     29  C   UNL     1      49.378  10.975  15.656  0.00  0.00    +0.000 A 
ATOM     30  S   UNL     1      50.169  11.155  17.157  0.00  0.00    +0.000 S 
ATOM     31  C   UNL     1      50.547   9.495  17.221  0.00  0.00    +0.000 A 
ATOM     32  N   UNL     1      51.263   8.976  18.257  0.00  0.00    +0.000 NA
ATOM     33  C   UNL     1      51.499   7.711  18.162  0.00  0.00    +0.000 A 
ATOM     34  N   UNL     1      51.073   6.912  17.129  0.00  0.00    +0.000 N 
ATOM     35  C   UNL     1      50.301   7.382  16.096  0.00  0.00    +0.000 A 
ATOM     36  O   UNL     1      49.862   6.623  15.236  0.00  0.00    +0.000 OA
ATOM     37  C   UNL     1      50.044   8.806  16.134  0.00  0.00    +0.000 A 
ATOM     38  H   UNL     1      51.265   5.922  17.129  0.00  0.00    +0.000 HD
ENDBRANCH  25  28
ENDBRANCH  23  24
ENDBRANCH   4  23
TORSDOF 8
ENDMDL
MODEL 8
REMARK VINA RESULT:    -7.418      3.215      3.989
REMARK INTER + INTRA:         -11.870
REMARK INTER:                 -11.233
REMARK INTRA:                  -0.637
REMARK UNBOUND:                -1.199
REMARK  Name = 
REMARK  8 active torsions:
REMARK  status: ('A' for Active; 'I' for Inactive)
REMARK    1  A    between atoms: N_1  and  C_2
REMARK    2  A    between atoms: C_2  and  C_3
REMARK    3  A    between atoms: C_2  and  C_24
REMARK    4  A    between atoms: C_3  and  C_4
REMARK    5  A    between atoms: C_7  and  C_8
REMARK    6  A    between atoms: C_8  and  N_9
REMARK    7  A    between atoms: C_10  and  C_12
REMARK    8  A    between atoms: N_26  and  C_27
REMARK                            x       y       z     vdW  Elec       q    Type
REMARK                         _______ _______ _______ _____ _____    ______ ____
ROOT
ATOM      1  C   UNL     1      45.680   7.597  11.980  0.00  0.00    +0.000 A 
ATOM      2  C   UNL     1      45.761   8.606  12.947  0.00  0.00    +0.000 A 
ATOM      3  C   UNL     1      46.947   8.830  13.656  0.00  0.00    +0.000 A 
ATOM      4  C   UNL     1      48.082   8.046  13.411  0.00  0.00    +0.000 A 
ATOM      5  C   UNL     1      47.993   7.035  12.446  0.00  0.00    +0.000 A 
ATOM      6  C   UNL     1      46.813   6.814  11.734  0.00  0.00    +0.000 A 
ENDROOT
BRANCH   1   7
ATOM      7  C   UNL     1      44.398   7.384  11.199  0.00  0.00    +0.000 C 
BRANCH   7   8
ATOM      8  C   UNL     1      43.546   6.184  11.679  0.00  0.00    +0.000 C 
BRANCH   8   9
ATOM      9  C   UNL     1      43.713   4.955  10.757  0.00  0.00    +0.000 C 
ATOM     10  O   UNL     1      43.049   3.922  10.914  0.00  0.00    +0.000 OA
ATOM     11  N   UNL     1      44.669   5.055   9.774  0.00  0.00    +0.000 N 
ATOM     12  H   UNL     1      45.256   5.882   9.727  0.00  0.00    +0.000 HD
BRANCH  11  13
ATOM     13  C   UNL     1      44.891   3.969   8.872  0.00  0.00    +0.000 C 
ATOM     14  C   UNL     1      45.341   2.693   9.589  0.00  0.00    +0.000 C 
ATOM     15  C   UNL     1      45.596   1.585   8.576  0.00  0.00    +0.000 C 
ATOM     16  C   UNL     1      46.588   2.064   7.520  0.00  0.00    +0.000 C 
ATOM     17  C   UNL     1      46.155   3.402   6.917  0.00  0.00    +0.000 C 
ATOM     18  N   UNL     1      45.908   4.428   7.940  0.00  0.00    +0.000 NA
ATOM     19  H   UNL     1      45.543   5.259   7.477  0.00  0.00    +0.000 HD
ENDBRANCH  11  13
ENDBRANCH   8   9
BRANCH   8  20
ATOM     20  N   UNL     1      43.838   5.807  13.087  0.00  0.00    +0.000 NA
ATOM     21  H   UNL     1      44.488   6.494  13.471  0.00  0.00    +0.000 HD
ATOM     22  H   UNL     1      44.376   4.936  13.045  0.00  0.00    +0.000 HD
ENDBRANCH   8  20
ENDBRANCH   7   8
ENDBRANCH   1   7
BRANCH   4  23
ATOM     23  C   UNL     1      49.378   8.243  14.157  0.00  0.00    +0.000 C 
BRANCH  23  24
ATOM     24  N   UNL     1      49.749   7.085  14.927  0.00  0.00    +0.000 N 
ATOM     25  C   UNL     1      49.298   6.913  16.211  0.00  0.00    +0.000 C 
ATOM     26  O   UNL     1      48.557   7.708  16.779  0.00  0.00    +0.000 OA
ATOM     27  H   UNL     1      50.617   6.631  14.663  0.00  0.00    +0.000 HD
BRANCH  25  28
ATOM     28  C   UNL     1      49.728   5.659  16.863  0.00  0.00    +0.000 A 
ATOM     29  C   UNL     1      48.788   4.720  17.262  0.00  0.00    +0.000 A 
ATOM     30  S   UNL     1      49.472   3.323  17.963  0.00  0.00    +0.000 S 
ATOM     31  C   UNL     1      51.050   3.945  17.798  0.00  0.00    +0.000 A 
ATOM     32  N   UNL     1      52.131   3.247  18.242  0.00  0.00    +0.000 NA
ATOM     33  C   UNL     1      53.261   3.849  18.078  0.00  0.00    +0.000 A 
ATOM     34  N   UNL     1      53.409   5.085  17.497  0.00  0.00    +0.000 N 
ATOM     35  C   UNL     1      52.354   5.797  16.985  0.00  0.00    +0.000 A 
ATOM     36  O   UNL     1      52.532   6.858  16.392  0.00  0.00    +0.000 OA
ATOM     37  C   UNL     1      51.059   5.182  17.183  0.00  0.00    +0.000 A 
ATOM     38  H   UNL     1      54.325   5.490  17.370  0.00  0.00    +0.000 HD
ENDBRANCH  25  28
ENDBRANCH  23  24
ENDBRANCH   4  23
TORSDOF 8
ENDMDL
MODEL 9
REMARK VINA RESULT:    -7.304      6.405     10.028
REMARK INTER + INTRA:         -11.705
REMARK INTER:                 -10.733
REMARK INTRA:                  -0.972
REMARK UNBOUND:                -1.199
REMARK  Name = 
REMARK  8 active torsions:
REMARK  status: ('A' for Active; 'I' for Inactive)
REMARK    1  A    between atoms: N_1  and  C_2
REMARK    2  A    between atoms: C_2  and  C_3
REMARK    3  A    between atoms: C_2  and  C_24
REMARK    4  A    between atoms: C_3  and  C_4
REMARK    5  A    between atoms: C_7  and  C_8
REMARK    6  A    between atoms: C_8  and  N_9
REMARK    7  A    between atoms: C_10  and  C_12
REMARK    8  A    between atoms: N_26  and  C_27
REMARK                            x       y       z     vdW  Elec       q    Type
REMARK                         _______ _______ _______ _____ _____    ______ ____
ROOT
ATOM      1  C   UNL     1      51.382   3.757  17.671  0.00  0.00    +0.000 A 
ATOM      2  C   UNL     1      50.818   2.516  17.350  0.00  0.00    +0.000 A 
ATOM      3  C   UNL     1      49.455   2.397  17.058  0.00  0.00    +0.000 A 
ATOM      4  C   UNL     1      48.622   3.524  17.081  0.00  0.00    +0.000 A 
ATOM      5  C   UNL     1      49.189   4.761  17.408  0.00  0.00    +0.000 A 
ATOM      6  C   UNL     1      50.550   4.882  17.693  0.00  0.00    +0.000 A 
ENDROOT
BRANCH   1   7
ATOM      7  C   UNL     1      52.865   3.876  17.957  0.00  0.00    +0.000 C 
BRANCH   7   8
ATOM      8  C   UNL     1      53.319   3.219  19.283  0.00  0.00    +0.000 C 
BRANCH   8   9
ATOM      9  C   UNL     1      54.222   1.990  19.036  0.00  0.00    +0.000 C 
ATOM     10  O   UNL     1      55.454   2.050  19.141  0.00  0.00    +0.000 OA
ATOM     11  N   UNL     1      53.586   0.832  18.655  0.00  0.00    +0.000 N 
ATOM     12  H   UNL     1      52.584   0.840  18.494  0.00  0.00    +0.000 HD
BRANCH  11  13
ATOM     13  C   UNL     1      54.341  -0.356  18.408  0.00  0.00    +0.000 C 
ATOM     14  C   UNL     1      54.642  -0.562  16.921  0.00  0.00    +0.000 C 
ATOM     15  C   UNL     1      55.414  -1.859  16.718  0.00  0.00    +0.000 C 
ATOM     16  C   UNL     1      54.651  -3.023  17.345  0.00  0.00    +0.000 C 
ATOM     17  C   UNL     1      54.270  -2.720  18.796  0.00  0.00    +0.000 C 
ATOM     18  N   UNL     1      53.541  -1.450  18.933  0.00  0.00    +0.000 NA
ATOM     19  H   UNL     1      53.396  -1.272  19.926  0.00  0.00    +0.000 HD
ENDBRANCH  11  13
ENDBRANCH   8   9
BRANCH   8  20
ATOM     20  N   UNL     1      54.004   4.180  20.186  0.00  0.00    +0.000 NA
ATOM     21  H   UNL     1      53.302   4.591  20.804  0.00  0.00    +0.000 HD
ATOM     22  H   UNL     1      54.316   4.958  19.596  0.00  0.00    +0.000 HD
ENDBRANCH   8  20
ENDBRANCH   7   8
ENDBRANCH   1   7
BRANCH   4  23
ATOM     23  C   UNL     1      47.144   3.443  16.785  0.00  0.00    +0.000 C 
BRANCH  23  24
ATOM     24  N   UNL     1      46.729   4.411  15.805  0.00  0.00    +0.000 N 
ATOM     25  C   UNL     1      46.797   4.135  14.463  0.00  0.00    +0.000 C 
ATOM     26  O   UNL     1      47.198   3.068  14.012  0.00  0.00    +0.000 OA
ATOM     27  H   UNL     1      46.764   5.384  16.093  0.00  0.00    +0.000 HD
BRANCH  25  28
ATOM     28  C   UNL     1      46.299   5.208  13.577  0.00  0.00    +0.000 A 
ATOM     29  C   UNL     1      47.079   6.327  13.327  0.00  0.00    +0.000 A 
ATOM     30  S   UNL     1      46.355   7.440  12.256  0.00  0.00    +0.000 S 
ATOM     31  C   UNL     1      44.951   6.483  12.122  0.00  0.00    +0.000 A 
ATOM     32  N   UNL     1      43.895   6.886  11.363  0.00  0.00    +0.000 NA
ATOM     33  C   UNL     1      42.889   6.077  11.375  0.00  0.00    +0.000 A 
ATOM     34  N   UNL     1      42.847   4.893  12.070  0.00  0.00    +0.000 N 
ATOM     35  C   UNL     1      43.910   4.422  12.800  0.00  0.00    +0.000 A 
ATOM     36  O   UNL     1      43.871   3.317  13.336  0.00  0.00    +0.000 OA
ATOM     37  C   UNL     1      45.048   5.315  12.853  0.00  0.00    +0.000 A 
ATOM     38  H   UNL     1      42.041   4.289  12.014  0.00  0.00    +0.000 HD
ENDBRANCH  25  28
ENDBRANCH  23  24
ENDBRANCH   4  23
TORSDOF 8
ENDMDL
