MODEL 1
REMARK VINA RESULT:    -8.537      0.000      0.000
REMARK INTER + INTRA:         -11.624
REMARK INTER:                 -11.032
REMARK INTRA:                  -0.592
REMARK UNBOUND:                -0.592
REMARK  Name = 
REMARK  5 active torsions:
REMARK  status: ('A' for Active; 'I' for Inactive)
REMARK    1  A    between atoms: C_2  and  C_4
REMARK    2  A    between atoms: C_7  and  O_8
REMARK    3  A    between atoms: O_8  and  C_9
REMARK    4  A    between atoms: C_9  and  C_10
REMARK    5  A    between atoms: C_15  and  C_16
REMARK                            x       y       z     vdW  Elec       q    Type
REMARK                         _______ _______ _______ _____ _____    ______ ____
ROOT
ATOM      1  C   UNL     1      43.525   4.639  10.905  0.00  0.00    +0.000 C 
ENDROOT
BRANCH   1   2
ATOM      2  C   UNL     1      44.785   4.904  11.688  0.00  0.00    +0.000 A 
ATOM      3  C   UNL     1      45.291   3.955  12.577  0.00  0.00    +0.000 A 
ATOM      4  C   UNL     1      46.447   4.234  13.292  0.00  0.00    +0.000 A 
ATOM      5  F   UNL     1      46.926   3.320  14.147  0.00  0.00    +0.000 F 
ATOM      6  C   UNL     1      47.118   5.445  13.140  0.00  0.00    +0.000 A 
ATOM      7  C   UNL     1      46.638   6.430  12.263  0.00  0.00    +0.000 A 
ATOM      8  C   UNL     1      45.461   6.131  11.546  0.00  0.00    +0.000 A 
BRANCH   7   9
ATOM      9  C   UNL     1      47.328   7.729  12.098  0.00  0.00    +0.000 A 
ATOM     10  C   UNL     1      48.694   7.819  11.791  0.00  0.00    +0.000 A 
ATOM     11  C   UNL     1      49.310   9.059  11.624  0.00  0.00    +0.000 A 
ATOM     12  C   UNL     1      48.545  10.199  11.782  0.00  0.00    +0.000 A 
ATOM     13  N   UNL     1      47.233  10.176  12.082  0.00  0.00    +0.000 NA
ATOM     14  C   UNL     1      46.662   8.952  12.227  0.00  0.00    +0.000 A 
ENDBRANCH   7   9
ENDBRANCH   1   2
BRANCH   1  15
ATOM     15  O   UNL     1      43.617   3.339  10.319  0.00  0.00    +0.000 OA
BRANCH  15  19
ATOM     16  C   UNL     1      46.398   2.642   7.434  0.00  0.00    +0.000 A 
ATOM     17  N   UNL     1      45.841   3.877   7.418  0.00  0.00    +0.000 NA
ATOM     18  C   UNL     1      44.915   4.109   8.373  0.00  0.00    +0.000 A 
ATOM     19  C   UNL     1      44.531   3.185   9.325  0.00  0.00    +0.000 A 
ATOM     20  C   UNL     1      45.171   1.964   9.233  0.00  0.00    +0.000 A 
ATOM     21  N   UNL     1      46.104   1.660   8.307  0.00  0.00    +0.000 NA
BRANCH  16  23
ATOM     22  N   UNL     1      47.392   3.161   5.260  0.00  0.00    +0.000 N 
ATOM     23  C   UNL     1      47.447   2.363   6.382  0.00  0.00    +0.000 C 
ATOM     24  O   UNL     1      48.309   1.498   6.484  0.00  0.00    +0.000 OA
ATOM     25  H   UNL     1      48.074   3.024   4.530  0.00  0.00    +0.000 HD
ATOM     26  H   UNL     1      46.684   3.882   5.180  0.00  0.00    +0.000 HD
ENDBRANCH  16  23
ENDBRANCH  15  19
ENDBRANCH   1  15
TORSDOF 5
ENDMDL
MODEL 2
REMARK VINA RESULT:    -8.272      1.953      2.358
REMARK INTER + INTRA:         -11.282
REMARK INTER:                 -10.640
REMARK INTRA:                  -0.642
REMARK UNBOUND:                -0.592
REMARK  Name = 
REMARK  5 active torsions:
REMARK  status: ('A' for Active; 'I' for Inactive)
REMARK    1  A    between atoms: C_2  and  C_4
REMARK    2  A    between atoms: C_7  and  O_8
REMARK    3  A    between atoms: O_8  and  C_9
REMARK    4  A    between atoms: C_9  and  C_10
REMARK    5  A    between atoms: C_15  and  C_16
REMARK                            x       y       z     vdW  Elec       q    Type
REMARK                         _______ _______ _______ _____ _____    ______ ____
ROOT
ATOM      1  C   UNL     1      44.024   3.461  11.590  0.00  0.00    +0.000 C 
ENDROOT
BRANCH   1   2
ATOM      2  C   UNL     1      44.418   4.915  11.650  0.00  0.00    +0.000 A 
ATOM      3  C   UNL     1      43.513   5.919  11.305  0.00  0.00    +0.000 A 
ATOM      4  C   UNL     1      43.911   7.248  11.360  0.00  0.00    +0.000 A 
ATOM      5  F   UNL     1      43.038   8.207  11.025  0.00  0.00    +0.000 F 
ATOM      6  C   UNL     1      45.198   7.603  11.755  0.00  0.00    +0.000 A 
ATOM      7  C   UNL     1      46.142   6.622  12.101  0.00  0.00    +0.000 A 
ATOM      8  C   UNL     1      45.722   5.278  12.038  0.00  0.00    +0.000 A 
BRANCH   7   9
ATOM      9  C   UNL     1      47.520   6.978  12.509  0.00  0.00    +0.000 A 
ATOM     10  C   UNL     1      48.381   7.715  11.682  0.00  0.00    +0.000 A 
ATOM     11  C   UNL     1      49.667   8.050  12.104  0.00  0.00    +0.000 A 
ATOM     12  C   UNL     1      50.079   7.627  13.353  0.00  0.00    +0.000 A 
ATOM     13  N   UNL     1      49.300   6.913  14.189  0.00  0.00    +0.000 NA
ATOM     14  C   UNL     1      48.051   6.614  13.750  0.00  0.00    +0.000 A 
ENDBRANCH   7   9
ENDBRANCH   1   2
BRANCH   1  15
ATOM     15  O   UNL     1      43.557   3.169  10.272  0.00  0.00    +0.000 OA
BRANCH  15  19
ATOM     16  C   UNL     1      46.431   2.596   7.452  0.00  0.00    +0.000 A 
ATOM     17  N   UNL     1      45.888   3.838   7.484  0.00  0.00    +0.000 NA
ATOM     18  C   UNL     1      44.931   4.028   8.418  0.00  0.00    +0.000 A 
ATOM     19  C   UNL     1      44.504   3.059   9.303  0.00  0.00    +0.000 A 
ATOM     20  C   UNL     1      45.134   1.837   9.167  0.00  0.00    +0.000 A 
ATOM     21  N   UNL     1      46.095   1.571   8.258  0.00  0.00    +0.000 NA
BRANCH  16  23
ATOM     22  N   UNL     1      47.465   3.177   5.313  0.00  0.00    +0.000 N 
ATOM     23  C   UNL     1      47.513   2.362   6.422  0.00  0.00    +0.000 C 
ATOM     24  O   UNL     1      48.395   1.519   6.533  0.00  0.00    +0.000 OA
ATOM     25  H   UNL     1      48.169   3.070   4.598  0.00  0.00    +0.000 HD
ATOM     26  H   UNL     1      46.740   3.880   5.225  0.00  0.00    +0.000 HD
ENDBRANCH  16  23
ENDBRANCH  15  19
ENDBRANCH   1  15
TORSDOF 5
ENDMDL
MODEL 3
REMARK VINA RESULT:    -8.216      2.359      3.234
REMARK INTER + INTRA:         -11.209
REMARK INTER:                 -10.719
REMARK INTRA:                  -0.490
REMARK UNBOUND:                -0.592
REMARK  Name = 
REMARK  5 active torsions:
REMARK  status: ('A' for Active; 'I' for Inactive)
REMARK    1  A    between atoms: C_2  and  C_4
REMARK    2  A    between atoms: C_7  and  O_8
REMARK    3  A    between atoms: O_8  and  C_9
REMARK    4  A    between atoms: C_9  and  C_10
REMARK    5  A    between atoms: C_15  and  C_16
REMARK                            x       y       z     vdW  Elec       q    Type
REMARK                         _______ _______ _______ _____ _____    ______ ____
ROOT
ATOM      1  C   UNL     1      43.938   3.087  11.577  0.00  0.00    +0.000 C 
ENDROOT
BRANCH   1   2
ATOM      2  C   UNL     1      44.604   4.350  12.058  0.00  0.00    +0.000 A 
ATOM      3  C   UNL     1      44.296   5.586  11.488  0.00  0.00    +0.000 A 
ATOM      4  C   UNL     1      44.934   6.730  11.946  0.00  0.00    +0.000 A 
ATOM      5  F   UNL     1      44.637   7.913  11.392  0.00  0.00    +0.000 F 
ATOM      6  C   UNL     1      45.879   6.672  12.967  0.00  0.00    +0.000 A 
ATOM      7  C   UNL     1      46.224   5.448  13.562  0.00  0.00    +0.000 A 
ATOM      8  C   UNL     1      45.567   4.296  13.084  0.00  0.00    +0.000 A 
BRANCH   7   9
ATOM      9  C   UNL     1      47.236   5.364  14.639  0.00  0.00    +0.000 A 
ATOM     10  C   UNL     1      47.206   4.361  15.620  0.00  0.00    +0.000 A 
ATOM     11  C   UNL     1      48.185   4.299  16.611  0.00  0.00    +0.000 A 
ATOM     12  C   UNL     1      49.181   5.257  16.611  0.00  0.00    +0.000 A 
ATOM     13  N   UNL     1      49.260   6.245  15.699  0.00  0.00    +0.000 NA
ATOM     14  C   UNL     1      48.296   6.270  14.743  0.00  0.00    +0.000 A 
ENDBRANCH   7   9
ENDBRANCH   1   2
BRANCH   1  15
ATOM     15  O   UNL     1      43.528   3.275  10.222  0.00  0.00    +0.000 OA
BRANCH  15  19
ATOM     16  C   UNL     1      46.444   2.610   7.466  0.00  0.00    +0.000 A 
ATOM     17  N   UNL     1      45.897   3.850   7.445  0.00  0.00    +0.000 NA
ATOM     18  C   UNL     1      44.926   4.071   8.358  0.00  0.00    +0.000 A 
ATOM     19  C   UNL     1      44.489   3.132   9.272  0.00  0.00    +0.000 A 
ATOM     20  C   UNL     1      45.125   1.908   9.189  0.00  0.00    +0.000 A 
ATOM     21  N   UNL     1      46.100   1.614   8.304  0.00  0.00    +0.000 NA
BRANCH  16  23
ATOM     22  N   UNL     1      47.570   3.186   5.372  0.00  0.00    +0.000 N 
ATOM     23  C   UNL     1      47.541   2.342   6.461  0.00  0.00    +0.000 C 
ATOM     24  O   UNL     1      48.373   1.450   6.574  0.00  0.00    +0.000 OA
ATOM     25  H   UNL     1      48.288   3.058   4.675  0.00  0.00    +0.000 HD
ATOM     26  H   UNL     1      46.887   3.929   5.283  0.00  0.00    +0.000 HD
ENDBRANCH  16  23
ENDBRANCH  15  19
ENDBRANCH   1  15
TORSDOF 5
ENDMDL
MODEL 4
REMARK VINA RESULT:    -8.134      1.388      2.189
REMARK INTER + INTRA:         -11.104
REMARK INTER:                 -10.361
REMARK INTRA:                  -0.743
REMARK UNBOUND:                -0.592
REMARK  Name = 
REMARK  5 active torsions:
REMARK  status: ('A' for Active; 'I' for Inactive)
REMARK    1  A    between atoms: C_2  and  C_4
REMARK    2  A    between atoms: C_7  and  O_8
REMARK    3  A    between atoms: O_8  and  C_9
REMARK    4  A    between atoms: C_9  and  C_10
REMARK    5  A    between atoms: C_15  and  C_16
REMARK                            x       y       z     vdW  Elec       q    Type
REMARK                         _______ _______ _______ _____ _____    ______ ____
ROOT
ATOM      1  C   UNL     1      43.867   3.733  11.685  0.00  0.00    +0.000 C 
ENDROOT
BRANCH   1   2
ATOM      2  C   UNL     1      44.792   4.807  12.196  0.00  0.00    +0.000 A 
ATOM      3  C   UNL     1      45.836   4.500  13.070  0.00  0.00    +0.000 A 
ATOM      4  C   UNL     1      46.665   5.513  13.531  0.00  0.00    +0.000 A 
ATOM      5  F   UNL     1      47.662   5.212  14.373  0.00  0.00    +0.000 F 
ATOM      6  C   UNL     1      46.478   6.836  13.138  0.00  0.00    +0.000 A 
ATOM      7  C   UNL     1      45.434   7.189  12.267  0.00  0.00    +0.000 A 
ATOM      8  C   UNL     1      44.601   6.148  11.810  0.00  0.00    +0.000 A 
BRANCH   7   9
ATOM      9  C   UNL     1      45.210   8.591  11.849  0.00  0.00    +0.000 A 
ATOM     10  C   UNL     1      44.097   8.979  11.088  0.00  0.00    +0.000 A 
ATOM     11  C   UNL     1      43.906  10.312  10.726  0.00  0.00    +0.000 A 
ATOM     12  C   UNL     1      44.847  11.242  11.125  0.00  0.00    +0.000 A 
ATOM     13  N   UNL     1      45.937  10.930  11.852  0.00  0.00    +0.000 NA
ATOM     14  C   UNL     1      46.087   9.625  12.195  0.00  0.00    +0.000 A 
ENDBRANCH   7   9
ENDBRANCH   1   2
BRANCH   1  15
ATOM     15  O   UNL     1      43.623   3.962  10.296  0.00  0.00    +0.000 OA
BRANCH  15  19
ATOM     16  C   UNL     1      46.426   2.751   7.609  0.00  0.00    +0.000 A 
ATOM     17  N   UNL     1      45.910   1.773   8.392  0.00  0.00    +0.000 NA
ATOM     18  C   UNL     1      44.982   2.174   9.286  0.00  0.00    +0.000 A 
ATOM     19  C   UNL     1      44.552   3.478   9.430  0.00  0.00    +0.000 A 
ATOM     20  C   UNL     1      45.156   4.380   8.576  0.00  0.00    +0.000 A 
ATOM     21  N   UNL     1      46.091   4.055   7.659  0.00  0.00    +0.000 NA
BRANCH  16  23
ATOM     22  N   UNL     1      47.404   2.975   5.379  0.00  0.00    +0.000 N 
ATOM     23  C   UNL     1      47.459   2.325   6.591  0.00  0.00    +0.000 C 
ATOM     24  O   UNL     1      48.310   1.466   6.794  0.00  0.00    +0.000 OA
ATOM     25  H   UNL     1      48.076   2.737   4.665  0.00  0.00    +0.000 HD
ATOM     26  H   UNL     1      46.706   3.691   5.214  0.00  0.00    +0.000 HD
ENDBRANCH  16  23
ENDBRANCH  15  19
ENDBRANCH   1  15
TORSDOF 5
ENDMDL
MODEL 5
REMARK VINA RESULT:    -7.997      3.672      7.274
REMARK INTER + INTRA:         -10.927
REMARK INTER:                 -10.696
REMARK INTRA:                  -0.231
REMARK UNBOUND:                -0.592
REMARK  Name = 
REMARK  5 active torsions:
REMARK  status: ('A' for Active; 'I' for Inactive)
REMARK    1  A    between atoms: C_2  and  C_4
REMARK    2  A    between atoms: C_7  and  O_8
REMARK    3  A    between atoms: O_8  and  C_9
REMARK    4  A    between atoms: C_9  and  C_10
REMARK    5  A    between atoms: C_15  and  C_16
REMARK                            x       y       z     vdW  Elec       q    Type
REMARK                         _______ _______ _______ _____ _____    ______ ____
ROOT
ATOM      1  C   UNL     1      46.305   7.326  11.955  0.00  0.00    +0.000 C 
ENDROOT
BRANCH   1   2
ATOM      2  C   UNL     1      45.398   6.319  11.297  0.00  0.00    +0.000 A 
ATOM      3  C   UNL     1      44.050   6.231  11.645  0.00  0.00    +0.000 A 
ATOM      4  C   UNL     1      43.243   5.285  11.029  0.00  0.00    +0.000 A 
ATOM      5  F   UNL     1      41.950   5.204  11.371  0.00  0.00    +0.000 F 
ATOM      6  C   UNL     1      43.751   4.417  10.065  0.00  0.00    +0.000 A 
ATOM      7  C   UNL     1      45.103   4.466   9.693  0.00  0.00    +0.000 A 
ATOM      8  C   UNL     1      45.909   5.432  10.330  0.00  0.00    +0.000 A 
BRANCH   7   9
ATOM      9  C   UNL     1      45.666   3.543   8.681  0.00  0.00    +0.000 A 
ATOM     10  C   UNL     1      46.252   4.001   7.491  0.00  0.00    +0.000 A 
ATOM     11  C   UNL     1      46.789   3.105   6.567  0.00  0.00    +0.000 A 
ATOM     12  C   UNL     1      46.719   1.754   6.845  0.00  0.00    +0.000 A 
ATOM     13  N   UNL     1      46.165   1.255   7.967  0.00  0.00    +0.000 NA
ATOM     14  C   UNL     1      45.661   2.155   8.850  0.00  0.00    +0.000 A 
ENDBRANCH   7   9
ENDBRANCH   1   2
BRANCH   1  15
ATOM     15  O   UNL     1      47.509   6.667  12.350  0.00  0.00    +0.000 OA
BRANCH  15  19
ATOM     16  C   UNL     1      47.478   4.526  15.808  0.00  0.00    +0.000 A 
ATOM     17  N   UNL     1      46.691   4.041  14.817  0.00  0.00    +0.000 NA
ATOM     18  C   UNL     1      46.698   4.753  13.669  0.00  0.00    +0.000 A 
ATOM     19  C   UNL     1      47.441   5.899  13.469  0.00  0.00    +0.000 A 
ATOM     20  C   UNL     1      48.200   6.290  14.555  0.00  0.00    +0.000 A 
ATOM     21  N   UNL     1      48.243   5.632  15.732  0.00  0.00    +0.000 NA
BRANCH  16  23
ATOM     22  N   UNL     1      48.604   3.928  17.895  0.00  0.00    +0.000 N 
ATOM     23  C   UNL     1      47.496   3.740  17.098  0.00  0.00    +0.000 C 
ATOM     24  O   UNL     1      46.603   2.980  17.452  0.00  0.00    +0.000 OA
ATOM     25  H   UNL     1      48.664   3.435  18.773  0.00  0.00    +0.000 HD
ATOM     26  H   UNL     1      49.340   4.563  17.606  0.00  0.00    +0.000 HD
ENDBRANCH  16  23
ENDBRANCH  15  19
ENDBRANCH   1  15
TORSDOF 5
ENDMDL
MODEL 6
REMARK VINA RESULT:    -7.943      2.988      7.081
REMARK INTER + INTRA:         -10.856
REMARK INTER:                 -10.189
REMARK INTRA:                  -0.667
REMARK UNBOUND:                -0.592
REMARK  Name = 
REMARK  5 active torsions:
REMARK  status: ('A' for Active; 'I' for Inactive)
REMARK    1  A    between atoms: C_2  and  C_4
REMARK    2  A    between atoms: C_7  and  O_8
REMARK    3  A    between atoms: O_8  and  C_9
REMARK    4  A    between atoms: C_9  and  C_10
REMARK    5  A    between atoms: C_15  and  C_16
REMARK                            x       y       z     vdW  Elec       q    Type
REMARK                         _______ _______ _______ _____ _____    ______ ____
ROOT
ATOM      1  C   UNL     1      44.694   6.615  11.068  0.00  0.00    +0.000 C 
ENDROOT
BRANCH   1   2
ATOM      2  C   UNL     1      44.567   5.166  10.675  0.00  0.00    +0.000 A 
ATOM      3  C   UNL     1      43.746   4.296  11.394  0.00  0.00    +0.000 A 
ATOM      4  C   UNL     1      43.660   2.964  11.014  0.00  0.00    +0.000 A 
ATOM      5  F   UNL     1      42.873   2.133  11.710  0.00  0.00    +0.000 F 
ATOM      6  C   UNL     1      44.377   2.474   9.925  0.00  0.00    +0.000 A 
ATOM      7  C   UNL     1      45.221   3.313   9.181  0.00  0.00    +0.000 A 
ATOM      8  C   UNL     1      45.298   4.663   9.582  0.00  0.00    +0.000 A 
BRANCH   7   9
ATOM      9  C   UNL     1      46.002   2.808   8.030  0.00  0.00    +0.000 A 
ATOM     10  C   UNL     1      46.322   3.616   6.928  0.00  0.00    +0.000 A 
ATOM     11  C   UNL     1      47.076   3.115   5.867  0.00  0.00    +0.000 A 
ATOM     12  C   UNL     1      47.490   1.798   5.921  0.00  0.00    +0.000 A 
ATOM     13  N   UNL     1      47.211   0.973   6.948  0.00  0.00    +0.000 NA
ATOM     14  C   UNL     1      46.484   1.497   7.969  0.00  0.00    +0.000 A 
ENDBRANCH   7   9
ENDBRANCH   1   2
BRANCH   1  15
ATOM     15  O   UNL     1      44.785   6.696  12.491  0.00  0.00    +0.000 OA
BRANCH  15  19
ATOM     16  C   UNL     1      48.527   7.094  14.033  0.00  0.00    +0.000 A 
ATOM     17  N   UNL     1      48.068   5.822  13.942  0.00  0.00    +0.000 NA
ATOM     18  C   UNL     1      46.825   5.688  13.433  0.00  0.00    +0.000 A 
ATOM     19  C   UNL     1      46.037   6.744  13.017  0.00  0.00    +0.000 A 
ATOM     20  C   UNL     1      46.618   7.988  13.164  0.00  0.00    +0.000 A 
ATOM     21  N   UNL     1      47.853   8.200  13.665  0.00  0.00    +0.000 NA
BRANCH  16  23
ATOM     22  N   UNL     1      50.849   7.793  13.716  0.00  0.00    +0.000 N 
ATOM     23  C   UNL     1      49.922   7.267  14.589  0.00  0.00    +0.000 C 
ATOM     24  O   UNL     1      50.246   6.978  15.734  0.00  0.00    +0.000 OA
ATOM     25  H   UNL     1      51.794   7.940  14.037  0.00  0.00    +0.000 HD
ATOM     26  H   UNL     1      50.579   8.041  12.771  0.00  0.00    +0.000 HD
ENDBRANCH  16  23
ENDBRANCH  15  19
ENDBRANCH   1  15
TORSDOF 5
ENDMDL
MODEL 7
REMARK VINA RESULT:    -7.057      4.653      7.905
REMARK INTER + INTRA:          -9.711
REMARK INTER:                  -9.215
REMARK INTRA:                  -0.496
REMARK UNBOUND:                -0.592
REMARK  Name = 
REMARK  5 active torsions:
REMARK  status: ('A' for Active; 'I' for Inactive)
REMARK    1  A    between atoms: C_2  and  C_4
REMARK    2  A    between atoms: C_7  and  O_8
REMARK    3  A    between atoms: O_8  and  C_9
REMARK    4  A    between atoms: C_9  and  C_10
REMARK    5  A    between atoms: C_15  and  C_16
REMARK                            x       y       z     vdW  Elec       q    Type
REMARK                         _______ _______ _______ _____ _____    ______ ____
ROOT
ATOM      1  C   UNL     1      46.117   5.578  13.856  0.00  0.00    +0.000 C 
ENDROOT
BRANCH   1   2
ATOM      2  C   UNL     1      45.187   5.258  12.715  0.00  0.00    +0.000 A 
ATOM      3  C   UNL     1      43.834   5.592  12.776  0.00  0.00    +0.000 A 
ATOM      4  C   UNL     1      43.000   5.274  11.712  0.00  0.00    +0.000 A 
ATOM      5  F   UNL     1      41.701   5.594  11.779  0.00  0.00    +0.000 F 
ATOM      6  C   UNL     1      43.487   4.627  10.580  0.00  0.00    +0.000 A 
ATOM      7  C   UNL     1      44.841   4.265  10.482  0.00  0.00    +0.000 A 
ATOM      8  C   UNL     1      45.672   4.594  11.571  0.00  0.00    +0.000 A 
BRANCH   7   9
ATOM      9  C   UNL     1      45.375   3.564   9.292  0.00  0.00    +0.000 A 
ATOM     10  C   UNL     1      45.851   4.253   8.166  0.00  0.00    +0.000 A 
ATOM     11  C   UNL     1      46.365   3.563   7.069  0.00  0.00    +0.000 A 
ATOM     12  C   UNL     1      46.382   2.182   7.112  0.00  0.00    +0.000 A 
ATOM     13  N   UNL     1      45.935   1.466   8.161  0.00  0.00    +0.000 NA
ATOM     14  C   UNL     1      45.451   2.170   9.217  0.00  0.00    +0.000 A 
ENDBRANCH   7   9
ENDBRANCH   1   2
BRANCH   1  15
ATOM     15  O   UNL     1      46.321   4.391  14.625  0.00  0.00    +0.000 OA
BRANCH  15  19
ATOM     16  C   UNL     1      49.291   4.242  17.399  0.00  0.00    +0.000 A 
ATOM     17  N   UNL     1      49.224   5.389  16.681  0.00  0.00    +0.000 NA
ATOM     18  C   UNL     1      48.240   5.438  15.757  0.00  0.00    +0.000 A 
ATOM     19  C   UNL     1      47.338   4.419  15.526  0.00  0.00    +0.000 A 
ATOM     20  C   UNL     1      47.513   3.303  16.322  0.00  0.00    +0.000 A 
ATOM     21  N   UNL     1      48.473   3.181  17.263  0.00  0.00    +0.000 NA
BRANCH  16  23
ATOM     22  N   UNL     1      49.954   4.295  19.753  0.00  0.00    +0.000 N 
ATOM     23  C   UNL     1      50.377   4.167  18.448  0.00  0.00    +0.000 C 
ATOM     24  O   UNL     1      51.564   3.999  18.197  0.00  0.00    +0.000 OA
ATOM     25  H   UNL     1      50.636   4.243  20.495  0.00  0.00    +0.000 HD
ATOM     26  H   UNL     1      48.971   4.425  19.962  0.00  0.00    +0.000 HD
ENDBRANCH  16  23
ENDBRANCH  15  19
ENDBRANCH   1  15
TORSDOF 5
ENDMDL
MODEL 8
REMARK VINA RESULT:    -6.784      5.045      8.424
REMARK INTER + INTRA:          -9.359
REMARK INTER:                  -8.748
REMARK INTRA:                  -0.610
REMARK UNBOUND:                -0.592
REMARK  Name = 
REMARK  5 active torsions:
REMARK  status: ('A' for Active; 'I' for Inactive)
REMARK    1  A    between atoms: C_2  and  C_4
REMARK    2  A    between atoms: C_7  and  O_8
REMARK    3  A    between atoms: O_8  and  C_9
REMARK    4  A    between atoms: C_9  and  C_10
REMARK    5  A    between atoms: C_15  and  C_16
REMARK                            x       y       z     vdW  Elec       q    Type
REMARK                         _______ _______ _______ _____ _____    ______ ____
ROOT
ATOM      1  C   UNL     1      48.194   7.172  14.110  0.00  0.00    +0.000 C 
ENDROOT
BRANCH   1   2
ATOM      2  C   UNL     1      47.039   7.319  13.154  0.00  0.00    +0.000 A 
ATOM      3  C   UNL     1      46.304   8.504  13.093  0.00  0.00    +0.000 A 
ATOM      4  C   UNL     1      45.238   8.605  12.209  0.00  0.00    +0.000 A 
ATOM      5  F   UNL     1      44.535   9.744  12.159  0.00  0.00    +0.000 F 
ATOM      6  C   UNL     1      44.885   7.546  11.378  0.00  0.00    +0.000 A 
ATOM      7  C   UNL     1      45.592   6.333  11.414  0.00  0.00    +0.000 A 
ATOM      8  C   UNL     1      46.670   6.247  12.318  0.00  0.00    +0.000 A 
BRANCH   7   9
ATOM      9  C   UNL     1      45.223   5.191  10.549  0.00  0.00    +0.000 A 
ATOM     10  C   UNL     1      45.646   5.093   9.214  0.00  0.00    +0.000 A 
ATOM     11  C   UNL     1      45.295   3.994   8.431  0.00  0.00    +0.000 A 
ATOM     12  C   UNL     1      44.510   3.007   8.997  0.00  0.00    +0.000 A 
ATOM     13  N   UNL     1      44.070   3.048  10.269  0.00  0.00    +0.000 NA
ATOM     14  C   UNL     1      44.438   4.127  11.006  0.00  0.00    +0.000 A 
ENDBRANCH   7   9
ENDBRANCH   1   2
BRANCH   1  15
ATOM     15  O   UNL     1      48.305   5.797  14.482  0.00  0.00    +0.000 OA
BRANCH  15  19
ATOM     16  C   UNL     1      48.304   5.174  18.501  0.00  0.00    +0.000 A 
ATOM     17  N   UNL     1      47.578   4.289  17.776  0.00  0.00    +0.000 NA
ATOM     18  C   UNL     1      47.575   4.497  16.442  0.00  0.00    +0.000 A 
ATOM     19  C   UNL     1      48.252   5.523  15.812  0.00  0.00    +0.000 A 
ATOM     20  C   UNL     1      48.952   6.357  16.662  0.00  0.00    +0.000 A 
ATOM     21  N   UNL     1      49.000   6.214  18.003  0.00  0.00    +0.000 NA
BRANCH  16  23
ATOM     22  N   UNL     1      48.560   3.659  20.404  0.00  0.00    +0.000 N 
ATOM     23  C   UNL     1      48.332   4.955  19.997  0.00  0.00    +0.000 C 
ATOM     24  O   UNL     1      48.174   5.845  20.824  0.00  0.00    +0.000 OA
ATOM     25  H   UNL     1      48.598   3.458  21.392  0.00  0.00    +0.000 HD
ATOM     26  H   UNL     1      48.699   2.925  19.720  0.00  0.00    +0.000 HD
ENDBRANCH  16  23
ENDBRANCH  15  19
ENDBRANCH   1  15
TORSDOF 5
ENDMDL
MODEL 9
REMARK VINA RESULT:    -6.701      2.244      3.062
REMARK INTER + INTRA:          -9.251
REMARK INTER:                  -8.574
REMARK INTRA:                  -0.678
REMARK UNBOUND:                -0.592
REMARK  Name = 
REMARK  5 active torsions:
REMARK  status: ('A' for Active; 'I' for Inactive)
REMARK    1  A    between atoms: C_2  and  C_4
REMARK    2  A    between atoms: C_7  and  O_8
REMARK    3  A    between atoms: O_8  and  C_9
REMARK    4  A    between atoms: C_9  and  C_10
REMARK    5  A    between atoms: C_15  and  C_16
REMARK                            x       y       z     vdW  Elec       q    Type
REMARK                         _______ _______ _______ _____ _____    ______ ____
ROOT
ATOM      1  C   UNL     1      45.228   5.076  12.071  0.00  0.00    +0.000 C 
ENDROOT
BRANCH   1   2
ATOM      2  C   UNL     1      45.797   6.465  12.200  0.00  0.00    +0.000 A 
ATOM      3  C   UNL     1      44.961   7.571  12.361  0.00  0.00    +0.000 A 
ATOM      4  C   UNL     1      45.516   8.840  12.465  0.00  0.00    +0.000 A 
ATOM      5  F   UNL     1      44.708   9.897  12.616  0.00  0.00    +0.000 F 
ATOM      6  C   UNL     1      46.894   9.034  12.414  0.00  0.00    +0.000 A 
ATOM      7  C   UNL     1      47.769   7.949  12.243  0.00  0.00    +0.000 A 
ATOM      8  C   UNL     1      47.189   6.669  12.138  0.00  0.00    +0.000 A 
BRANCH   7   9
ATOM      9  C   UNL     1      49.235   8.136  12.171  0.00  0.00    +0.000 A 
ATOM     10  C   UNL     1      49.952   8.834  13.156  0.00  0.00    +0.000 A 
ATOM     11  C   UNL     1      51.336   8.977  13.068  0.00  0.00    +0.000 A 
ATOM     12  C   UNL     1      51.985   8.425  11.980  0.00  0.00    +0.000 A 
ATOM     13  N   UNL     1      51.352   7.750  11.002  0.00  0.00    +0.000 NA
ATOM     14  C   UNL     1      50.005   7.621  11.124  0.00  0.00    +0.000 A 
ENDBRANCH   7   9
ENDBRANCH   1   2
BRANCH   1  15
ATOM     15  O   UNL     1      44.492   4.995  10.850  0.00  0.00    +0.000 OA
BRANCH  15  19
ATOM     16  C   UNL     1      46.333   3.192   7.703  0.00  0.00    +0.000 A 
ATOM     17  N   UNL     1      45.688   2.358   8.555  0.00  0.00    +0.000 NA
ATOM     18  C   UNL     1      45.079   2.955   9.602  0.00  0.00    +0.000 A 
ATOM     19  C   UNL     1      45.082   4.317   9.830  0.00  0.00    +0.000 A 
ATOM     20  C   UNL     1      45.775   5.057   8.891  0.00  0.00    +0.000 A 
ATOM     21  N   UNL     1      46.408   4.531   7.822  0.00  0.00    +0.000 NA
BRANCH  16  23
ATOM     22  N   UNL     1      47.999   1.636   6.818  0.00  0.00    +0.000 N 
ATOM     23  C   UNL     1      47.012   2.548   6.516  0.00  0.00    +0.000 C 
ATOM     24  O   UNL     1      46.729   2.788   5.349  0.00  0.00    +0.000 OA
ATOM     25  H   UNL     1      48.479   1.168   6.064  0.00  0.00    +0.000 HD
ATOM     26  H   UNL     1      48.228   1.430   7.784  0.00  0.00    +0.000 HD
ENDBRANCH  16  23
ENDBRANCH  15  19
ENDBRANCH   1  15
TORSDOF 5
ENDMDL
