MODEL 1
REMARK VINA RESULT:    -7.580      0.000      0.000
REMARK INTER + INTRA:         -10.473
REMARK INTER:                  -9.796
REMARK INTRA:                  -0.677
REMARK UNBOUND:                -0.677
REMARK  Name = 
REMARK  5 active torsions:
REMARK  status: ('A' for Active; 'I' for Inactive)
REMARK    1  A    between atoms: C_2  and  C_4
REMARK    2  A    between atoms: C_7  and  O_8
REMARK    3  A    between atoms: O_8  and  C_9
REMARK    4  A    between atoms: C_9  and  C_10
REMARK    5  A    between atoms: C_10  and  C_11
REMARK                            x       y       z     vdW  Elec       q    Type
REMARK                         _______ _______ _______ _____ _____    ______ ____
ROOT
ATOM      1  C   UNL     1      46.418   2.480   7.749  0.00  0.00    +0.000 A 
ATOM      2  C   UNL     1      45.630   1.832   8.703  0.00  0.00    +0.000 A 
ATOM      3  C   UNL     1      44.725   2.581   9.461  0.00  0.00    +0.000 A 
ATOM      4  C   UNL     1      44.628   3.943   9.217  0.00  0.00    +0.000 A 
ATOM      5  N   UNL     1      45.399   4.598   8.325  0.00  0.00    +0.000 NA
ATOM      6  C   UNL     1      46.288   3.856   7.620  0.00  0.00    +0.000 A 
ENDROOT
BRANCH   1   8
ATOM      7  N   UNL     1      48.479   2.482   6.470  0.00  0.00    +0.000 N 
ATOM      8  C   UNL     1      47.380   1.780   6.875  0.00  0.00    +0.000 C 
ATOM      9  O   UNL     1      47.230   0.603   6.570  0.00  0.00    +0.000 OA
ATOM     10  H   UNL     1      49.194   1.947   5.991  0.00  0.00    +0.000 HD
ATOM     11  H   UNL     1      48.765   3.346   6.911  0.00  0.00    +0.000 HD
ENDBRANCH   1   8
BRANCH   4  12
ATOM     12  O   UNL     1      43.702   4.652   9.959  0.00  0.00    +0.000 OA
BRANCH  12  13
ATOM     13  C   UNL     1      43.268   3.919  11.113  0.00  0.00    +0.000 C 
BRANCH  13  14
ATOM     14  C   UNL     1      43.421   4.806  12.348  0.00  0.00    +0.000 C 
BRANCH  14  15
ATOM     15  C   UNL     1      44.859   4.937  12.780  0.00  0.00    +0.000 A 
ATOM     16  C   UNL     1      45.595   3.815  13.168  0.00  0.00    +0.000 A 
ATOM     17  C   UNL     1      46.910   3.988  13.574  0.00  0.00    +0.000 A 
ATOM     18  N   UNL     1      47.531   5.186  13.624  0.00  0.00    +0.000 NA
ATOM     19  C   UNL     1      46.801   6.260  13.252  0.00  0.00    +0.000 A 
ATOM     20  C   UNL     1      45.479   6.188  12.833  0.00  0.00    +0.000 A 
ENDBRANCH  14  15
ENDBRANCH  13  14
ENDBRANCH  12  13
ENDBRANCH   4  12
TORSDOF 5
ENDMDL
MODEL 2
REMARK VINA RESULT:    -7.325      2.049      6.088
REMARK INTER + INTRA:         -10.143
REMARK INTER:                  -9.588
REMARK INTRA:                  -0.555
REMARK UNBOUND:                -0.677
REMARK  Name = 
REMARK  5 active torsions:
REMARK  status: ('A' for Active; 'I' for Inactive)
REMARK    1  A    between atoms: C_2  and  C_4
REMARK    2  A    between atoms: C_7  and  O_8
REMARK    3  A    between atoms: O_8  and  C_9
REMARK    4  A    between atoms: C_9  and  C_10
REMARK    5  A    between atoms: C_10  and  C_11
REMARK                            x       y       z     vdW  Elec       q    Type
REMARK                         _______ _______ _______ _____ _____    ______ ____
ROOT
ATOM      1  C   UNL     1      46.244   4.479  13.592  0.00  0.00    +0.000 A 
ATOM      2  C   UNL     1      45.942   3.294  12.917  0.00  0.00    +0.000 A 
ATOM      3  C   UNL     1      45.095   3.341  11.806  0.00  0.00    +0.000 A 
ATOM      4  C   UNL     1      44.606   4.574  11.400  0.00  0.00    +0.000 A 
ATOM      5  N   UNL     1      44.857   5.728  12.052  0.00  0.00    +0.000 NA
ATOM      6  C   UNL     1      45.658   5.654  13.143  0.00  0.00    +0.000 A 
ENDROOT
BRANCH   1   8
ATOM      7  N   UNL     1      47.574   5.783  15.146  0.00  0.00    +0.000 N 
ATOM      8  C   UNL     1      47.150   4.545  14.756  0.00  0.00    +0.000 C 
ATOM      9  O   UNL     1      47.465   3.539  15.380  0.00  0.00    +0.000 OA
ATOM     10  H   UNL     1      48.078   5.822  16.025  0.00  0.00    +0.000 HD
ATOM     11  H   UNL     1      47.131   6.634  14.829  0.00  0.00    +0.000 HD
ENDBRANCH   1   8
BRANCH   4  12
ATOM     12  O   UNL     1      43.798   4.594  10.279  0.00  0.00    +0.000 OA
BRANCH  12  13
ATOM     13  C   UNL     1      44.146   3.557   9.351  0.00  0.00    +0.000 C 
BRANCH  13  14
ATOM     14  C   UNL     1      45.111   4.127   8.312  0.00  0.00    +0.000 C 
BRANCH  14  15
ATOM     15  C   UNL     1      46.018   3.070   7.736  0.00  0.00    +0.000 A 
ATOM     16  C   UNL     1      46.021   1.772   8.253  0.00  0.00    +0.000 A 
ATOM     17  C   UNL     1      46.886   0.837   7.702  0.00  0.00    +0.000 A 
ATOM     18  N   UNL     1      47.738   1.105   6.688  0.00  0.00    +0.000 NA
ATOM     19  C   UNL     1      47.724   2.367   6.207  0.00  0.00    +0.000 A 
ATOM     20  C   UNL     1      46.898   3.371   6.694  0.00  0.00    +0.000 A 
ENDBRANCH  14  15
ENDBRANCH  13  14
ENDBRANCH  12  13
ENDBRANCH   4  12
TORSDOF 5
ENDMDL
MODEL 3
REMARK VINA RESULT:    -7.113      2.151      6.276
REMARK INTER + INTRA:          -9.869
REMARK INTER:                  -9.451
REMARK INTRA:                  -0.418
REMARK UNBOUND:                -0.677
REMARK  Name = 
REMARK  5 active torsions:
REMARK  status: ('A' for Active; 'I' for Inactive)
REMARK    1  A    between atoms: C_2  and  C_4
REMARK    2  A    between atoms: C_7  and  O_8
REMARK    3  A    between atoms: O_8  and  C_9
REMARK    4  A    between atoms: C_9  and  C_10
REMARK    5  A    between atoms: C_10  and  C_11
REMARK                            x       y       z     vdW  Elec       q    Type
REMARK                         _______ _______ _______ _____ _____    ______ ____
ROOT
ATOM      1  C   UNL     1      46.658   5.588  13.210  0.00  0.00    +0.000 A 
ATOM      2  C   UNL     1      46.560   6.267  11.993  0.00  0.00    +0.000 A 
ATOM      3  C   UNL     1      45.609   5.852  11.056  0.00  0.00    +0.000 A 
ATOM      4  C   UNL     1      44.777   4.792  11.385  0.00  0.00    +0.000 A 
ATOM      5  N   UNL     1      44.871   4.100  12.539  0.00  0.00    +0.000 NA
ATOM      6  C   UNL     1      45.819   4.502  13.421  0.00  0.00    +0.000 A 
ENDROOT
BRANCH   1   8
ATOM      7  N   UNL     1      47.914   7.288  14.400  0.00  0.00    +0.000 N 
ATOM      8  C   UNL     1      47.605   5.963  14.278  0.00  0.00    +0.000 C 
ATOM      9  O   UNL     1      48.051   5.131  15.059  0.00  0.00    +0.000 OA
ATOM     10  H   UNL     1      48.451   7.543  15.221  0.00  0.00    +0.000 HD
ATOM     11  H   UNL     1      47.370   8.016  13.958  0.00  0.00    +0.000 HD
ENDBRANCH   1   8
BRANCH   4  12
ATOM     12  O   UNL     1      43.825   4.425  10.453  0.00  0.00    +0.000 OA
BRANCH  12  13
ATOM     13  C   UNL     1      44.242   3.289   9.682  0.00  0.00    +0.000 C 
BRANCH  13  14
ATOM     14  C   UNL     1      44.773   3.776   8.334  0.00  0.00    +0.000 C 
BRANCH  14  15
ATOM     15  C   UNL     1      45.879   2.898   7.807  0.00  0.00    +0.000 A 
ATOM     16  C   UNL     1      46.821   3.397   6.905  0.00  0.00    +0.000 A 
ATOM     17  C   UNL     1      47.811   2.546   6.435  0.00  0.00    +0.000 A 
ATOM     18  N   UNL     1      47.922   1.249   6.794  0.00  0.00    +0.000 NA
ATOM     19  C   UNL     1      46.998   0.784   7.663  0.00  0.00    +0.000 A 
ATOM     20  C   UNL     1      45.970   1.556   8.186  0.00  0.00    +0.000 A 
ENDBRANCH  14  15
ENDBRANCH  13  14
ENDBRANCH  12  13
ENDBRANCH   4  12
TORSDOF 5
ENDMDL
MODEL 4
REMARK VINA RESULT:    -6.824      2.205      6.256
REMARK INTER + INTRA:          -9.496
REMARK INTER:                  -9.101
REMARK INTRA:                  -0.395
REMARK UNBOUND:                -0.677
REMARK  Name = 
REMARK  5 active torsions:
REMARK  status: ('A' for Active; 'I' for Inactive)
REMARK    1  A    between atoms: C_2  and  C_4
REMARK    2  A    between atoms: C_7  and  O_8
REMARK    3  A    between atoms: O_8  and  C_9
REMARK    4  A    between atoms: C_9  and  C_10
REMARK    5  A    between atoms: C_10  and  C_11
REMARK                            x       y       z     vdW  Elec       q    Type
REMARK                         _______ _______ _______ _____ _____    ______ ____
ROOT
ATOM      1  C   UNL     1      45.152   6.898  12.269  0.00  0.00    +0.000 A 
ATOM      2  C   UNL     1      44.004   7.008  11.479  0.00  0.00    +0.000 A 
ATOM      3  C   UNL     1      43.417   5.848  10.966  0.00  0.00    +0.000 A 
ATOM      4  C   UNL     1      43.987   4.623  11.283  0.00  0.00    +0.000 A 
ATOM      5  N   UNL     1      45.111   4.491  12.017  0.00  0.00    +0.000 NA
ATOM      6  C   UNL     1      45.678   5.631  12.481  0.00  0.00    +0.000 A 
ENDROOT
BRANCH   1   8
ATOM      7  N   UNL     1      45.130   9.224  12.955  0.00  0.00    +0.000 N 
ATOM      8  C   UNL     1      45.831   8.055  12.885  0.00  0.00    +0.000 C 
ATOM      9  O   UNL     1      46.955   7.957  13.363  0.00  0.00    +0.000 OA
ATOM     10  H   UNL     1      45.555   9.963  13.503  0.00  0.00    +0.000 HD
ATOM     11  H   UNL     1      44.129   9.267  12.819  0.00  0.00    +0.000 HD
ENDBRANCH   1   8
BRANCH   4  12
ATOM     12  O   UNL     1      43.366   3.492  10.788  0.00  0.00    +0.000 OA
BRANCH  12  13
ATOM     13  C   UNL     1      44.280   2.656  10.064  0.00  0.00    +0.000 C 
BRANCH  13  14
ATOM     14  C   UNL     1      44.628   3.335   8.740  0.00  0.00    +0.000 C 
BRANCH  14  15
ATOM     15  C   UNL     1      45.781   2.662   8.041  0.00  0.00    +0.000 A 
ATOM     16  C   UNL     1      46.009   1.292   8.193  0.00  0.00    +0.000 A 
ATOM     17  C   UNL     1      47.093   0.720   7.543  0.00  0.00    +0.000 A 
ATOM     18  N   UNL     1      47.955   1.411   6.767  0.00  0.00    +0.000 NA
ATOM     19  C   UNL     1      47.721   2.735   6.637  0.00  0.00    +0.000 A 
ATOM     20  C   UNL     1      46.667   3.397   7.249  0.00  0.00    +0.000 A 
ENDBRANCH  14  15
ENDBRANCH  13  14
ENDBRANCH  12  13
ENDBRANCH   4  12
TORSDOF 5
ENDMDL
MODEL 5
REMARK VINA RESULT:    -6.807      1.521      2.032
REMARK INTER + INTRA:          -9.474
REMARK INTER:                  -9.343
REMARK INTRA:                  -0.131
REMARK UNBOUND:                -0.677
REMARK  Name = 
REMARK  5 active torsions:
REMARK  status: ('A' for Active; 'I' for Inactive)
REMARK    1  A    between atoms: C_2  and  C_4
REMARK    2  A    between atoms: C_7  and  O_8
REMARK    3  A    between atoms: O_8  and  C_9
REMARK    4  A    between atoms: C_9  and  C_10
REMARK    5  A    between atoms: C_10  and  C_11
REMARK                            x       y       z     vdW  Elec       q    Type
REMARK                         _______ _______ _______ _____ _____    ______ ____
ROOT
ATOM      1  C   UNL     1      46.404   2.456   7.734  0.00  0.00    +0.000 A 
ATOM      2  C   UNL     1      45.552   1.824   8.643  0.00  0.00    +0.000 A 
ATOM      3  C   UNL     1      44.617   2.590   9.345  0.00  0.00    +0.000 A 
ATOM      4  C   UNL     1      44.555   3.953   9.092  0.00  0.00    +0.000 A 
ATOM      5  N   UNL     1      45.386   4.592   8.243  0.00  0.00    +0.000 NA
ATOM      6  C   UNL     1      46.303   3.833   7.594  0.00  0.00    +0.000 A 
ENDROOT
BRANCH   1   8
ATOM      7  N   UNL     1      48.496   2.446   6.506  0.00  0.00    +0.000 N 
ATOM      8  C   UNL     1      47.404   1.737   6.919  0.00  0.00    +0.000 C 
ATOM      9  O   UNL     1      47.289   0.543   6.671  0.00  0.00    +0.000 OA
ATOM     10  H   UNL     1      49.235   1.906   6.071  0.00  0.00    +0.000 HD
ATOM     11  H   UNL     1      48.750   3.337   6.908  0.00  0.00    +0.000 HD
ENDBRANCH   1   8
BRANCH   4  12
ATOM     12  O   UNL     1      43.600   4.679   9.777  0.00  0.00    +0.000 OA
BRANCH  12  13
ATOM     13  C   UNL     1      43.890   4.755  11.179  0.00  0.00    +0.000 C 
BRANCH  13  14
ATOM     14  C   UNL     1      45.361   5.127  11.360  0.00  0.00    +0.000 C 
BRANCH  14  15
ATOM     15  C   UNL     1      45.535   6.543  11.845  0.00  0.00    +0.000 A 
ATOM     16  C   UNL     1      46.478   6.853  12.828  0.00  0.00    +0.000 A 
ATOM     17  C   UNL     1      46.590   8.168  13.255  0.00  0.00    +0.000 A 
ATOM     18  N   UNL     1      45.833   9.180  12.779  0.00  0.00    +0.000 NA
ATOM     19  C   UNL     1      44.922   8.860  11.834  0.00  0.00    +0.000 A 
ATOM     20  C   UNL     1      44.735   7.575  11.346  0.00  0.00    +0.000 A 
ENDBRANCH  14  15
ENDBRANCH  13  14
ENDBRANCH  12  13
ENDBRANCH   4  12
TORSDOF 5
ENDMDL
MODEL 6
REMARK VINA RESULT:    -5.835      4.010      6.152
REMARK INTER + INTRA:          -8.218
REMARK INTER:                  -7.863
REMARK INTRA:                  -0.354
REMARK UNBOUND:                -0.677
REMARK  Name = 
REMARK  5 active torsions:
REMARK  status: ('A' for Active; 'I' for Inactive)
REMARK    1  A    between atoms: C_2  and  C_4
REMARK    2  A    between atoms: C_7  and  O_8
REMARK    3  A    between atoms: O_8  and  C_9
REMARK    4  A    between atoms: C_9  and  C_10
REMARK    5  A    between atoms: C_10  and  C_11
REMARK                            x       y       z     vdW  Elec       q    Type
REMARK                         _______ _______ _______ _____ _____    ______ ____
ROOT
ATOM      1  C   UNL     1      45.334   4.821  11.814  0.00  0.00    +0.000 A 
ATOM      2  C   UNL     1      46.131   5.647  12.610  0.00  0.00    +0.000 A 
ATOM      3  C   UNL     1      46.875   5.081  13.649  0.00  0.00    +0.000 A 
ATOM      4  C   UNL     1      46.811   3.707  13.834  0.00  0.00    +0.000 A 
ATOM      5  N   UNL     1      46.027   2.891  13.101  0.00  0.00    +0.000 NA
ATOM      6  C   UNL     1      45.293   3.466  12.117  0.00  0.00    +0.000 A 
ENDROOT
BRANCH   1   8
ATOM      7  N   UNL     1      45.194   5.526   9.498  0.00  0.00    +0.000 N 
ATOM      8  C   UNL     1      44.534   5.311  10.675  0.00  0.00    +0.000 C 
ATOM      9  O   UNL     1      43.322   5.466  10.762  0.00  0.00    +0.000 OA
ATOM     10  H   UNL     1      44.610   5.726   8.694  0.00  0.00    +0.000 HD
ATOM     11  H   UNL     1      46.119   5.161   9.319  0.00  0.00    +0.000 HD
ENDBRANCH   1   8
BRANCH   4  12
ATOM     12  O   UNL     1      47.583   3.172  14.848  0.00  0.00    +0.000 OA
BRANCH  12  13
ATOM     13  C   UNL     1      47.507   3.955  16.048  0.00  0.00    +0.000 C 
BRANCH  13  14
ATOM     14  C   UNL     1      47.863   3.068  17.240  0.00  0.00    +0.000 C 
BRANCH  14  15
ATOM     15  C   UNL     1      49.350   3.006  17.480  0.00  0.00    +0.000 A 
ATOM     16  C   UNL     1      50.091   1.885  17.098  0.00  0.00    +0.000 A 
ATOM     17  C   UNL     1      51.454   1.868  17.354  0.00  0.00    +0.000 A 
ATOM     18  N   UNL     1      52.119   2.875  17.961  0.00  0.00    +0.000 NA
ATOM     19  C   UNL     1      51.384   3.947  18.329  0.00  0.00    +0.000 A 
ATOM     20  C   UNL     1      50.017   4.056  18.118  0.00  0.00    +0.000 A 
ENDBRANCH  14  15
ENDBRANCH  13  14
ENDBRANCH  12  13
ENDBRANCH   4  12
TORSDOF 5
ENDMDL
MODEL 7
REMARK VINA RESULT:    -5.343      4.242      7.897
REMARK INTER + INTRA:          -7.583
REMARK INTER:                  -7.135
REMARK INTRA:                  -0.448
REMARK UNBOUND:                -0.677
REMARK  Name = 
REMARK  5 active torsions:
REMARK  status: ('A' for Active; 'I' for Inactive)
REMARK    1  A    between atoms: C_2  and  C_4
REMARK    2  A    between atoms: C_7  and  O_8
REMARK    3  A    between atoms: O_8  and  C_9
REMARK    4  A    between atoms: C_9  and  C_10
REMARK    5  A    between atoms: C_10  and  C_11
REMARK                            x       y       z     vdW  Elec       q    Type
REMARK                         _______ _______ _______ _____ _____    ______ ____
ROOT
ATOM      1  C   UNL     1      48.307   4.611  17.736  0.00  0.00    +0.000 A 
ATOM      2  C   UNL     1      47.434   3.751  17.064  0.00  0.00    +0.000 A 
ATOM      3  C   UNL     1      47.188   3.957  15.704  0.00  0.00    +0.000 A 
ATOM      4  C   UNL     1      47.844   5.000  15.065  0.00  0.00    +0.000 A 
ATOM      5  N   UNL     1      48.667   5.862  15.696  0.00  0.00    +0.000 NA
ATOM      6  C   UNL     1      48.869   5.660  17.021  0.00  0.00    +0.000 A 
ENDROOT
BRANCH   1   8
ATOM      7  N   UNL     1      48.347   3.277  19.761  0.00  0.00    +0.000 N 
ATOM      8  C   UNL     1      48.659   4.463  19.162  0.00  0.00    +0.000 C 
ATOM      9  O   UNL     1      49.256   5.344  19.768  0.00  0.00    +0.000 OA
ATOM     10  H   UNL     1      48.720   3.141  20.694  0.00  0.00    +0.000 HD
ATOM     11  H   UNL     1      48.104   2.449  19.235  0.00  0.00    +0.000 HD
ENDBRANCH   1   8
BRANCH   4  12
ATOM     12  O   UNL     1      47.606   5.159  13.713  0.00  0.00    +0.000 OA
BRANCH  12  13
ATOM     13  C   UNL     1      46.531   6.075  13.464  0.00  0.00    +0.000 C 
BRANCH  13  14
ATOM     14  C   UNL     1      46.140   5.990  11.989  0.00  0.00    +0.000 C 
BRANCH  14  15
ATOM     15  C   UNL     1      45.166   4.871  11.723  0.00  0.00    +0.000 A 
ATOM     16  C   UNL     1      44.966   4.389  10.427  0.00  0.00    +0.000 A 
ATOM     17  C   UNL     1      44.047   3.369  10.228  0.00  0.00    +0.000 A 
ATOM     18  N   UNL     1      43.320   2.808  11.218  0.00  0.00    +0.000 NA
ATOM     19  C   UNL     1      43.522   3.292  12.463  0.00  0.00    +0.000 A 
ATOM     20  C   UNL     1      44.417   4.310  12.761  0.00  0.00    +0.000 A 
ENDBRANCH  14  15
ENDBRANCH  13  14
ENDBRANCH  12  13
ENDBRANCH   4  12
TORSDOF 5
ENDMDL
MODEL 8
REMARK VINA RESULT:    -5.326      4.874      8.029
REMARK INTER + INTRA:          -7.560
REMARK INTER:                  -7.202
REMARK INTRA:                  -0.357
REMARK UNBOUND:                -0.677
REMARK  Name = 
REMARK  5 active torsions:
REMARK  status: ('A' for Active; 'I' for Inactive)
REMARK    1  A    between atoms: C_2  and  C_4
REMARK    2  A    between atoms: C_7  and  O_8
REMARK    3  A    between atoms: O_8  and  C_9
REMARK    4  A    between atoms: C_9  and  C_10
REMARK    5  A    between atoms: C_10  and  C_11
REMARK                            x       y       z     vdW  Elec       q    Type
REMARK                         _______ _______ _______ _____ _____    ______ ____
ROOT
ATOM      1  C   UNL     1      50.639   3.321  17.446  0.00  0.00    +0.000 A 
ATOM      2  C   UNL     1      49.899   2.196  17.073  0.00  0.00    +0.000 A 
ATOM      3  C   UNL     1      48.609   2.367  16.563  0.00  0.00    +0.000 A 
ATOM      4  C   UNL     1      48.120   3.658  16.423  0.00  0.00    +0.000 A 
ATOM      5  N   UNL     1      48.801   4.759  16.804  0.00  0.00    +0.000 NA
ATOM      6  C   UNL     1      50.039   4.567  17.321  0.00  0.00    +0.000 A 
ENDROOT
BRANCH   1   8
ATOM      7  N   UNL     1      52.421   2.069  18.513  0.00  0.00    +0.000 N 
ATOM      8  C   UNL     1      52.019   3.253  17.965  0.00  0.00    +0.000 C 
ATOM      9  O   UNL     1      52.790   4.200  17.860  0.00  0.00    +0.000 OA
ATOM     10  H   UNL     1      53.408   1.997  18.734  0.00  0.00    +0.000 HD
ATOM     11  H   UNL     1      51.914   1.206  18.375  0.00  0.00    +0.000 HD
ENDBRANCH   1   8
BRANCH   4  12
ATOM     12  O   UNL     1      46.855   3.799  15.886  0.00  0.00    +0.000 OA
BRANCH  12  13
ATOM     13  C   UNL     1      46.872   4.560  14.671  0.00  0.00    +0.000 C 
BRANCH  13  14
ATOM     14  C   UNL     1      46.686   3.609  13.489  0.00  0.00    +0.000 C 
BRANCH  14  15
ATOM     15  C   UNL     1      45.606   4.076  12.547  0.00  0.00    +0.000 A 
ATOM     16  C   UNL     1      45.652   5.353  11.982  0.00  0.00    +0.000 A 
ATOM     17  C   UNL     1      44.627   5.744  11.134  0.00  0.00    +0.000 A 
ATOM     18  N   UNL     1      43.571   4.963  10.819  0.00  0.00    +0.000 NA
ATOM     19  C   UNL     1      43.541   3.735  11.380  0.00  0.00    +0.000 A 
ATOM     20  C   UNL     1      44.518   3.255  12.242  0.00  0.00    +0.000 A 
ENDBRANCH  14  15
ENDBRANCH  13  14
ENDBRANCH  12  13
ENDBRANCH   4  12
TORSDOF 5
ENDMDL
MODEL 9
REMARK VINA RESULT:    -5.309      3.052      5.220
REMARK INTER + INTRA:          -7.539
REMARK INTER:                  -7.067
REMARK INTRA:                  -0.472
REMARK UNBOUND:                -0.677
REMARK  Name = 
REMARK  5 active torsions:
REMARK  status: ('A' for Active; 'I' for Inactive)
REMARK    1  A    between atoms: C_2  and  C_4
REMARK    2  A    between atoms: C_7  and  O_8
REMARK    3  A    between atoms: O_8  and  C_9
REMARK    4  A    between atoms: C_9  and  C_10
REMARK    5  A    between atoms: C_10  and  C_11
REMARK                            x       y       z     vdW  Elec       q    Type
REMARK                         _______ _______ _______ _____ _____    ______ ____
ROOT
ATOM      1  C   UNL     1      44.829   4.985  11.053  0.00  0.00    +0.000 A 
ATOM      2  C   UNL     1      45.823   5.825  10.544  0.00  0.00    +0.000 A 
ATOM      3  C   UNL     1      46.583   6.594  11.429  0.00  0.00    +0.000 A 
ATOM      4  C   UNL     1      46.335   6.475  12.789  0.00  0.00    +0.000 A 
ATOM      5  N   UNL     1      45.361   5.695  13.304  0.00  0.00    +0.000 NA
ATOM      6  C   UNL     1      44.619   4.979  12.425  0.00  0.00    +0.000 A 
ENDROOT
BRANCH   1   8
ATOM      7  N   UNL     1      43.998   4.347   8.865  0.00  0.00    +0.000 N 
ATOM      8  C   UNL     1      43.992   4.108  10.210  0.00  0.00    +0.000 C 
ATOM      9  O   UNL     1      43.363   3.172  10.687  0.00  0.00    +0.000 OA
ATOM     10  H   UNL     1      43.533   3.653   8.291  0.00  0.00    +0.000 HD
ATOM     11  H   UNL     1      44.697   4.924   8.418  0.00  0.00    +0.000 HD
ENDBRANCH   1   8
BRANCH   4  12
ATOM     12  O   UNL     1      47.123   7.223  13.642  0.00  0.00    +0.000 OA
BRANCH  12  13
ATOM     13  C   UNL     1      48.334   6.537  13.990  0.00  0.00    +0.000 C 
BRANCH  13  14
ATOM     14  C   UNL     1      48.620   6.762  15.475  0.00  0.00    +0.000 C 
BRANCH  14  15
ATOM     15  C   UNL     1      48.574   5.478  16.264  0.00  0.00    +0.000 A 
ATOM     16  C   UNL     1      47.555   4.546  16.056  0.00  0.00    +0.000 A 
ATOM     17  C   UNL     1      47.545   3.386  16.818  0.00  0.00    +0.000 A 
ATOM     18  N   UNL     1      48.467   3.099  17.763  0.00  0.00    +0.000 NA
ATOM     19  C   UNL     1      49.440   4.016  17.953  0.00  0.00    +0.000 A 
ATOM     20  C   UNL     1      49.532   5.205  17.243  0.00  0.00    +0.000 A 
ENDBRANCH  14  15
ENDBRANCH  13  14
ENDBRANCH  12  13
ENDBRANCH   4  12
TORSDOF 5
ENDMDL
