MODEL 1
REMARK VINA RESULT:    -8.061      0.000      0.000
REMARK INTER + INTRA:          -9.806
REMARK INTER:                  -9.475
REMARK INTRA:                  -0.331
REMARK UNBOUND:                -0.331
REMARK  Name = 
REMARK  3 active torsions:
REMARK  status: ('A' for Active; 'I' for Inactive)
REMARK    1  A    between atoms: C_2  and  C_4
REMARK    2  A    between atoms: N_8  and  C_9
REMARK    3  A    between atoms: C_9  and  C_10
REMARK                            x       y       z     vdW  Elec       q    Type
REMARK                         _______ _______ _______ _____ _____    ______ ____
ROOT
ATOM      1  C   UNL     1      46.454   2.674   7.477  0.00  0.00    +0.000 A 
ATOM      2  C   UNL     1      46.024   1.756   8.400  0.00  0.00    +0.000 A 
ATOM      3  N   UNL     1      45.206   2.066   9.432  0.00  0.00    +0.000 NA
ATOM      4  C   UNL     1      44.835   3.354   9.562  0.00  0.00    +0.000 A 
ATOM      5  N   UNL     1      43.906   3.605  10.572  0.00  0.00    +0.000 N 
ATOM      6  N   UNL     1      45.258   4.331   8.747  0.00  0.00    +0.000 NA
ATOM      7  C   UNL     1      46.055   3.969   7.714  0.00  0.00    +0.000 A 
ATOM      8  H   UNL     1      43.855   2.748  11.113  0.00  0.00    +0.000 HD
ENDROOT
BRANCH   1  10
ATOM      9  N   UNL     1      47.271   3.229   5.257  0.00  0.00    +0.000 N 
ATOM     10  C   UNL     1      47.282   2.351   6.306  0.00  0.00    +0.000 C 
ATOM     11  O   UNL     1      47.994   1.360   6.295  0.00  0.00    +0.000 OA
ATOM     12  H   UNL     1      47.950   3.046   4.525  0.00  0.00    +0.000 HD
ATOM     13  H   UNL     1      46.922   4.174   5.325  0.00  0.00    +0.000 HD
ENDBRANCH   1  10
BRANCH   5  14
ATOM     14  C   UNL     1      43.897   4.869  11.328  0.00  0.00    +0.000 C 
ATOM     15  C   UNL     1      42.641   5.097  12.161  0.00  0.00    +0.000 C 
ATOM     16  C   UNL     1      42.950   6.011  11.023  0.00  0.00    +0.000 C 
BRANCH  14  17
ATOM     17  C   UNL     1      45.249   5.194  11.945  0.00  0.00    +0.000 A 
ATOM     18  C   UNL     1      45.979   6.335  11.582  0.00  0.00    +0.000 A 
ATOM     19  C   UNL     1      47.155   6.669  12.249  0.00  0.00    +0.000 A 
ATOM     20  C   UNL     1      47.586   5.842  13.269  0.00  0.00    +0.000 A 
ATOM     21  F   UNL     1      48.693   6.180  13.942  0.00  0.00    +0.000 F 
ATOM     22  N   UNL     1      46.946   4.717  13.644  0.00  0.00    +0.000 NA
ATOM     23  C   UNL     1      45.800   4.426  12.976  0.00  0.00    +0.000 A 
ENDBRANCH  14  17
ENDBRANCH   5  14
TORSDOF 3
ENDMDL
MODEL 2
REMARK VINA RESULT:    -6.953      3.532      6.631
REMARK INTER + INTRA:          -8.504
REMARK INTER:                  -8.528
REMARK INTRA:                   0.024
REMARK UNBOUND:                -0.331
REMARK  Name = 
REMARK  3 active torsions:
REMARK  status: ('A' for Active; 'I' for Inactive)
REMARK    1  A    between atoms: C_2  and  C_4
REMARK    2  A    between atoms: N_8  and  C_9
REMARK    3  A    between atoms: C_9  and  C_10
REMARK                            x       y       z     vdW  Elec       q    Type
REMARK                         _______ _______ _______ _____ _____    ______ ____
ROOT
ATOM      1  C   UNL     1      47.756   5.733  14.835  0.00  0.00    +0.000 A 
ATOM      2  C   UNL     1      47.735   6.566  13.745  0.00  0.00    +0.000 A 
ATOM      3  N   UNL     1      46.847   6.442  12.732  0.00  0.00    +0.000 NA
ATOM      4  C   UNL     1      45.970   5.424  12.800  0.00  0.00    +0.000 A 
ATOM      5  N   UNL     1      45.006   5.403  11.791  0.00  0.00    +0.000 N 
ATOM      6  N   UNL     1      45.957   4.522  13.792  0.00  0.00    +0.000 NA
ATOM      7  C   UNL     1      46.848   4.700  14.797  0.00  0.00    +0.000 A 
ATOM      8  H   UNL     1      45.310   6.092  11.111  0.00  0.00    +0.000 HD
ENDROOT
BRANCH   1  10
ATOM      9  N   UNL     1      48.147   5.672  17.233  0.00  0.00    +0.000 N 
ATOM     10  C   UNL     1      48.661   5.889  15.983  0.00  0.00    +0.000 C 
ATOM     11  O   UNL     1      49.841   6.152  15.821  0.00  0.00    +0.000 OA
ATOM     12  H   UNL     1      48.824   5.656  17.988  0.00  0.00    +0.000 HD
ATOM     13  H   UNL     1      47.271   5.198  17.400  0.00  0.00    +0.000 HD
ENDBRANCH   1  10
BRANCH   5  14
ATOM     14  C   UNL     1      44.458   4.143  11.261  0.00  0.00    +0.000 C 
ATOM     15  C   UNL     1      42.951   3.988  11.434  0.00  0.00    +0.000 C 
ATOM     16  C   UNL     1      43.877   3.056  12.142  0.00  0.00    +0.000 C 
BRANCH  14  17
ATOM     17  C   UNL     1      45.082   3.743   9.933  0.00  0.00    +0.000 A 
ATOM     18  C   UNL     1      45.192   2.403   9.534  0.00  0.00    +0.000 A 
ATOM     19  C   UNL     1      45.659   2.075   8.264  0.00  0.00    +0.000 A 
ATOM     20  C   UNL     1      46.018   3.103   7.413  0.00  0.00    +0.000 A 
ATOM     21  F   UNL     1      46.427   2.795   6.176  0.00  0.00    +0.000 F 
ATOM     22  N   UNL     1      45.963   4.407   7.747  0.00  0.00    +0.000 NA
ATOM     23  C   UNL     1      45.498   4.690   8.991  0.00  0.00    +0.000 A 
ENDBRANCH  14  17
ENDBRANCH   5  14
TORSDOF 3
ENDMDL
MODEL 3
REMARK VINA RESULT:    -5.971      3.823      6.688
REMARK INTER + INTRA:          -7.349
REMARK INTER:                  -8.243
REMARK INTRA:                   0.894
REMARK UNBOUND:                -0.331
REMARK  Name = 
REMARK  3 active torsions:
REMARK  status: ('A' for Active; 'I' for Inactive)
REMARK    1  A    between atoms: C_2  and  C_4
REMARK    2  A    between atoms: N_8  and  C_9
REMARK    3  A    between atoms: C_9  and  C_10
REMARK                            x       y       z     vdW  Elec       q    Type
REMARK                         _______ _______ _______ _____ _____    ______ ____
ROOT
ATOM      1  C   UNL     1      48.334   5.837  15.460  0.00  0.00    +0.000 A 
ATOM      2  C   UNL     1      47.686   4.731  15.945  0.00  0.00    +0.000 A 
ATOM      3  N   UNL     1      46.744   4.055  15.247  0.00  0.00    +0.000 NA
ATOM      4  C   UNL     1      46.417   4.529  14.031  0.00  0.00    +0.000 A 
ATOM      5  N   UNL     1      45.524   3.738  13.306  0.00  0.00    +0.000 N 
ATOM      6  N   UNL     1      46.950   5.639  13.502  0.00  0.00    +0.000 NA
ATOM      7  C   UNL     1      47.906   6.269  14.226  0.00  0.00    +0.000 A 
ATOM      8  H   UNL     1      45.178   3.047  13.964  0.00  0.00    +0.000 HD
ENDROOT
BRANCH   1  10
ATOM      9  N   UNL     1      50.438   7.052  15.415  0.00  0.00    +0.000 N 
ATOM     10  C   UNL     1      49.412   6.546  16.165  0.00  0.00    +0.000 C 
ATOM     11  O   UNL     1      49.363   6.720  17.372  0.00  0.00    +0.000 OA
ATOM     12  H   UNL     1      51.093   7.646  15.913  0.00  0.00    +0.000 HD
ATOM     13  H   UNL     1      50.390   7.170  14.413  0.00  0.00    +0.000 HD
ENDBRANCH   1  10
BRANCH   5  14
ATOM     14  C   UNL     1      44.541   4.321  12.377  0.00  0.00    +0.000 C 
ATOM     15  C   UNL     1      44.039   5.704  12.777  0.00  0.00    +0.000 C 
ATOM     16  C   UNL     1      43.090   4.553  12.744  0.00  0.00    +0.000 C 
BRANCH  14  17
ATOM     17  C   UNL     1      44.889   4.067  10.918  0.00  0.00    +0.000 A 
ATOM     18  C   UNL     1      44.594   2.852  10.283  0.00  0.00    +0.000 A 
ATOM     19  C   UNL     1      44.816   2.691   8.917  0.00  0.00    +0.000 A 
ATOM     20  C   UNL     1      45.342   3.756   8.211  0.00  0.00    +0.000 A 
ATOM     21  F   UNL     1      45.518   3.622   6.890  0.00  0.00    +0.000 F 
ATOM     22  N   UNL     1      45.674   4.937   8.768  0.00  0.00    +0.000 NA
ATOM     23  C   UNL     1      45.438   5.059  10.101  0.00  0.00    +0.000 A 
ENDBRANCH  14  17
ENDBRANCH   5  14
TORSDOF 3
ENDMDL
MODEL 4
REMARK VINA RESULT:    -5.644      5.126      7.679
REMARK INTER + INTRA:          -6.965
REMARK INTER:                  -6.774
REMARK INTRA:                  -0.191
REMARK UNBOUND:                -0.331
REMARK  Name = 
REMARK  3 active torsions:
REMARK  status: ('A' for Active; 'I' for Inactive)
REMARK    1  A    between atoms: C_2  and  C_4
REMARK    2  A    between atoms: N_8  and  C_9
REMARK    3  A    between atoms: C_9  and  C_10
REMARK                            x       y       z     vdW  Elec       q    Type
REMARK                         _______ _______ _______ _____ _____    ______ ____
ROOT
ATOM      1  C   UNL     1      47.286   5.692  13.462  0.00  0.00    +0.000 A 
ATOM      2  C   UNL     1      46.779   4.495  13.900  0.00  0.00    +0.000 A 
ATOM      3  N   UNL     1      46.963   4.024  15.155  0.00  0.00    +0.000 NA
ATOM      4  C   UNL     1      47.713   4.766  15.990  0.00  0.00    +0.000 A 
ATOM      5  N   UNL     1      47.782   4.296  17.303  0.00  0.00    +0.000 N 
ATOM      6  N   UNL     1      48.302   5.916  15.632  0.00  0.00    +0.000 NA
ATOM      7  C   UNL     1      48.070   6.360  14.374  0.00  0.00    +0.000 A 
ATOM      8  H   UNL     1      47.376   3.366  17.279  0.00  0.00    +0.000 HD
ENDROOT
BRANCH   1  10
ATOM      9  N   UNL     1      45.986   5.767  11.411  0.00  0.00    +0.000 N 
ATOM     10  C   UNL     1      47.041   6.261  12.130  0.00  0.00    +0.000 C 
ATOM     11  O   UNL     1      47.723   7.178  11.703  0.00  0.00    +0.000 OA
ATOM     12  H   UNL     1      45.764   6.269  10.558  0.00  0.00    +0.000 HD
ATOM     13  H   UNL     1      45.245   5.215  11.818  0.00  0.00    +0.000 HD
ENDBRANCH   1  10
BRANCH   5  14
ATOM     14  C   UNL     1      48.985   4.474  18.133  0.00  0.00    +0.000 C 
ATOM     15  C   UNL     1      48.699   4.778  19.600  0.00  0.00    +0.000 C 
ATOM     16  C   UNL     1      49.377   5.801  18.750  0.00  0.00    +0.000 C 
BRANCH  14  17
ATOM     17  C   UNL     1      50.084   3.478  17.797  0.00  0.00    +0.000 A 
ATOM     18  C   UNL     1      51.427   3.708  18.131  0.00  0.00    +0.000 A 
ATOM     19  C   UNL     1      52.391   2.727  17.917  0.00  0.00    +0.000 A 
ATOM     20  C   UNL     1      51.991   1.527  17.361  0.00  0.00    +0.000 A 
ATOM     21  F   UNL     1      52.907   0.564  17.192  0.00  0.00    +0.000 F 
ATOM     22  N   UNL     1      50.724   1.256  16.991  0.00  0.00    +0.000 NA
ATOM     23  C   UNL     1      49.810   2.234  17.220  0.00  0.00    +0.000 A 
ENDBRANCH  14  17
ENDBRANCH   5  14
TORSDOF 3
ENDMDL
MODEL 5
REMARK VINA RESULT:    -5.581      5.696      7.491
REMARK INTER + INTRA:          -6.891
REMARK INTER:                  -6.478
REMARK INTRA:                  -0.412
REMARK UNBOUND:                -0.331
REMARK  Name = 
REMARK  3 active torsions:
REMARK  status: ('A' for Active; 'I' for Inactive)
REMARK    1  A    between atoms: C_2  and  C_4
REMARK    2  A    between atoms: N_8  and  C_9
REMARK    3  A    between atoms: C_9  and  C_10
REMARK                            x       y       z     vdW  Elec       q    Type
REMARK                         _______ _______ _______ _____ _____    ______ ____
ROOT
ATOM      1  C   UNL     1      49.324   7.260  12.912  0.00  0.00    +0.000 A 
ATOM      2  C   UNL     1      48.345   6.304  12.826  0.00  0.00    +0.000 A 
ATOM      3  N   UNL     1      47.789   5.709  13.907  0.00  0.00    +0.000 NA
ATOM      4  C   UNL     1      48.258   6.063  15.117  0.00  0.00    +0.000 A 
ATOM      5  N   UNL     1      47.581   5.507  16.203  0.00  0.00    +0.000 N 
ATOM      6  N   UNL     1      49.257   6.940  15.296  0.00  0.00    +0.000 NA
ATOM      7  C   UNL     1      49.766   7.528  14.187  0.00  0.00    +0.000 A 
ATOM      8  H   UNL     1      46.975   4.795  15.809  0.00  0.00    +0.000 HD
ENDROOT
BRANCH   1  10
ATOM      9  N   UNL     1      50.965   7.407  11.127  0.00  0.00    +0.000 N 
ATOM     10  C   UNL     1      49.892   7.974  11.760  0.00  0.00    +0.000 C 
ATOM     11  O   UNL     1      49.391   9.010  11.353  0.00  0.00    +0.000 OA
ATOM     12  H   UNL     1      51.248   7.854  10.261  0.00  0.00    +0.000 HD
ATOM     13  H   UNL     1      51.239   6.444  11.250  0.00  0.00    +0.000 HD
ENDBRANCH   1  10
BRANCH   5  14
ATOM     14  C   UNL     1      48.266   5.172  17.463  0.00  0.00    +0.000 C 
ATOM     15  C   UNL     1      47.362   5.165  18.690  0.00  0.00    +0.000 C 
ATOM     16  C   UNL     1      48.463   6.166  18.588  0.00  0.00    +0.000 C 
BRANCH  14  17
ATOM     17  C   UNL     1      49.280   4.050  17.300  0.00  0.00    +0.000 A 
ATOM     18  C   UNL     1      50.589   4.151  17.795  0.00  0.00    +0.000 A 
ATOM     19  C   UNL     1      51.457   3.064  17.736  0.00  0.00    +0.000 A 
ATOM     20  C   UNL     1      50.998   1.890  17.170  0.00  0.00    +0.000 A 
ATOM     21  F   UNL     1      51.814   0.828  17.148  0.00  0.00    +0.000 F 
ATOM     22  N   UNL     1      49.764   1.740  16.650  0.00  0.00    +0.000 NA
ATOM     23  C   UNL     1      48.943   2.819  16.730  0.00  0.00    +0.000 A 
ENDBRANCH  14  17
ENDBRANCH   5  14
TORSDOF 3
ENDMDL
MODEL 6
REMARK VINA RESULT:    -5.502      3.281      5.131
REMARK INTER + INTRA:          -6.798
REMARK INTER:                  -6.712
REMARK INTRA:                  -0.086
REMARK UNBOUND:                -0.331
REMARK  Name = 
REMARK  3 active torsions:
REMARK  status: ('A' for Active; 'I' for Inactive)
REMARK    1  A    between atoms: C_2  and  C_4
REMARK    2  A    between atoms: N_8  and  C_9
REMARK    3  A    between atoms: C_9  and  C_10
REMARK                            x       y       z     vdW  Elec       q    Type
REMARK                         _______ _______ _______ _____ _____    ______ ____
ROOT
ATOM      1  C   UNL     1      44.608   4.408  11.663  0.00  0.00    +0.000 A 
ATOM      2  C   UNL     1      44.109   4.973  12.809  0.00  0.00    +0.000 A 
ATOM      3  N   UNL     1      44.553   6.146  13.315  0.00  0.00    +0.000 NA
ATOM      4  C   UNL     1      45.561   6.758  12.665  0.00  0.00    +0.000 A 
ATOM      5  N   UNL     1      45.910   8.015  13.159  0.00  0.00    +0.000 N 
ATOM      6  N   UNL     1      46.155   6.250  11.575  0.00  0.00    +0.000 NA
ATOM      7  C   UNL     1      45.660   5.086  11.091  0.00  0.00    +0.000 A 
ATOM      8  H   UNL     1      45.418   8.106  14.042  0.00  0.00    +0.000 HD
ENDROOT
BRANCH   1  10
ATOM      9  N   UNL     1      44.897   2.529  10.151  0.00  0.00    +0.000 N 
ATOM     10  C   UNL     1      44.095   3.174  11.052  0.00  0.00    +0.000 C 
ATOM     11  O   UNL     1      43.012   2.715  11.378  0.00  0.00    +0.000 OA
ATOM     12  H   UNL     1      44.572   1.616   9.850  0.00  0.00    +0.000 HD
ATOM     13  H   UNL     1      45.885   2.712  10.054  0.00  0.00    +0.000 HD
ENDBRANCH   1  10
BRANCH   5  14
ATOM     14  C   UNL     1      47.295   8.514  13.116  0.00  0.00    +0.000 C 
ATOM     15  C   UNL     1      47.434   9.945  12.607  0.00  0.00    +0.000 C 
ATOM     16  C   UNL     1      48.025   8.820  11.825  0.00  0.00    +0.000 C 
BRANCH  14  17
ATOM     17  C   UNL     1      48.110   8.091  14.328  0.00  0.00    +0.000 A 
ATOM     18  C   UNL     1      48.089   8.813  15.530  0.00  0.00    +0.000 A 
ATOM     19  C   UNL     1      48.752   8.336  16.658  0.00  0.00    +0.000 A 
ATOM     20  C   UNL     1      49.436   7.140  16.558  0.00  0.00    +0.000 A 
ATOM     21  F   UNL     1      50.039   6.654  17.651  0.00  0.00    +0.000 F 
ATOM     22  N   UNL     1      49.518   6.414  15.425  0.00  0.00    +0.000 NA
ATOM     23  C   UNL     1      48.855   6.907  14.347  0.00  0.00    +0.000 A 
ENDBRANCH  14  17
ENDBRANCH   5  14
TORSDOF 3
ENDMDL
MODEL 7
REMARK VINA RESULT:    -5.261      4.640      7.445
REMARK INTER + INTRA:          -6.515
REMARK INTER:                  -6.107
REMARK INTRA:                  -0.408
REMARK UNBOUND:                -0.331
REMARK  Name = 
REMARK  3 active torsions:
REMARK  status: ('A' for Active; 'I' for Inactive)
REMARK    1  A    between atoms: C_2  and  C_4
REMARK    2  A    between atoms: N_8  and  C_9
REMARK    3  A    between atoms: C_9  and  C_10
REMARK                            x       y       z     vdW  Elec       q    Type
REMARK                         _______ _______ _______ _____ _____    ______ ____
ROOT
ATOM      1  C   UNL     1      46.122   4.950  13.459  0.00  0.00    +0.000 A 
ATOM      2  C   UNL     1      46.506   6.203  13.055  0.00  0.00    +0.000 A 
ATOM      3  N   UNL     1      47.560   6.865  13.585  0.00  0.00    +0.000 NA
ATOM      4  C   UNL     1      48.230   6.261  14.583  0.00  0.00    +0.000 A 
ATOM      5  N   UNL     1      49.373   6.932  15.022  0.00  0.00    +0.000 N 
ATOM      6  N   UNL     1      47.889   5.067  15.088  0.00  0.00    +0.000 NA
ATOM      7  C   UNL     1      46.843   4.431  14.509  0.00  0.00    +0.000 A 
ATOM      8  H   UNL     1      49.333   7.848  14.587  0.00  0.00    +0.000 HD
ENDROOT
BRANCH   1  10
ATOM      9  N   UNL     1      45.272   2.870  12.535  0.00  0.00    +0.000 N 
ATOM     10  C   UNL     1      45.028   4.179  12.851  0.00  0.00    +0.000 C 
ATOM     11  O   UNL     1      43.927   4.676  12.683  0.00  0.00    +0.000 OA
ATOM     12  H   UNL     1      44.464   2.332  12.242  0.00  0.00    +0.000 HD
ATOM     13  H   UNL     1      46.058   2.347  12.894  0.00  0.00    +0.000 HD
ENDBRANCH   1  10
BRANCH   5  14
ATOM     14  C   UNL     1      49.817   6.883  16.425  0.00  0.00    +0.000 C 
ATOM     15  C   UNL     1      51.312   7.107  16.622  0.00  0.00    +0.000 C 
ATOM     16  C   UNL     1      50.708   5.788  16.974  0.00  0.00    +0.000 C 
BRANCH  14  17
ATOM     17  C   UNL     1      48.847   7.572  17.373  0.00  0.00    +0.000 A 
ATOM     18  C   UNL     1      48.323   6.926  18.503  0.00  0.00    +0.000 A 
ATOM     19  C   UNL     1      47.532   7.619  19.416  0.00  0.00    +0.000 A 
ATOM     20  C   UNL     1      47.271   8.954  19.173  0.00  0.00    +0.000 A 
ATOM     21  F   UNL     1      46.546   9.637  20.069  0.00  0.00    +0.000 F 
ATOM     22  N   UNL     1      47.719   9.623  18.092  0.00  0.00    +0.000 NA
ATOM     23  C   UNL     1      48.492   8.916  17.227  0.00  0.00    +0.000 A 
ENDBRANCH  14  17
ENDBRANCH   5  14
TORSDOF 3
ENDMDL
