MODEL 1
REMARK VINA RESULT:    -7.137      0.000      0.000
REMARK INTER + INTRA:         -10.103
REMARK INTER:                  -9.224
REMARK INTRA:                  -0.879
REMARK UNBOUND:                -0.879
REMARK  Name = 
REMARK  5 active torsions:
REMARK  status: ('A' for Active; 'I' for Inactive)
REMARK    1  A    between atoms: C_2  and  C_18
REMARK    2  A    between atoms: N_3  and  C_4
REMARK    3  A    between atoms: C_4  and  C_5
REMARK    4  A    between atoms: C_8  and  C_9
REMARK    5  A    between atoms: C_9  and  N_10
REMARK                            x       y       z     vdW  Elec       q    Type
REMARK                         _______ _______ _______ _____ _____    ______ ____
ROOT
ATOM      1  O   UNL     1      51.564   5.806  16.444  0.00  0.00    +0.000 OA
ATOM      2  C   UNL     1      51.339   5.032  17.372  0.00  0.00    +0.000 C 
ATOM      3  N   UNL     1      50.096   4.939  17.949  0.00  0.00    +0.000 N 
ATOM      4  H   UNL     1      49.997   4.453  18.836  0.00  0.00    +0.000 HD
ENDROOT
BRANCH   2   5
ATOM      5  C   UNL     1      52.384   4.143  17.890  0.00  0.00    +0.000 A 
ATOM      6  C   UNL     1      53.484   4.682  18.543  0.00  0.00    +0.000 A 
ATOM      7  S   UNL     1      54.588   3.511  19.107  0.00  0.00    +0.000 S 
ATOM      8  C   UNL     1      53.611   2.241  18.540  0.00  0.00    +0.000 A 
ATOM      9  N   UNL     1      53.961   0.936  18.758  0.00  0.00    +0.000 NA
ATOM     10  C   UNL     1      53.107   0.078  18.304  0.00  0.00    +0.000 A 
ATOM     11  N   UNL     1      51.956   0.400  17.640  0.00  0.00    +0.000 N 
ATOM     12  C   UNL     1      51.580   1.693  17.370  0.00  0.00    +0.000 A 
ATOM     13  O   UNL     1      50.561   1.946  16.735  0.00  0.00    +0.000 OA
ATOM     14  C   UNL     1      52.483   2.702  17.889  0.00  0.00    +0.000 A 
ATOM     15  H   UNL     1      51.344  -0.327  17.287  0.00  0.00    +0.000 HD
ENDBRANCH   2   5
BRANCH   3  16
ATOM     16  C   UNL     1      49.044   5.850  17.564  0.00  0.00    +0.000 C 
BRANCH  16  17
ATOM     17  C   UNL     1      48.295   5.361  16.361  0.00  0.00    +0.000 A 
ATOM     18  C   UNL     1      48.287   6.103  15.181  0.00  0.00    +0.000 A 
ATOM     19  C   UNL     1      47.564   5.652  14.082  0.00  0.00    +0.000 A 
ATOM     20  C   UNL     1      46.820   4.479  14.189  0.00  0.00    +0.000 A 
ATOM     21  N   UNL     1      46.830   3.726  15.320  0.00  0.00    +0.000 NA
ATOM     22  C   UNL     1      47.558   4.182  16.372  0.00  0.00    +0.000 A 
BRANCH  20  23
ATOM     23  C   UNL     1      46.007   3.999  12.998  0.00  0.00    +0.000 C 
BRANCH  23  24
ATOM     24  N   UNL     1      44.545   4.180  12.992  0.00  0.00    +0.000 NA
ATOM     25  C   UNL     1      43.777   3.370  12.045  0.00  0.00    +0.000 C 
ATOM     26  C   UNL     1      43.470   3.998  10.659  0.00  0.00    +0.000 C 
ATOM     27  N   UNL     1      43.176   5.439  10.608  0.00  0.00    +0.000 NA
ATOM     28  C   UNL     1      43.995   6.202  11.564  0.00  0.00    +0.000 C 
ATOM     29  C   UNL     1      44.102   5.575  12.966  0.00  0.00    +0.000 C 
ATOM     30  H   UNL     1      42.196   5.590  10.831  0.00  0.00    +0.000 HD
ENDBRANCH  23  24
ENDBRANCH  20  23
ENDBRANCH  16  17
ENDBRANCH   3  16
TORSDOF 5
ENDMDL
MODEL 2
REMARK VINA RESULT:    -7.111      3.847      6.289
REMARK INTER + INTRA:         -10.069
REMARK INTER:                  -9.994
REMARK INTRA:                  -0.075
REMARK UNBOUND:                -0.879
REMARK  Name = 
REMARK  5 active torsions:
REMARK  status: ('A' for Active; 'I' for Inactive)
REMARK    1  A    between atoms: C_2  and  C_18
REMARK    2  A    between atoms: N_3  and  C_4
REMARK    3  A    between atoms: C_4  and  C_5
REMARK    4  A    between atoms: C_8  and  C_9
REMARK    5  A    between atoms: C_9  and  N_10
REMARK                            x       y       z     vdW  Elec       q    Type
REMARK                         _______ _______ _______ _____ _____    ______ ____
ROOT
ATOM      1  O   UNL     1      46.448   3.466  13.836  0.00  0.00    +0.000 OA
ATOM      2  C   UNL     1      46.395   4.648  14.167  0.00  0.00    +0.000 C 
ATOM      3  N   UNL     1      45.319   5.440  13.846  0.00  0.00    +0.000 N 
ATOM      4  H   UNL     1      45.399   6.448  13.948  0.00  0.00    +0.000 HD
ENDROOT
BRANCH   2   5
ATOM      5  C   UNL     1      47.470   5.267  14.951  0.00  0.00    +0.000 A 
ATOM      6  C   UNL     1      48.224   6.291  14.394  0.00  0.00    +0.000 A 
ATOM      7  S   UNL     1      49.411   6.917  15.447  0.00  0.00    +0.000 S 
ATOM      8  C   UNL     1      48.926   5.874  16.699  0.00  0.00    +0.000 A 
ATOM      9  N   UNL     1      49.515   5.936  17.932  0.00  0.00    +0.000 NA
ATOM     10  C   UNL     1      49.022   5.110  18.795  0.00  0.00    +0.000 A 
ATOM     11  N   UNL     1      48.016   4.220  18.536  0.00  0.00    +0.000 N 
ATOM     12  C   UNL     1      47.418   4.098  17.306  0.00  0.00    +0.000 A 
ATOM     13  O   UNL     1      46.547   3.260  17.097  0.00  0.00    +0.000 OA
ATOM     14  C   UNL     1      47.907   5.028  16.306  0.00  0.00    +0.000 A 
ATOM     15  H   UNL     1      47.696   3.582  19.255  0.00  0.00    +0.000 HD
ENDBRANCH   2   5
BRANCH   3  16
ATOM     16  C   UNL     1      44.272   4.934  12.992  0.00  0.00    +0.000 C 
BRANCH  16  17
ATOM     17  C   UNL     1      44.729   4.794  11.571  0.00  0.00    +0.000 A 
ATOM     18  C   UNL     1      44.409   3.657  10.832  0.00  0.00    +0.000 A 
ATOM     19  C   UNL     1      44.864   3.527   9.525  0.00  0.00    +0.000 A 
ATOM     20  C   UNL     1      45.673   4.522   8.982  0.00  0.00    +0.000 A 
ATOM     21  N   UNL     1      45.980   5.651   9.673  0.00  0.00    +0.000 NA
ATOM     22  C   UNL     1      45.507   5.759  10.942  0.00  0.00    +0.000 A 
BRANCH  20  23
ATOM     23  C   UNL     1      46.194   4.369   7.562  0.00  0.00    +0.000 C 
BRANCH  23  24
ATOM     24  N   UNL     1      46.010   3.092   6.850  0.00  0.00    +0.000 NA
ATOM     25  C   UNL     1      46.493   1.882   7.517  0.00  0.00    +0.000 C 
ATOM     26  C   UNL     1      47.935   1.413   7.182  0.00  0.00    +0.000 C 
ATOM     27  N   UNL     1      48.405   1.577   5.798  0.00  0.00    +0.000 NA
ATOM     28  C   UNL     1      47.907   2.822   5.190  0.00  0.00    +0.000 C 
ATOM     29  C   UNL     1      46.417   3.112   5.445  0.00  0.00    +0.000 C 
ATOM     30  H   UNL     1      48.080   0.792   5.239  0.00  0.00    +0.000 HD
ENDBRANCH  23  24
ENDBRANCH  20  23
ENDBRANCH  16  17
ENDBRANCH   3  16
TORSDOF 5
ENDMDL
MODEL 3
REMARK VINA RESULT:    -6.860      3.224      9.672
REMARK INTER + INTRA:          -9.745
REMARK INTER:                  -9.094
REMARK INTRA:                  -0.650
REMARK UNBOUND:                -0.879
REMARK  Name = 
REMARK  5 active torsions:
REMARK  status: ('A' for Active; 'I' for Inactive)
REMARK    1  A    between atoms: C_2  and  C_18
REMARK    2  A    between atoms: N_3  and  C_4
REMARK    3  A    between atoms: C_4  and  C_5
REMARK    4  A    between atoms: C_8  and  C_9
REMARK    5  A    between atoms: C_9  and  N_10
REMARK                            x       y       z     vdW  Elec       q    Type
REMARK                         _______ _______ _______ _____ _____    ______ ____
ROOT
ATOM      1  O   UNL     1      47.201   3.107  14.013  0.00  0.00    +0.000 OA
ATOM      2  C   UNL     1      46.808   4.170  14.487  0.00  0.00    +0.000 C 
ATOM      3  N   UNL     1      46.835   4.412  15.839  0.00  0.00    +0.000 N 
ATOM      4  H   UNL     1      46.316   5.202  16.212  0.00  0.00    +0.000 HD
ENDROOT
BRANCH   2   5
ATOM      5  C   UNL     1      46.315   5.251  13.626  0.00  0.00    +0.000 A 
ATOM      6  C   UNL     1      47.136   6.335  13.344  0.00  0.00    +0.000 A 
ATOM      7  S   UNL     1      46.421   7.484  12.308  0.00  0.00    +0.000 S 
ATOM      8  C   UNL     1      45.008   6.552  12.162  0.00  0.00    +0.000 A 
ATOM      9  N   UNL     1      43.985   6.951  11.345  0.00  0.00    +0.000 NA
ATOM     10  C   UNL     1      42.990   6.127  11.304  0.00  0.00    +0.000 A 
ATOM     11  N   UNL     1      42.914   4.960  12.014  0.00  0.00    +0.000 N 
ATOM     12  C   UNL     1      43.900   4.535  12.870  0.00  0.00    +0.000 A 
ATOM     13  O   UNL     1      43.781   3.504  13.524  0.00  0.00    +0.000 OA
ATOM     14  C   UNL     1      45.060   5.404  12.929  0.00  0.00    +0.000 A 
ATOM     15  H   UNL     1      42.089   4.374  11.954  0.00  0.00    +0.000 HD
ENDBRANCH   2   5
BRANCH   3  16
ATOM     16  C   UNL     1      47.209   3.364  16.759  0.00  0.00    +0.000 C 
BRANCH  16  17
ATOM     17  C   UNL     1      48.680   3.375  17.049  0.00  0.00    +0.000 A 
ATOM     18  C   UNL     1      49.426   2.200  16.974  0.00  0.00    +0.000 A 
ATOM     19  C   UNL     1      50.784   2.219  17.273  0.00  0.00    +0.000 A 
ATOM     20  C   UNL     1      51.375   3.411  17.686  0.00  0.00    +0.000 A 
ATOM     21  N   UNL     1      50.675   4.574  17.745  0.00  0.00    +0.000 NA
ATOM     22  C   UNL     1      49.355   4.529  17.430  0.00  0.00    +0.000 A 
BRANCH  20  23
ATOM     23  C   UNL     1      52.853   3.428  18.041  0.00  0.00    +0.000 C 
BRANCH  23  24
ATOM     24  N   UNL     1      53.275   3.145  19.424  0.00  0.00    +0.000 NA
ATOM     25  C   UNL     1      52.968   4.158  20.435  0.00  0.00    +0.000 C 
ATOM     26  C   UNL     1      54.060   5.220  20.732  0.00  0.00    +0.000 C 
ATOM     27  N   UNL     1      55.465   4.783  20.712  0.00  0.00    +0.000 NA
ATOM     28  C   UNL     1      55.718   3.785  19.661  0.00  0.00    +0.000 C 
ATOM     29  C   UNL     1      54.655   2.675  19.557  0.00  0.00    +0.000 C 
ATOM     30  H   UNL     1      55.701   4.372  21.611  0.00  0.00    +0.000 HD
ENDBRANCH  23  24
ENDBRANCH  20  23
ENDBRANCH  16  17
ENDBRANCH   3  16
TORSDOF 5
ENDMDL
MODEL 4
REMARK VINA RESULT:    -6.656      3.243      4.284
REMARK INTER + INTRA:          -9.481
REMARK INTER:                  -8.229
REMARK INTRA:                  -1.252
REMARK UNBOUND:                -0.879
REMARK  Name = 
REMARK  5 active torsions:
REMARK  status: ('A' for Active; 'I' for Inactive)
REMARK    1  A    between atoms: C_2  and  C_18
REMARK    2  A    between atoms: N_3  and  C_4
REMARK    3  A    between atoms: C_4  and  C_5
REMARK    4  A    between atoms: C_8  and  C_9
REMARK    5  A    between atoms: C_9  and  N_10
REMARK                            x       y       z     vdW  Elec       q    Type
REMARK                         _______ _______ _______ _____ _____    ______ ____
ROOT
ATOM      1  O   UNL     1      48.419   8.684  16.250  0.00  0.00    +0.000 OA
ATOM      2  C   UNL     1      48.841   7.563  15.976  0.00  0.00    +0.000 C 
ATOM      3  N   UNL     1      49.169   7.209  14.690  0.00  0.00    +0.000 N 
ATOM      4  H   UNL     1      49.311   6.228  14.467  0.00  0.00    +0.000 HD
ENDROOT
BRANCH   2   5
ATOM      5  C   UNL     1      49.044   6.551  17.019  0.00  0.00    +0.000 A 
ATOM      6  C   UNL     1      49.769   6.874  18.158  0.00  0.00    +0.000 A 
ATOM      7  S   UNL     1      49.886   5.595  19.280  0.00  0.00    +0.000 S 
ATOM      8  C   UNL     1      48.932   4.582  18.304  0.00  0.00    +0.000 A 
ATOM      9  N   UNL     1      48.592   3.324  18.722  0.00  0.00    +0.000 NA
ATOM     10  C   UNL     1      47.834   2.680  17.895  0.00  0.00    +0.000 A 
ATOM     11  N   UNL     1      47.406   3.166  16.690  0.00  0.00    +0.000 N 
ATOM     12  C   UNL     1      47.748   4.408  16.215  0.00  0.00    +0.000 A 
ATOM     13  O   UNL     1      47.380   4.796  15.112  0.00  0.00    +0.000 OA
ATOM     14  C   UNL     1      48.569   5.191  17.119  0.00  0.00    +0.000 A 
ATOM     15  H   UNL     1      46.834   2.594  16.079  0.00  0.00    +0.000 HD
ENDBRANCH   2   5
BRANCH   3  16
ATOM     16  C   UNL     1      48.903   8.112  13.596  0.00  0.00    +0.000 C 
BRANCH  16  17
ATOM     17  C   UNL     1      47.614   7.784  12.904  0.00  0.00    +0.000 A 
ATOM     18  C   UNL     1      46.459   8.517  13.171  0.00  0.00    +0.000 A 
ATOM     19  C   UNL     1      45.263   8.184  12.543  0.00  0.00    +0.000 A 
ATOM     20  C   UNL     1      45.227   7.090  11.682  0.00  0.00    +0.000 A 
ATOM     21  N   UNL     1      46.343   6.375  11.386  0.00  0.00    +0.000 NA
ATOM     22  C   UNL     1      47.500   6.733  12.001  0.00  0.00    +0.000 A 
BRANCH  20  23
ATOM     23  C   UNL     1      43.915   6.708  11.016  0.00  0.00    +0.000 C 
BRANCH  23  24
ATOM     24  N   UNL     1      43.193   5.505  11.464  0.00  0.00    +0.000 NA
ATOM     25  C   UNL     1      43.301   5.151  12.881  0.00  0.00    +0.000 C 
ATOM     26  C   UNL     1      44.421   4.154  13.281  0.00  0.00    +0.000 C 
ATOM     27  N   UNL     1      44.722   3.053  12.352  0.00  0.00    +0.000 NA
ATOM     28  C   UNL     1      44.621   3.475  10.946  0.00  0.00    +0.000 C 
ATOM     29  C   UNL     1      43.382   4.327  10.616  0.00  0.00    +0.000 C 
ATOM     30  H   UNL     1      44.066   2.292  12.509  0.00  0.00    +0.000 HD
ENDBRANCH  23  24
ENDBRANCH  20  23
ENDBRANCH  16  17
ENDBRANCH   3  16
TORSDOF 5
ENDMDL
MODEL 5
REMARK VINA RESULT:    -6.629      4.735      8.623
REMARK INTER + INTRA:          -9.446
REMARK INTER:                  -8.868
REMARK INTRA:                  -0.578
REMARK UNBOUND:                -0.879
REMARK  Name = 
REMARK  5 active torsions:
REMARK  status: ('A' for Active; 'I' for Inactive)
REMARK    1  A    between atoms: C_2  and  C_18
REMARK    2  A    between atoms: N_3  and  C_4
REMARK    3  A    between atoms: C_4  and  C_5
REMARK    4  A    between atoms: C_8  and  C_9
REMARK    5  A    between atoms: C_9  and  N_10
REMARK                            x       y       z     vdW  Elec       q    Type
REMARK                         _______ _______ _______ _____ _____    ______ ____
ROOT
ATOM      1  O   UNL     1      45.334   7.833  12.019  0.00  0.00    +0.000 OA
ATOM      2  C   UNL     1      46.067   6.972  11.537  0.00  0.00    +0.000 C 
ATOM      3  N   UNL     1      47.435   7.047  11.643  0.00  0.00    +0.000 N 
ATOM      4  H   UNL     1      48.010   6.443  11.063  0.00  0.00    +0.000 HD
ENDROOT
BRANCH   2   5
ATOM      5  C   UNL     1      45.514   5.802  10.848  0.00  0.00    +0.000 A 
ATOM      6  C   UNL     1      45.797   5.598   9.504  0.00  0.00    +0.000 A 
ATOM      7  S   UNL     1      45.100   4.179   8.865  0.00  0.00    +0.000 S 
ATOM      8  C   UNL     1      44.435   3.763  10.373  0.00  0.00    +0.000 A 
ATOM      9  N   UNL     1      43.744   2.594  10.537  0.00  0.00    +0.000 NA
ATOM     10  C   UNL     1      43.327   2.391  11.744  0.00  0.00    +0.000 A 
ATOM     11  N   UNL     1      43.519   3.252  12.789  0.00  0.00    +0.000 N 
ATOM     12  C   UNL     1      44.177   4.451  12.666  0.00  0.00    +0.000 A 
ATOM     13  O   UNL     1      44.295   5.219  13.615  0.00  0.00    +0.000 OA
ATOM     14  C   UNL     1      44.700   4.715  11.339  0.00  0.00    +0.000 A 
ATOM     15  H   UNL     1      43.140   3.041  13.705  0.00  0.00    +0.000 HD
ENDBRANCH   2   5
BRANCH   3  16
ATOM     16  C   UNL     1      48.059   8.215  12.216  0.00  0.00    +0.000 C 
BRANCH  16  17
ATOM     17  C   UNL     1      48.486   7.982  13.634  0.00  0.00    +0.000 A 
ATOM     18  C   UNL     1      47.983   8.772  14.666  0.00  0.00    +0.000 A 
ATOM     19  C   UNL     1      48.411   8.563  15.973  0.00  0.00    +0.000 A 
ATOM     20  C   UNL     1      49.372   7.588  16.228  0.00  0.00    +0.000 A 
ATOM     21  N   UNL     1      49.860   6.788  15.244  0.00  0.00    +0.000 NA
ATOM     22  C   UNL     1      49.412   7.004  13.980  0.00  0.00    +0.000 A 
BRANCH  20  23
ATOM     23  C   UNL     1      49.860   7.376  17.652  0.00  0.00    +0.000 C 
BRANCH  23  24
ATOM     24  N   UNL     1      49.521   6.130  18.363  0.00  0.00    +0.000 NA
ATOM     25  C   UNL     1      49.017   5.018  17.555  0.00  0.00    +0.000 C 
ATOM     26  C   UNL     1      47.477   4.892  17.402  0.00  0.00    +0.000 C 
ATOM     27  N   UNL     1      46.643   5.229  18.566  0.00  0.00    +0.000 NA
ATOM     28  C   UNL     1      47.186   6.369  19.323  0.00  0.00    +0.000 C 
ATOM     29  C   UNL     1      48.707   6.315  19.565  0.00  0.00    +0.000 C 
ATOM     30  H   UNL     1      46.591   4.425  19.186  0.00  0.00    +0.000 HD
ENDBRANCH  23  24
ENDBRANCH  20  23
ENDBRANCH  16  17
ENDBRANCH   3  16
TORSDOF 5
ENDMDL
MODEL 6
REMARK VINA RESULT:    -6.181      4.195      6.816
REMARK INTER + INTRA:          -8.867
REMARK INTER:                  -8.537
REMARK INTRA:                  -0.330
REMARK UNBOUND:                -0.879
REMARK  Name = 
REMARK  5 active torsions:
REMARK  status: ('A' for Active; 'I' for Inactive)
REMARK    1  A    between atoms: C_2  and  C_18
REMARK    2  A    between atoms: N_3  and  C_4
REMARK    3  A    between atoms: C_4  and  C_5
REMARK    4  A    between atoms: C_8  and  C_9
REMARK    5  A    between atoms: C_9  and  N_10
REMARK                            x       y       z     vdW  Elec       q    Type
REMARK                         _______ _______ _______ _____ _____    ______ ____
ROOT
ATOM      1  O   UNL     1      46.012   3.615  13.925  0.00  0.00    +0.000 OA
ATOM      2  C   UNL     1      46.193   4.812  14.139  0.00  0.00    +0.000 C 
ATOM      3  N   UNL     1      45.329   5.769  13.666  0.00  0.00    +0.000 N 
ATOM      4  H   UNL     1      45.615   6.744  13.679  0.00  0.00    +0.000 HD
ENDROOT
BRANCH   2   5
ATOM      5  C   UNL     1      47.331   5.277  14.940  0.00  0.00    +0.000 A 
ATOM      6  C   UNL     1      47.572   4.711  16.185  0.00  0.00    +0.000 A 
ATOM      7  S   UNL     1      48.946   5.345  16.970  0.00  0.00    +0.000 S 
ATOM      8  C   UNL     1      49.294   6.363  15.654  0.00  0.00    +0.000 A 
ATOM      9  N   UNL     1      50.409   7.156  15.657  0.00  0.00    +0.000 NA
ATOM     10  C   UNL     1      50.565   7.850  14.577  0.00  0.00    +0.000 A 
ATOM     11  N   UNL     1      49.706   7.840  13.513  0.00  0.00    +0.000 N 
ATOM     12  C   UNL     1      48.559   7.086  13.479  0.00  0.00    +0.000 A 
ATOM     13  O   UNL     1      47.789   7.132  12.525  0.00  0.00    +0.000 OA
ATOM     14  C   UNL     1      48.350   6.257  14.651  0.00  0.00    +0.000 A 
ATOM     15  H   UNL     1      49.878   8.431  12.707  0.00  0.00    +0.000 HD
ENDBRANCH   2   5
BRANCH   3  16
ATOM     16  C   UNL     1      44.246   5.401  12.786  0.00  0.00    +0.000 C 
BRANCH  16  17
ATOM     17  C   UNL     1      44.723   5.153  11.387  0.00  0.00    +0.000 A 
ATOM     18  C   UNL     1      44.338   4.004  10.699  0.00  0.00    +0.000 A 
ATOM     19  C   UNL     1      44.811   3.772   9.412  0.00  0.00    +0.000 A 
ATOM     20  C   UNL     1      45.702   4.677   8.840  0.00  0.00    +0.000 A 
ATOM     21  N   UNL     1      46.075   5.816   9.479  0.00  0.00    +0.000 NA
ATOM     22  C   UNL     1      45.583   6.025  10.728  0.00  0.00    +0.000 A 
BRANCH  20  23
ATOM     23  C   UNL     1      46.242   4.412   7.444  0.00  0.00    +0.000 C 
BRANCH  23  24
ATOM     24  N   UNL     1      46.036   3.093   6.820  0.00  0.00    +0.000 NA
ATOM     25  C   UNL     1      46.518   1.924   7.557  0.00  0.00    +0.000 C 
ATOM     26  C   UNL     1      47.950   1.420   7.233  0.00  0.00    +0.000 C 
ATOM     27  N   UNL     1      48.401   1.488   5.835  0.00  0.00    +0.000 NA
ATOM     28  C   UNL     1      47.906   2.696   5.154  0.00  0.00    +0.000 C 
ATOM     29  C   UNL     1      46.422   3.018   5.410  0.00  0.00    +0.000 C 
ATOM     30  H   UNL     1      48.061   0.672   5.332  0.00  0.00    +0.000 HD
ENDBRANCH  23  24
ENDBRANCH  20  23
ENDBRANCH  16  17
ENDBRANCH   3  16
TORSDOF 5
ENDMDL
MODEL 7
REMARK VINA RESULT:    -6.178      1.645      2.880
REMARK INTER + INTRA:          -8.863
REMARK INTER:                  -8.122
REMARK INTRA:                  -0.740
REMARK UNBOUND:                -0.879
REMARK  Name = 
REMARK  5 active torsions:
REMARK  status: ('A' for Active; 'I' for Inactive)
REMARK    1  A    between atoms: C_2  and  C_18
REMARK    2  A    between atoms: N_3  and  C_4
REMARK    3  A    between atoms: C_4  and  C_5
REMARK    4  A    between atoms: C_8  and  C_9
REMARK    5  A    between atoms: C_9  and  N_10
REMARK                            x       y       z     vdW  Elec       q    Type
REMARK                         _______ _______ _______ _____ _____    ______ ____
ROOT
ATOM      1  O   UNL     1      49.603   1.535  16.089  0.00  0.00    +0.000 OA
ATOM      2  C   UNL     1      49.985   2.274  16.993  0.00  0.00    +0.000 C 
ATOM      3  N   UNL     1      49.129   3.140  17.629  0.00  0.00    +0.000 N 
ATOM      4  H   UNL     1      49.514   3.874  18.216  0.00  0.00    +0.000 HD
ENDROOT
BRANCH   2   5
ATOM      5  C   UNL     1      51.376   2.245  17.462  0.00  0.00    +0.000 A 
ATOM      6  C   UNL     1      52.010   1.026  17.658  0.00  0.00    +0.000 A 
ATOM      7  S   UNL     1      53.628   1.173  18.176  0.00  0.00    +0.000 S 
ATOM      8  C   UNL     1      53.551   2.870  18.110  0.00  0.00    +0.000 A 
ATOM      9  N   UNL     1      54.653   3.633  18.386  0.00  0.00    +0.000 NA
ATOM     10  C   UNL     1      54.458   4.905  18.261  0.00  0.00    +0.000 A 
ATOM     11  N   UNL     1      53.269   5.481  17.910  0.00  0.00    +0.000 N 
ATOM     12  C   UNL     1      52.129   4.758  17.656  0.00  0.00    +0.000 A 
ATOM     13  O   UNL     1      51.067   5.309  17.384  0.00  0.00    +0.000 OA
ATOM     14  C   UNL     1      52.297   3.320  17.745  0.00  0.00    +0.000 A 
ATOM     15  H   UNL     1      53.181   6.489  17.857  0.00  0.00    +0.000 HD
ENDBRANCH   2   5
BRANCH   3  16
ATOM     16  C   UNL     1      47.774   3.300  17.159  0.00  0.00    +0.000 C 
BRANCH  16  17
ATOM     17  C   UNL     1      47.711   4.119  15.905  0.00  0.00    +0.000 A 
ATOM     18  C   UNL     1      48.045   5.471  15.924  0.00  0.00    +0.000 A 
ATOM     19  C   UNL     1      47.955   6.226  14.759  0.00  0.00    +0.000 A 
ATOM     20  C   UNL     1      47.489   5.625  13.591  0.00  0.00    +0.000 A 
ATOM     21  N   UNL     1      47.179   4.303  13.541  0.00  0.00    +0.000 NA
ATOM     22  C   UNL     1      47.294   3.587  14.690  0.00  0.00    +0.000 A 
BRANCH  20  23
ATOM     23  C   UNL     1      47.363   6.455  12.324  0.00  0.00    +0.000 C 
BRANCH  23  24
ATOM     24  N   UNL     1      46.027   6.786  11.798  0.00  0.00    +0.000 NA
ATOM     25  C   UNL     1      44.921   6.812  12.756  0.00  0.00    +0.000 C 
ATOM     26  C   UNL     1      44.101   5.506  12.932  0.00  0.00    +0.000 C 
ATOM     27  N   UNL     1      43.852   4.687  11.736  0.00  0.00    +0.000 NA
ATOM     28  C   UNL     1      45.007   4.678  10.823  0.00  0.00    +0.000 C 
ATOM     29  C   UNL     1      45.650   6.057  10.585  0.00  0.00    +0.000 C 
ATOM     30  H   UNL     1      43.049   5.057  11.236  0.00  0.00    +0.000 HD
ENDBRANCH  23  24
ENDBRANCH  20  23
ENDBRANCH  16  17
ENDBRANCH   3  16
TORSDOF 5
ENDMDL
MODEL 8
REMARK VINA RESULT:    -5.973      3.982      9.223
REMARK INTER + INTRA:          -8.597
REMARK INTER:                  -7.877
REMARK INTRA:                  -0.720
REMARK UNBOUND:                -0.879
REMARK  Name = 
REMARK  5 active torsions:
REMARK  status: ('A' for Active; 'I' for Inactive)
REMARK    1  A    between atoms: C_2  and  C_18
REMARK    2  A    between atoms: N_3  and  C_4
REMARK    3  A    between atoms: C_4  and  C_5
REMARK    4  A    between atoms: C_8  and  C_9
REMARK    5  A    between atoms: C_9  and  N_10
REMARK                            x       y       z     vdW  Elec       q    Type
REMARK                         _______ _______ _______ _____ _____    ______ ____
ROOT
ATOM      1  O   UNL     1      45.551   7.970  11.446  0.00  0.00    +0.000 OA
ATOM      2  C   UNL     1      46.110   6.876  11.468  0.00  0.00    +0.000 C 
ATOM      3  N   UNL     1      47.296   6.684  12.134  0.00  0.00    +0.000 N 
ATOM      4  H   UNL     1      47.831   5.838  11.959  0.00  0.00    +0.000 HD
ENDROOT
BRANCH   2   5
ATOM      5  C   UNL     1      45.520   5.707  10.806  0.00  0.00    +0.000 A 
ATOM      6  C   UNL     1      45.772   5.479   9.460  0.00  0.00    +0.000 A 
ATOM      7  S   UNL     1      45.034   4.066   8.855  0.00  0.00    +0.000 S 
ATOM      8  C   UNL     1      44.391   3.685  10.381  0.00  0.00    +0.000 A 
ATOM      9  N   UNL     1      43.680   2.533  10.574  0.00  0.00    +0.000 NA
ATOM     10  C   UNL     1      43.283   2.355  11.792  0.00  0.00    +0.000 A 
ATOM     11  N   UNL     1      43.512   3.226  12.822  0.00  0.00    +0.000 N 
ATOM     12  C   UNL     1      44.192   4.409  12.668  0.00  0.00    +0.000 A 
ATOM     13  O   UNL     1      44.344   5.187  13.604  0.00  0.00    +0.000 OA
ATOM     14  C   UNL     1      44.694   4.645  11.328  0.00  0.00    +0.000 A 
ATOM     15  H   UNL     1      43.148   3.035  13.748  0.00  0.00    +0.000 HD
ENDBRANCH   2   5
BRANCH   3  16
ATOM     16  C   UNL     1      47.991   7.804  12.722  0.00  0.00    +0.000 C 
BRANCH  16  17
ATOM     17  C   UNL     1      48.478   7.495  14.105  0.00  0.00    +0.000 A 
ATOM     18  C   UNL     1      49.171   8.452  14.844  0.00  0.00    +0.000 A 
ATOM     19  C   UNL     1      49.643   8.141  16.115  0.00  0.00    +0.000 A 
ATOM     20  C   UNL     1      49.451   6.857  16.619  0.00  0.00    +0.000 A 
ATOM     21  N   UNL     1      48.759   5.913  15.929  0.00  0.00    +0.000 NA
ATOM     22  C   UNL     1      48.295   6.250  14.697  0.00  0.00    +0.000 A 
BRANCH  20  23
ATOM     23  C   UNL     1      49.990   6.507  17.997  0.00  0.00    +0.000 C 
BRANCH  23  24
ATOM     24  N   UNL     1      51.429   6.242  18.172  0.00  0.00    +0.000 NA
ATOM     25  C   UNL     1      52.005   5.146  17.392  0.00  0.00    +0.000 C 
ATOM     26  C   UNL     1      52.063   3.748  18.065  0.00  0.00    +0.000 C 
ATOM     27  N   UNL     1      52.356   3.693  19.505  0.00  0.00    +0.000 NA
ATOM     28  C   UNL     1      51.731   4.805  20.239  0.00  0.00    +0.000 C 
ATOM     29  C   UNL     1      51.873   6.182  19.565  0.00  0.00    +0.000 C 
ATOM     30  H   UNL     1      53.362   3.739  19.645  0.00  0.00    +0.000 HD
ENDBRANCH  23  24
ENDBRANCH  20  23
ENDBRANCH  16  17
ENDBRANCH   3  16
TORSDOF 5
ENDMDL
MODEL 9
REMARK VINA RESULT:    -5.833      2.240      2.795
REMARK INTER + INTRA:          -8.417
REMARK INTER:                  -7.623
REMARK INTRA:                  -0.794
REMARK UNBOUND:                -0.879
REMARK  Name = 
REMARK  5 active torsions:
REMARK  status: ('A' for Active; 'I' for Inactive)
REMARK    1  A    between atoms: C_2  and  C_18
REMARK    2  A    between atoms: N_3  and  C_4
REMARK    3  A    between atoms: C_4  and  C_5
REMARK    4  A    between atoms: C_8  and  C_9
REMARK    5  A    between atoms: C_9  and  N_10
REMARK                            x       y       z     vdW  Elec       q    Type
REMARK                         _______ _______ _______ _____ _____    ______ ____
ROOT
ATOM      1  O   UNL     1      51.564   8.415  16.800  0.00  0.00    +0.000 OA
ATOM      2  C   UNL     1      51.939   7.488  16.086  0.00  0.00    +0.000 C 
ATOM      3  N   UNL     1      51.607   7.422  14.755  0.00  0.00    +0.000 N 
ATOM      4  H   UNL     1      51.753   6.551  14.251  0.00  0.00    +0.000 HD
ENDROOT
BRANCH   2   5
ATOM      5  C   UNL     1      52.789   6.416  16.616  0.00  0.00    +0.000 A 
ATOM      6  C   UNL     1      54.164   6.599  16.683  0.00  0.00    +0.000 A 
ATOM      7  S   UNL     1      55.000   5.270  17.349  0.00  0.00    +0.000 S 
ATOM      8  C   UNL     1      53.549   4.424  17.615  0.00  0.00    +0.000 A 
ATOM      9  N   UNL     1      53.553   3.203  18.231  0.00  0.00    +0.000 NA
ATOM     10  C   UNL     1      52.377   2.693  18.400  0.00  0.00    +0.000 A 
ATOM     11  N   UNL     1      51.208   3.278  17.995  0.00  0.00    +0.000 N 
ATOM     12  C   UNL     1      51.158   4.486  17.345  0.00  0.00    +0.000 A 
ATOM     13  O   UNL     1      50.096   4.963  16.959  0.00  0.00    +0.000 OA
ATOM     14  C   UNL     1      52.448   5.123  17.160  0.00  0.00    +0.000 A 
ATOM     15  H   UNL     1      50.322   2.808  18.137  0.00  0.00    +0.000 HD
ENDBRANCH   2   5
BRANCH   3  16
ATOM     16  C   UNL     1      50.692   8.381  14.184  0.00  0.00    +0.000 C 
BRANCH  16  17
ATOM     17  C   UNL     1      49.495   7.715  13.575  0.00  0.00    +0.000 A 
ATOM     18  C   UNL     1      49.237   7.829  12.210  0.00  0.00    +0.000 A 
ATOM     19  C   UNL     1      48.107   7.230  11.664  0.00  0.00    +0.000 A 
ATOM     20  C   UNL     1      47.220   6.556  12.501  0.00  0.00    +0.000 A 
ATOM     21  N   UNL     1      47.460   6.411  13.830  0.00  0.00    +0.000 NA
ATOM     22  C   UNL     1      48.581   6.991  14.333  0.00  0.00    +0.000 A 
BRANCH  20  23
ATOM     23  C   UNL     1      45.970   5.924  11.910  0.00  0.00    +0.000 C 
BRANCH  23  24
ATOM     24  N   UNL     1      45.198   4.953  12.705  0.00  0.00    +0.000 NA
ATOM     25  C   UNL     1      45.293   3.546  12.314  0.00  0.00    +0.000 C 
ATOM     26  C   UNL     1      44.219   3.007  11.331  0.00  0.00    +0.000 C 
ATOM     27  N   UNL     1      42.844   3.509  11.476  0.00  0.00    +0.000 NA
ATOM     28  C   UNL     1      42.812   4.933  11.845  0.00  0.00    +0.000 C 
ATOM     29  C   UNL     1      43.806   5.334  12.951  0.00  0.00    +0.000 C 
ATOM     30  H   UNL     1      42.367   2.977  12.199  0.00  0.00    +0.000 HD
ENDBRANCH  23  24
ENDBRANCH  20  23
ENDBRANCH  16  17
ENDBRANCH   3  16
TORSDOF 5
ENDMDL
