MODEL 1
REMARK VINA RESULT:    -8.009      0.000      0.000
REMARK INTER + INTRA:         -12.837
REMARK INTER:                 -11.754
REMARK INTRA:                  -1.083
REMARK UNBOUND:                -1.083
REMARK  Name = 
REMARK  9 active torsions:
REMARK  status: ('A' for Active; 'I' for Inactive)
REMARK    1  A    between atoms: C_1  and  O_2
REMARK    2  A    between atoms: O_2  and  C_3
REMARK    3  A    between atoms: C_10  and  C_11
REMARK    4  A    between atoms: N_13  and  C_14
REMARK    5  A    between atoms: C_14  and  C_15
REMARK    6  A    between atoms: C_18  and  C_19
REMARK    7  A    between atoms: C_19  and  C_20
REMARK    8  A    between atoms: C_20  and  N_21
REMARK    9  A    between atoms: N_21  and  C_22
REMARK                            x       y       z     vdW  Elec       q    Type
REMARK                         _______ _______ _______ _____ _____    ______ ____
ROOT
ATOM      1  C   UNL     1      47.797   7.408  13.394  0.00  0.00    +0.000 C 
ENDROOT
BRANCH   1   2
ATOM      2  C   UNL     1      46.955   6.292  12.851  0.00  0.00    +0.000 A 
ATOM      3  C   UNL     1      46.390   6.374  11.582  0.00  0.00    +0.000 A 
ATOM      4  C   UNL     1      45.549   5.360  11.131  0.00  0.00    +0.000 A 
ATOM      5  C   UNL     1      45.267   4.274  11.960  0.00  0.00    +0.000 A 
ATOM      6  N   UNL     1      45.816   4.178  13.197  0.00  0.00    +0.000 NA
ATOM      7  C   UNL     1      46.643   5.171  13.609  0.00  0.00    +0.000 A 
BRANCH   5   8
ATOM      8  C   UNL     1      44.329   3.149  11.562  0.00  0.00    +0.000 C 
BRANCH   8   9
ATOM      9  C   UNL     1      44.129   3.002  10.050  0.00  0.00    +0.000 C 
BRANCH   9  10
ATOM     10  N   UNL     1      44.764   1.802   9.495  0.00  0.00    +0.000 N 
ATOM     11  H   UNL     1      44.090   1.075   9.261  0.00  0.00    +0.000 HD
BRANCH  10  12
ATOM     12  C   UNL     1      45.659   2.026   8.427  0.00  0.00    +0.000 A 
ATOM     13  C   UNL     1      45.859   3.281   7.840  0.00  0.00    +0.000 A 
ATOM     14  C   UNL     1      46.795   3.455   6.821  0.00  0.00    +0.000 A 
ATOM     15  C   UNL     1      47.546   2.365   6.427  0.00  0.00    +0.000 A 
ATOM     16  N   UNL     1      47.432   1.144   6.987  0.00  0.00    +0.000 NA
ATOM     17  C   UNL     1      46.515   1.014   7.978  0.00  0.00    +0.000 A 
ENDBRANCH  10  12
ENDBRANCH   9  10
ENDBRANCH   8   9
ENDBRANCH   5   8
ENDBRANCH   1   2
BRANCH   1  20
ATOM     18  C   UNL     1      49.044   7.060  15.480  0.00  0.00    +0.000 C 
ATOM     19  O   UNL     1      50.073   6.839  14.845  0.00  0.00    +0.000 OA
ATOM     20  N   UNL     1      47.871   7.347  14.835  0.00  0.00    +0.000 N 
ATOM     21  H   UNL     1      47.036   7.550  15.368  0.00  0.00    +0.000 HD
BRANCH  18  29
ATOM     22  C   UNL     1      48.770   4.528  17.812  0.00  0.00    +0.000 A 
ATOM     23  N   UNL     1      48.645   3.763  18.916  0.00  0.00    +0.000 NA
ATOM     24  C   UNL     1      48.680   4.366  20.107  0.00  0.00    +0.000 A 
ATOM     25  N   UNL     1      48.826   5.666  20.340  0.00  0.00    +0.000 NA
ATOM     26  C   UNL     1      48.930   6.394  19.215  0.00  0.00    +0.000 A 
ATOM     27  S   UNL     1      49.129   8.076  19.326  0.00  0.00    +0.000 S 
ATOM     28  C   UNL     1      49.166   8.231  17.635  0.00  0.00    +0.000 A 
ATOM     29  C   UNL     1      49.031   7.026  16.953  0.00  0.00    +0.000 A 
ATOM     30  C   UNL     1      48.901   5.924  17.904  0.00  0.00    +0.000 A 
BRANCH  22  32
ATOM     31  C   UNL     1      48.744   2.478  16.697  0.00  0.00    +0.000 C 
ATOM     32  O   UNL     1      48.737   3.901  16.583  0.00  0.00    +0.000 OA
ENDBRANCH  22  32
ENDBRANCH  18  29
ENDBRANCH   1  20
TORSDOF 8
ENDMDL
MODEL 2
REMARK VINA RESULT:    -7.833      1.510      2.511
REMARK INTER + INTRA:         -12.579
REMARK INTER:                 -11.648
REMARK INTRA:                  -0.932
REMARK UNBOUND:                -1.083
REMARK  Name = 
REMARK  9 active torsions:
REMARK  status: ('A' for Active; 'I' for Inactive)
REMARK    1  A    between atoms: C_1  and  O_2
REMARK    2  A    between atoms: O_2  and  C_3
REMARK    3  A    between atoms: C_10  and  C_11
REMARK    4  A    between atoms: N_13  and  C_14
REMARK    5  A    between atoms: C_14  and  C_15
REMARK    6  A    between atoms: C_18  and  C_19
REMARK    7  A    between atoms: C_19  and  C_20
REMARK    8  A    between atoms: C_20  and  N_21
REMARK    9  A    between atoms: N_21  and  C_22
REMARK                            x       y       z     vdW  Elec       q    Type
REMARK                         _______ _______ _______ _____ _____    ______ ____
ROOT
ATOM      1  C   UNL     1      47.933   6.703  13.863  0.00  0.00    +0.000 C 
ENDROOT
BRANCH   1   2
ATOM      2  C   UNL     1      46.979   5.824  13.112  0.00  0.00    +0.000 A 
ATOM      3  C   UNL     1      46.514   6.184  11.851  0.00  0.00    +0.000 A 
ATOM      4  C   UNL     1      45.569   5.389  11.206  0.00  0.00    +0.000 A 
ATOM      5  C   UNL     1      45.084   4.243  11.836  0.00  0.00    +0.000 A 
ATOM      6  N   UNL     1      45.533   3.875  13.062  0.00  0.00    +0.000 NA
ATOM      7  C   UNL     1      46.463   4.658  13.664  0.00  0.00    +0.000 A 
BRANCH   5   8
ATOM      8  C   UNL     1      44.024   3.345  11.222  0.00  0.00    +0.000 C 
BRANCH   8   9
ATOM      9  C   UNL     1      44.193   3.112   9.717  0.00  0.00    +0.000 C 
BRANCH   9  10
ATOM     10  N   UNL     1      45.042   1.959   9.400  0.00  0.00    +0.000 N 
ATOM     11  H   UNL     1      44.526   1.081   9.401  0.00  0.00    +0.000 HD
BRANCH  10  12
ATOM     12  C   UNL     1      45.828   2.085   8.235  0.00  0.00    +0.000 A 
ATOM     13  C   UNL     1      45.925   3.268   7.494  0.00  0.00    +0.000 A 
ATOM     14  C   UNL     1      46.758   3.351   6.379  0.00  0.00    +0.000 A 
ATOM     15  C   UNL     1      47.513   2.245   6.041  0.00  0.00    +0.000 A 
ATOM     16  N   UNL     1      47.499   1.094   6.744  0.00  0.00    +0.000 NA
ATOM     17  C   UNL     1      46.680   1.053   7.825  0.00  0.00    +0.000 A 
ENDBRANCH  10  12
ENDBRANCH   9  10
ENDBRANCH   8   9
ENDBRANCH   5   8
ENDBRANCH   1   2
BRANCH   1  20
ATOM     18  C   UNL     1      48.984   6.364  16.056  0.00  0.00    +0.000 C 
ATOM     19  O   UNL     1      50.100   6.487  15.556  0.00  0.00    +0.000 OA
ATOM     20  N   UNL     1      47.857   6.454  15.283  0.00  0.00    +0.000 N 
ATOM     21  H   UNL     1      46.943   6.375  15.710  0.00  0.00    +0.000 HD
BRANCH  18  29
ATOM     22  C   UNL     1      47.898   8.299  18.701  0.00  0.00    +0.000 A 
ATOM     23  N   UNL     1      47.562   8.825  19.896  0.00  0.00    +0.000 NA
ATOM     24  C   UNL     1      47.650   8.042  20.975  0.00  0.00    +0.000 A 
ATOM     25  N   UNL     1      48.041   6.772  21.010  0.00  0.00    +0.000 NA
ATOM     26  C   UNL     1      48.381   6.292  19.802  0.00  0.00    +0.000 A 
ATOM     27  S   UNL     1      48.899   4.683  19.660  0.00  0.00    +0.000 S 
ATOM     28  C   UNL     1      49.123   4.852  17.986  0.00  0.00    +0.000 A 
ATOM     29  C   UNL     1      48.814   6.117  17.498  0.00  0.00    +0.000 A 
ATOM     30  C   UNL     1      48.358   6.976  18.589  0.00  0.00    +0.000 A 
BRANCH  22  32
ATOM     31  C   UNL     1      47.784  10.497  17.924  0.00  0.00    +0.000 C 
ATOM     32  O   UNL     1      47.802   9.110  17.588  0.00  0.00    +0.000 OA
ENDBRANCH  22  32
ENDBRANCH  18  29
ENDBRANCH   1  20
TORSDOF 8
ENDMDL
MODEL 3
REMARK VINA RESULT:    -7.754      1.586      1.961
REMARK INTER + INTRA:         -12.464
REMARK INTER:                 -11.081
REMARK INTRA:                  -1.382
REMARK UNBOUND:                -1.083
REMARK  Name = 
REMARK  9 active torsions:
REMARK  status: ('A' for Active; 'I' for Inactive)
REMARK    1  A    between atoms: C_1  and  O_2
REMARK    2  A    between atoms: O_2  and  C_3
REMARK    3  A    between atoms: C_10  and  C_11
REMARK    4  A    between atoms: N_13  and  C_14
REMARK    5  A    between atoms: C_14  and  C_15
REMARK    6  A    between atoms: C_18  and  C_19
REMARK    7  A    between atoms: C_19  and  C_20
REMARK    8  A    between atoms: C_20  and  N_21
REMARK    9  A    between atoms: N_21  and  C_22
REMARK                            x       y       z     vdW  Elec       q    Type
REMARK                         _______ _______ _______ _____ _____    ______ ____
ROOT
ATOM      1  C   UNL     1      48.187   7.884  13.088  0.00  0.00    +0.000 C 
ENDROOT
BRANCH   1   2
ATOM      2  C   UNL     1      46.962   7.346  12.412  0.00  0.00    +0.000 A 
ATOM      3  C   UNL     1      45.804   8.112  12.314  0.00  0.00    +0.000 A 
ATOM      4  C   UNL     1      44.655   7.563  11.750  0.00  0.00    +0.000 A 
ATOM      5  C   UNL     1      44.669   6.242  11.300  0.00  0.00    +0.000 A 
ATOM      6  N   UNL     1      45.792   5.486  11.383  0.00  0.00    +0.000 NA
ATOM      7  C   UNL     1      46.902   6.047  11.924  0.00  0.00    +0.000 A 
BRANCH   5   8
ATOM      8  C   UNL     1      43.449   5.555  10.711  0.00  0.00    +0.000 C 
BRANCH   8   9
ATOM      9  C   UNL     1      43.752   4.228  10.008  0.00  0.00    +0.000 C 
BRANCH   9  10
ATOM     10  N   UNL     1      44.240   4.398   8.636  0.00  0.00    +0.000 N 
ATOM     11  H   UNL     1      44.601   5.335   8.461  0.00  0.00    +0.000 HD
BRANCH  10  12
ATOM     12  C   UNL     1      45.148   3.414   8.187  0.00  0.00    +0.000 A 
ATOM     13  C   UNL     1      46.154   3.665   7.247  0.00  0.00    +0.000 A 
ATOM     14  C   UNL     1      47.057   2.668   6.879  0.00  0.00    +0.000 A 
ATOM     15  C   UNL     1      46.956   1.434   7.490  0.00  0.00    +0.000 A 
ATOM     16  N   UNL     1      46.039   1.147   8.437  0.00  0.00    +0.000 NA
ATOM     17  C   UNL     1      45.182   2.144   8.772  0.00  0.00    +0.000 A 
ENDBRANCH  10  12
ENDBRANCH   9  10
ENDBRANCH   8   9
ENDBRANCH   5   8
ENDBRANCH   1   2
BRANCH   1  20
ATOM     18  C   UNL     1      48.546   7.573  15.497  0.00  0.00    +0.000 C 
ATOM     19  O   UNL     1      48.234   8.744  15.709  0.00  0.00    +0.000 OA
ATOM     20  N   UNL     1      48.551   7.070  14.225  0.00  0.00    +0.000 N 
ATOM     21  H   UNL     1      48.786   6.098  14.065  0.00  0.00    +0.000 HD
BRANCH  18  29
ATOM     22  C   UNL     1      47.621   4.367  16.382  0.00  0.00    +0.000 A 
ATOM     23  N   UNL     1      47.417   3.171  16.972  0.00  0.00    +0.000 NA
ATOM     24  C   UNL     1      48.093   2.897  18.091  0.00  0.00    +0.000 A 
ATOM     25  N   UNL     1      48.965   3.687  18.710  0.00  0.00    +0.000 NA
ATOM     26  C   UNL     1      49.127   4.873  18.101  0.00  0.00    +0.000 A 
ATOM     27  S   UNL     1      50.210   6.005  18.753  0.00  0.00    +0.000 S 
ATOM     28  C   UNL     1      49.858   7.122  17.523  0.00  0.00    +0.000 A 
ATOM     29  C   UNL     1      48.922   6.671  16.598  0.00  0.00    +0.000 A 
ATOM     30  C   UNL     1      48.494   5.316  16.941  0.00  0.00    +0.000 A 
BRANCH  22  32
ATOM     31  C   UNL     1      47.106   3.639  14.225  0.00  0.00    +0.000 C 
ATOM     32  O   UNL     1      46.925   4.644  15.223  0.00  0.00    +0.000 OA
ENDBRANCH  22  32
ENDBRANCH  18  29
ENDBRANCH   1  20
TORSDOF 8
ENDMDL
MODEL 4
REMARK VINA RESULT:    -7.574      2.257      2.747
REMARK INTER + INTRA:         -12.199
REMARK INTER:                 -11.175
REMARK INTRA:                  -1.024
REMARK UNBOUND:                -1.083
REMARK  Name = 
REMARK  9 active torsions:
REMARK  status: ('A' for Active; 'I' for Inactive)
REMARK    1  A    between atoms: C_1  and  O_2
REMARK    2  A    between atoms: O_2  and  C_3
REMARK    3  A    between atoms: C_10  and  C_11
REMARK    4  A    between atoms: N_13  and  C_14
REMARK    5  A    between atoms: C_14  and  C_15
REMARK    6  A    between atoms: C_18  and  C_19
REMARK    7  A    between atoms: C_19  and  C_20
REMARK    8  A    between atoms: C_20  and  N_21
REMARK    9  A    between atoms: N_21  and  C_22
REMARK                            x       y       z     vdW  Elec       q    Type
REMARK                         _______ _______ _______ _____ _____    ______ ____
ROOT
ATOM      1  C   UNL     1      48.480   6.943  15.047  0.00  0.00    +0.000 C 
ENDROOT
BRANCH   1   2
ATOM      2  C   UNL     1      47.594   6.046  14.236  0.00  0.00    +0.000 A 
ATOM      3  C   UNL     1      47.163   6.421  12.967  0.00  0.00    +0.000 A 
ATOM      4  C   UNL     1      46.279   5.605  12.265  0.00  0.00    +0.000 A 
ATOM      5  C   UNL     1      45.821   4.422  12.845  0.00  0.00    +0.000 A 
ATOM      6  N   UNL     1      46.238   4.039  14.077  0.00  0.00    +0.000 NA
ATOM      7  C   UNL     1      47.108   4.844  14.736  0.00  0.00    +0.000 A 
BRANCH   5   8
ATOM      8  C   UNL     1      44.825   3.498  12.165  0.00  0.00    +0.000 C 
BRANCH   8   9
ATOM      9  C   UNL     1      44.302   4.015  10.822  0.00  0.00    +0.000 C 
BRANCH   9  10
ATOM     10  N   UNL     1      44.168   2.964   9.808  0.00  0.00    +0.000 N 
ATOM     11  H   UNL     1      43.259   2.977   9.348  0.00  0.00    +0.000 HD
BRANCH  10  12
ATOM     12  C   UNL     1      45.213   2.895   8.862  0.00  0.00    +0.000 A 
ATOM     13  C   UNL     1      45.854   1.703   8.507  0.00  0.00    +0.000 A 
ATOM     14  C   UNL     1      46.846   1.685   7.526  0.00  0.00    +0.000 A 
ATOM     15  C   UNL     1      47.158   2.869   6.888  0.00  0.00    +0.000 A 
ATOM     16  N   UNL     1      46.541   4.039   7.152  0.00  0.00    +0.000 NA
ATOM     17  C   UNL     1      45.579   4.016   8.108  0.00  0.00    +0.000 A 
ENDBRANCH  10  12
ENDBRANCH   9  10
ENDBRANCH   8   9
ENDBRANCH   5   8
ENDBRANCH   1   2
BRANCH   1  20
ATOM     18  C   UNL     1      49.657   5.921  16.943  0.00  0.00    +0.000 C 
ATOM     19  O   UNL     1      48.770   6.290  17.711  0.00  0.00    +0.000 OA
ATOM     20  N   UNL     1      49.589   6.207  15.607  0.00  0.00    +0.000 N 
ATOM     21  H   UNL     1      50.313   5.878  14.981  0.00  0.00    +0.000 HD
BRANCH  18  29
ATOM     22  C   UNL     1      50.426   2.557  17.069  0.00  0.00    +0.000 A 
ATOM     23  N   UNL     1      50.960   1.336  17.275  0.00  0.00    +0.000 NA
ATOM     24  C   UNL     1      52.164   1.263  17.848  0.00  0.00    +0.000 A 
ATOM     25  N   UNL     1      52.920   2.281  18.250  0.00  0.00    +0.000 NA
ATOM     26  C   UNL     1      52.346   3.478  18.042  0.00  0.00    +0.000 A 
ATOM     27  S   UNL     1      53.174   4.889  18.490  0.00  0.00    +0.000 S 
ATOM     28  C   UNL     1      51.894   5.868  17.954  0.00  0.00    +0.000 A 
ATOM     29  C   UNL     1      50.820   5.158  17.428  0.00  0.00    +0.000 A 
ATOM     30  C   UNL     1      51.099   3.724  17.471  0.00  0.00    +0.000 A 
BRANCH  22  32
ATOM     31  C   UNL     1      48.120   2.611  17.427  0.00  0.00    +0.000 C 
ATOM     32  O   UNL     1      49.183   2.628  16.474  0.00  0.00    +0.000 OA
ENDBRANCH  22  32
ENDBRANCH  18  29
ENDBRANCH   1  20
TORSDOF 8
ENDMDL
MODEL 5
REMARK VINA RESULT:    -7.488      1.811      3.131
REMARK INTER + INTRA:         -12.073
REMARK INTER:                 -10.914
REMARK INTRA:                  -1.160
REMARK UNBOUND:                -1.083
REMARK  Name = 
REMARK  9 active torsions:
REMARK  status: ('A' for Active; 'I' for Inactive)
REMARK    1  A    between atoms: C_1  and  O_2
REMARK    2  A    between atoms: O_2  and  C_3
REMARK    3  A    between atoms: C_10  and  C_11
REMARK    4  A    between atoms: N_13  and  C_14
REMARK    5  A    between atoms: C_14  and  C_15
REMARK    6  A    between atoms: C_18  and  C_19
REMARK    7  A    between atoms: C_19  and  C_20
REMARK    8  A    between atoms: C_20  and  N_21
REMARK    9  A    between atoms: N_21  and  C_22
REMARK                            x       y       z     vdW  Elec       q    Type
REMARK                         _______ _______ _______ _____ _____    ______ ____
ROOT
ATOM      1  C   UNL     1      47.522   3.857  15.396  0.00  0.00    +0.000 C 
ENDROOT
BRANCH   1   2
ATOM      2  C   UNL     1      46.895   4.308  14.112  0.00  0.00    +0.000 A 
ATOM      3  C   UNL     1      46.960   5.640  13.713  0.00  0.00    +0.000 A 
ATOM      4  C   UNL     1      46.304   6.050  12.555  0.00  0.00    +0.000 A 
ATOM      5  C   UNL     1      45.574   5.124  11.809  0.00  0.00    +0.000 A 
ATOM      6  N   UNL     1      45.507   3.822  12.181  0.00  0.00    +0.000 NA
ATOM      7  C   UNL     1      46.165   3.444  13.306  0.00  0.00    +0.000 A 
BRANCH   5   8
ATOM      8  C   UNL     1      44.796   5.496  10.558  0.00  0.00    +0.000 C 
BRANCH   8   9
ATOM      9  C   UNL     1      44.099   4.315   9.876  0.00  0.00    +0.000 C 
BRANCH   9  10
ATOM     10  N   UNL     1      44.332   4.262   8.429  0.00  0.00    +0.000 N 
ATOM     11  H   UNL     1      44.560   5.173   8.035  0.00  0.00    +0.000 HD
BRANCH  10  12
ATOM     12  C   UNL     1      45.248   3.279   7.996  0.00  0.00    +0.000 A 
ATOM     13  C   UNL     1      46.194   3.498   6.989  0.00  0.00    +0.000 A 
ATOM     14  C   UNL     1      47.111   2.507   6.638  0.00  0.00    +0.000 A 
ATOM     15  C   UNL     1      47.083   1.313   7.331  0.00  0.00    +0.000 A 
ATOM     16  N   UNL     1      46.227   1.061   8.343  0.00  0.00    +0.000 NA
ATOM     17  C   UNL     1      45.355   2.051   8.659  0.00  0.00    +0.000 A 
ENDBRANCH  10  12
ENDBRANCH   9  10
ENDBRANCH   8   9
ENDBRANCH   5   8
ENDBRANCH   1   2
BRANCH   1  20
ATOM     18  C   UNL     1      48.523   5.420  17.003  0.00  0.00    +0.000 C 
ATOM     19  O   UNL     1      49.651   5.046  16.686  0.00  0.00    +0.000 OA
ATOM     20  N   UNL     1      47.414   4.878  16.412  0.00  0.00    +0.000 N 
ATOM     21  H   UNL     1      46.492   5.210  16.664  0.00  0.00    +0.000 HD
BRANCH  18  29
ATOM     22  C   UNL     1      48.311   8.865  16.893  0.00  0.00    +0.000 A 
ATOM     23  N   UNL     1      48.230  10.187  17.144  0.00  0.00    +0.000 NA
ATOM     24  C   UNL     1      48.059  10.578  18.410  0.00  0.00    +0.000 A 
ATOM     25  N   UNL     1      47.957   9.795  19.480  0.00  0.00    +0.000 NA
ATOM     26  C   UNL     1      48.058   8.488  19.189  0.00  0.00    +0.000 A 
ATOM     27  S   UNL     1      47.944   7.344  20.436  0.00  0.00    +0.000 S 
ATOM     28  C   UNL     1      48.159   6.061  19.345  0.00  0.00    +0.000 A 
ATOM     29  C   UNL     1      48.322   6.463  18.023  0.00  0.00    +0.000 A 
ATOM     30  C   UNL     1      48.249   7.919  17.931  0.00  0.00    +0.000 A 
BRANCH  22  32
ATOM     31  C   UNL     1      49.857   8.447  15.195  0.00  0.00    +0.000 C 
ATOM     32  O   UNL     1      48.483   8.465  15.583  0.00  0.00    +0.000 OA
ENDBRANCH  22  32
ENDBRANCH  18  29
ENDBRANCH   1  20
TORSDOF 8
ENDMDL
MODEL 6
REMARK VINA RESULT:    -7.293      1.716      2.092
REMARK INTER + INTRA:         -11.787
REMARK INTER:                 -10.131
REMARK INTRA:                  -1.656
REMARK UNBOUND:                -1.083
REMARK  Name = 
REMARK  9 active torsions:
REMARK  status: ('A' for Active; 'I' for Inactive)
REMARK    1  A    between atoms: C_1  and  O_2
REMARK    2  A    between atoms: O_2  and  C_3
REMARK    3  A    between atoms: C_10  and  C_11
REMARK    4  A    between atoms: N_13  and  C_14
REMARK    5  A    between atoms: C_14  and  C_15
REMARK    6  A    between atoms: C_18  and  C_19
REMARK    7  A    between atoms: C_19  and  C_20
REMARK    8  A    between atoms: C_20  and  N_21
REMARK    9  A    between atoms: N_21  and  C_22
REMARK                            x       y       z     vdW  Elec       q    Type
REMARK                         _______ _______ _______ _____ _____    ______ ____
ROOT
ATOM      1  C   UNL     1      48.456   7.265  13.018  0.00  0.00    +0.000 C 
ENDROOT
BRANCH   1   2
ATOM      2  C   UNL     1      47.155   6.521  13.038  0.00  0.00    +0.000 A 
ATOM      3  C   UNL     1      47.117   5.152  13.287  0.00  0.00    +0.000 A 
ATOM      4  C   UNL     1      45.905   4.469  13.224  0.00  0.00    +0.000 A 
ATOM      5  C   UNL     1      44.738   5.160  12.897  0.00  0.00    +0.000 A 
ATOM      6  N   UNL     1      44.758   6.495  12.658  0.00  0.00    +0.000 NA
ATOM      7  C   UNL     1      45.949   7.141  12.738  0.00  0.00    +0.000 A 
BRANCH   5   8
ATOM      8  C   UNL     1      43.384   4.484  12.767  0.00  0.00    +0.000 C 
BRANCH   8   9
ATOM      9  C   UNL     1      43.035   4.046  11.341  0.00  0.00    +0.000 C 
BRANCH   9  10
ATOM     10  N   UNL     1      43.784   4.772  10.311  0.00  0.00    +0.000 N 
ATOM     11  H   UNL     1      44.278   5.582  10.683  0.00  0.00    +0.000 HD
BRANCH  10  12
ATOM     12  C   UNL     1      44.637   3.984   9.510  0.00  0.00    +0.000 A 
ATOM     13  C   UNL     1      44.693   2.587   9.585  0.00  0.00    +0.000 A 
ATOM     14  C   UNL     1      45.517   1.855   8.732  0.00  0.00    +0.000 A 
ATOM     15  C   UNL     1      46.255   2.539   7.785  0.00  0.00    +0.000 A 
ATOM     16  N   UNL     1      46.206   3.878   7.632  0.00  0.00    +0.000 NA
ATOM     17  C   UNL     1      45.389   4.555   8.477  0.00  0.00    +0.000 A 
ENDBRANCH  10  12
ENDBRANCH   9  10
ENDBRANCH   8   9
ENDBRANCH   5   8
ENDBRANCH   1   2
BRANCH   1  20
ATOM     18  C   UNL     1      48.916   7.940  15.333  0.00  0.00    +0.000 C 
ATOM     19  O   UNL     1      48.090   8.847  15.248  0.00  0.00    +0.000 OA
ATOM     20  N   UNL     1      49.159   7.113  14.271  0.00  0.00    +0.000 N 
ATOM     21  H   UNL     1      49.824   6.355  14.360  0.00  0.00    +0.000 HD
BRANCH  18  29
ATOM     22  C   UNL     1      49.417   5.181  17.347  0.00  0.00    +0.000 A 
ATOM     23  N   UNL     1      49.742   4.298  18.313  0.00  0.00    +0.000 NA
ATOM     24  C   UNL     1      50.514   4.720  19.317  0.00  0.00    +0.000 A 
ATOM     25  N   UNL     1      51.013   5.942  19.482  0.00  0.00    +0.000 NA
ATOM     26  C   UNL     1      50.652   6.794  18.508  0.00  0.00    +0.000 A 
ATOM     27  S   UNL     1      51.204   8.397  18.556  0.00  0.00    +0.000 S 
ATOM     28  C   UNL     1      50.378   8.775  17.121  0.00  0.00    +0.000 A 
ATOM     29  C   UNL     1      49.672   7.708  16.576  0.00  0.00    +0.000 A 
ATOM     30  C   UNL     1      49.847   6.517  17.404  0.00  0.00    +0.000 A 
BRANCH  22  32
ATOM     31  C   UNL     1      47.399   4.161  16.765  0.00  0.00    +0.000 C 
ATOM     32  O   UNL     1      48.622   4.739  16.308  0.00  0.00    +0.000 OA
ENDBRANCH  22  32
ENDBRANCH  18  29
ENDBRANCH   1  20
TORSDOF 8
ENDMDL
MODEL 7
REMARK VINA RESULT:    -6.970      2.240      2.871
REMARK INTER + INTRA:         -11.312
REMARK INTER:                 -10.417
REMARK INTRA:                  -0.895
REMARK UNBOUND:                -1.083
REMARK  Name = 
REMARK  9 active torsions:
REMARK  status: ('A' for Active; 'I' for Inactive)
REMARK    1  A    between atoms: C_1  and  O_2
REMARK    2  A    between atoms: O_2  and  C_3
REMARK    3  A    between atoms: C_10  and  C_11
REMARK    4  A    between atoms: N_13  and  C_14
REMARK    5  A    between atoms: C_14  and  C_15
REMARK    6  A    between atoms: C_18  and  C_19
REMARK    7  A    between atoms: C_19  and  C_20
REMARK    8  A    between atoms: C_20  and  N_21
REMARK    9  A    between atoms: N_21  and  C_22
REMARK                            x       y       z     vdW  Elec       q    Type
REMARK                         _______ _______ _______ _____ _____    ______ ____
ROOT
ATOM      1  C   UNL     1      47.784   7.270  13.707  0.00  0.00    +0.000 C 
ENDROOT
BRANCH   1   2
ATOM      2  C   UNL     1      46.649   6.615  12.979  0.00  0.00    +0.000 A 
ATOM      3  C   UNL     1      46.154   5.380  13.388  0.00  0.00    +0.000 A 
ATOM      4  C   UNL     1      45.151   4.755  12.651  0.00  0.00    +0.000 A 
ATOM      5  C   UNL     1      44.657   5.367  11.498  0.00  0.00    +0.000 A 
ATOM      6  N   UNL     1      45.125   6.573  11.091  0.00  0.00    +0.000 NA
ATOM      7  C   UNL     1      46.093   7.167  11.833  0.00  0.00    +0.000 A 
BRANCH   5   8
ATOM      8  C   UNL     1      43.595   4.735  10.615  0.00  0.00    +0.000 C 
BRANCH   8   9
ATOM      9  C   UNL     1      44.073   3.506   9.837  0.00  0.00    +0.000 C 
BRANCH   9  10
ATOM     10  N   UNL     1      44.466   3.809   8.457  0.00  0.00    +0.000 N 
ATOM     11  H   UNL     1      44.703   4.791   8.324  0.00  0.00    +0.000 HD
BRANCH  10  12
ATOM     12  C   UNL     1      45.459   2.970   7.909  0.00  0.00    +0.000 A 
ATOM     13  C   UNL     1      46.322   3.365   6.882  0.00  0.00    +0.000 A 
ATOM     14  C   UNL     1      47.321   2.512   6.414  0.00  0.00    +0.000 A 
ATOM     15  C   UNL     1      47.460   1.276   7.013  0.00  0.00    +0.000 A 
ATOM     16  N   UNL     1      46.692   0.857   8.039  0.00  0.00    +0.000 NA
ATOM     17  C   UNL     1      45.734   1.717   8.470  0.00  0.00    +0.000 A 
ENDBRANCH  10  12
ENDBRANCH   9  10
ENDBRANCH   8   9
ENDBRANCH   5   8
ENDBRANCH   1   2
BRANCH   1  20
ATOM     18  C   UNL     1      48.998   6.850  15.799  0.00  0.00    +0.000 C 
ATOM     19  O   UNL     1      49.114   8.059  15.991  0.00  0.00    +0.000 OA
ATOM     20  N   UNL     1      48.355   6.376  14.687  0.00  0.00    +0.000 N 
ATOM     21  H   UNL     1      48.245   5.380  14.552  0.00  0.00    +0.000 HD
BRANCH  18  29
ATOM     22  C   UNL     1      52.196   5.972  16.760  0.00  0.00    +0.000 A 
ATOM     23  N   UNL     1      53.307   5.412  17.281  0.00  0.00    +0.000 NA
ATOM     24  C   UNL     1      53.157   4.433  18.177  0.00  0.00    +0.000 A 
ATOM     25  N   UNL     1      52.011   3.931  18.628  0.00  0.00    +0.000 NA
ATOM     26  C   UNL     1      50.931   4.504  18.072  0.00  0.00    +0.000 A 
ATOM     27  S   UNL     1      49.382   3.989  18.536  0.00  0.00    +0.000 S 
ATOM     28  C   UNL     1      48.645   5.091  17.476  0.00  0.00    +0.000 A 
ATOM     29  C   UNL     1      49.543   5.868  16.752  0.00  0.00    +0.000 A 
ATOM     30  C   UNL     1      50.914   5.522  17.120  0.00  0.00    +0.000 A 
BRANCH  22  32
ATOM     31  C   UNL     1      52.754   8.216  16.442  0.00  0.00    +0.000 C 
ATOM     32  O   UNL     1      52.355   6.986  15.837  0.00  0.00    +0.000 OA
ENDBRANCH  22  32
ENDBRANCH  18  29
ENDBRANCH   1  20
TORSDOF 8
ENDMDL
MODEL 8
REMARK VINA RESULT:    -6.935      3.133      4.636
REMARK INTER + INTRA:         -11.261
REMARK INTER:                 -10.014
REMARK INTRA:                  -1.247
REMARK UNBOUND:                -1.083
REMARK  Name = 
REMARK  9 active torsions:
REMARK  status: ('A' for Active; 'I' for Inactive)
REMARK    1  A    between atoms: C_1  and  O_2
REMARK    2  A    between atoms: O_2  and  C_3
REMARK    3  A    between atoms: C_10  and  C_11
REMARK    4  A    between atoms: N_13  and  C_14
REMARK    5  A    between atoms: C_14  and  C_15
REMARK    6  A    between atoms: C_18  and  C_19
REMARK    7  A    between atoms: C_19  and  C_20
REMARK    8  A    between atoms: C_20  and  N_21
REMARK    9  A    between atoms: N_21  and  C_22
REMARK                            x       y       z     vdW  Elec       q    Type
REMARK                         _______ _______ _______ _____ _____    ______ ____
ROOT
ATOM      1  C   UNL     1      47.674   3.715  17.160  0.00  0.00    +0.000 C 
ENDROOT
BRANCH   1   2
ATOM      2  C   UNL     1      47.557   4.390  15.827  0.00  0.00    +0.000 A 
ATOM      3  C   UNL     1      48.137   5.635  15.601  0.00  0.00    +0.000 A 
ATOM      4  C   UNL     1      47.950   6.277  14.380  0.00  0.00    +0.000 A 
ATOM      5  C   UNL     1      47.168   5.673  13.394  0.00  0.00    +0.000 A 
ATOM      6  N   UNL     1      46.602   4.458  13.597  0.00  0.00    +0.000 NA
ATOM      7  C   UNL     1      46.810   3.846  14.790  0.00  0.00    +0.000 A 
BRANCH   5   8
ATOM      8  C   UNL     1      46.880   6.323  12.052  0.00  0.00    +0.000 C 
BRANCH   8   9
ATOM      9  C   UNL     1      45.402   6.309  11.651  0.00  0.00    +0.000 C 
BRANCH   9  10
ATOM     10  N   UNL     1      45.193   6.147  10.209  0.00  0.00    +0.000 N 
ATOM     11  H   UNL     1      45.897   6.632   9.654  0.00  0.00    +0.000 HD
BRANCH  10  12
ATOM     12  C   UNL     1      45.026   4.818   9.764  0.00  0.00    +0.000 A 
ATOM     13  C   UNL     1      45.602   4.320   8.590  0.00  0.00    +0.000 A 
ATOM     14  C   UNL     1      45.447   2.983   8.226  0.00  0.00    +0.000 A 
ATOM     15  C   UNL     1      44.737   2.152   9.070  0.00  0.00    +0.000 A 
ATOM     16  N   UNL     1      44.201   2.562  10.237  0.00  0.00    +0.000 NA
ATOM     17  C   UNL     1      44.377   3.867  10.560  0.00  0.00    +0.000 A 
ENDBRANCH  10  12
ENDBRANCH   9  10
ENDBRANCH   8   9
ENDBRANCH   5   8
ENDBRANCH   1   2
BRANCH   1  20
ATOM     18  C   UNL     1      49.808   2.515  16.976  0.00  0.00    +0.000 C 
ATOM     19  O   UNL     1      49.317   1.739  16.159  0.00  0.00    +0.000 OA
ATOM     20  N   UNL     1      49.059   3.522  17.522  0.00  0.00    +0.000 N 
ATOM     21  H   UNL     1      49.480   4.170  18.176  0.00  0.00    +0.000 HD
BRANCH  18  29
ATOM     22  C   UNL     1      52.287   4.804  17.710  0.00  0.00    +0.000 A 
ATOM     23  N   UNL     1      53.427   5.459  18.008  0.00  0.00    +0.000 NA
ATOM     24  C   UNL     1      54.508   4.735  18.312  0.00  0.00    +0.000 A 
ATOM     25  N   UNL     1      54.594   3.409  18.355  0.00  0.00    +0.000 NA
ATOM     26  C   UNL     1      53.442   2.795  18.036  0.00  0.00    +0.000 A 
ATOM     27  S   UNL     1      53.369   1.100  18.046  0.00  0.00    +0.000 S 
ATOM     28  C   UNL     1      51.739   1.120  17.571  0.00  0.00    +0.000 A 
ATOM     29  C   UNL     1      51.215   2.396  17.395  0.00  0.00    +0.000 A 
ATOM     30  C   UNL     1      52.236   3.400  17.687  0.00  0.00    +0.000 A 
BRANCH  22  32
ATOM     31  C   UNL     1      50.874   6.528  18.404  0.00  0.00    +0.000 C 
ATOM     32  O   UNL     1      51.171   5.556  17.401  0.00  0.00    +0.000 OA
ENDBRANCH  22  32
ENDBRANCH  18  29
ENDBRANCH   1  20
TORSDOF 8
ENDMDL
MODEL 9
REMARK VINA RESULT:    -6.802      1.716      2.454
REMARK INTER + INTRA:         -11.066
REMARK INTER:                 -10.279
REMARK INTRA:                  -0.786
REMARK UNBOUND:                -1.083
REMARK  Name = 
REMARK  9 active torsions:
REMARK  status: ('A' for Active; 'I' for Inactive)
REMARK    1  A    between atoms: C_1  and  O_2
REMARK    2  A    between atoms: O_2  and  C_3
REMARK    3  A    between atoms: C_10  and  C_11
REMARK    4  A    between atoms: N_13  and  C_14
REMARK    5  A    between atoms: C_14  and  C_15
REMARK    6  A    between atoms: C_18  and  C_19
REMARK    7  A    between atoms: C_19  and  C_20
REMARK    8  A    between atoms: C_20  and  N_21
REMARK    9  A    between atoms: N_21  and  C_22
REMARK                            x       y       z     vdW  Elec       q    Type
REMARK                         _______ _______ _______ _____ _____    ______ ____
ROOT
ATOM      1  C   UNL     1      47.346   4.241  15.445  0.00  0.00    +0.000 C 
ENDROOT
BRANCH   1   2
ATOM      2  C   UNL     1      46.801   4.372  14.055  0.00  0.00    +0.000 A 
ATOM      3  C   UNL     1      46.770   5.606  13.411  0.00  0.00    +0.000 A 
ATOM      4  C   UNL     1      46.189   5.716  12.151  0.00  0.00    +0.000 A 
ATOM      5  C   UNL     1      45.628   4.591  11.546  0.00  0.00    +0.000 A 
ATOM      6  N   UNL     1      45.657   3.381  12.158  0.00  0.00    +0.000 NA
ATOM      7  C   UNL     1      46.240   3.295  13.380  0.00  0.00    +0.000 A 
BRANCH   5   8
ATOM      8  C   UNL     1      44.939   4.633  10.194  0.00  0.00    +0.000 C 
BRANCH   8   9
ATOM      9  C   UNL     1      44.191   3.347   9.828  0.00  0.00    +0.000 C 
BRANCH   9  10
ATOM     10  N   UNL     1      45.082   2.207   9.586  0.00  0.00    +0.000 N 
ATOM     11  H   UNL     1      44.620   1.311   9.734  0.00  0.00    +0.000 HD
BRANCH  10  12
ATOM     12  C   UNL     1      45.771   2.224   8.354  0.00  0.00    +0.000 A 
ATOM     13  C   UNL     1      45.805   3.336   7.505  0.00  0.00    +0.000 A 
ATOM     14  C   UNL     1      46.546   3.315   6.324  0.00  0.00    +0.000 A 
ATOM     15  C   UNL     1      47.273   2.180   6.027  0.00  0.00    +0.000 A 
ATOM     16  N   UNL     1      47.319   1.096   6.829  0.00  0.00    +0.000 NA
ATOM     17  C   UNL     1      46.590   1.156   7.971  0.00  0.00    +0.000 A 
ENDBRANCH  10  12
ENDBRANCH   9  10
ENDBRANCH   8   9
ENDBRANCH   5   8
ENDBRANCH   1   2
BRANCH   1  20
ATOM     18  C   UNL     1      48.815   5.870  16.547  0.00  0.00    +0.000 C 
ATOM     19  O   UNL     1      49.744   5.064  16.533  0.00  0.00    +0.000 OA
ATOM     20  N   UNL     1      47.593   5.539  16.029  0.00  0.00    +0.000 N 
ATOM     21  H   UNL     1      46.843   6.219  16.024  0.00  0.00    +0.000 HD
BRANCH  18  29
ATOM     22  C   UNL     1      49.694   7.058  19.667  0.00  0.00    +0.000 A 
ATOM     23  N   UNL     1      49.966   7.784  20.771  0.00  0.00    +0.000 NA
ATOM     24  C   UNL     1      49.927   9.115  20.674  0.00  0.00    +0.000 A 
ATOM     25  N   UNL     1      49.642   9.828  19.588  0.00  0.00    +0.000 NA
ATOM     26  C   UNL     1      49.362   9.068  18.517  0.00  0.00    +0.000 A 
ATOM     27  S   UNL     1      48.981   9.814  17.041  0.00  0.00    +0.000 S 
ATOM     28  C   UNL     1      48.772   8.311  16.280  0.00  0.00    +0.000 A 
ATOM     29  C   UNL     1      48.982   7.219  17.115  0.00  0.00    +0.000 A 
ATOM     30  C   UNL     1      49.348   7.676  18.454  0.00  0.00    +0.000 A 
BRANCH  22  32
ATOM     31  C   UNL     1      48.491   5.124  20.177  0.00  0.00    +0.000 C 
ATOM     32  O   UNL     1      49.741   5.682  19.771  0.00  0.00    +0.000 OA
ENDBRANCH  22  32
ENDBRANCH  18  29
ENDBRANCH   1  20
TORSDOF 8
ENDMDL
