MODEL 1
REMARK VINA RESULT:    -7.632      0.000      0.000
REMARK INTER + INTRA:         -11.284
REMARK INTER:                 -10.533
REMARK INTRA:                  -0.751
REMARK UNBOUND:                -0.751
REMARK  Name = 
REMARK  8 active torsions:
REMARK  status: ('A' for Active; 'I' for Inactive)
REMARK    1  A    between atoms: C_1  and  C_2
REMARK    2  A    between atoms: C_2  and  C_3
REMARK    3  A    between atoms: C_2  and  C_16
REMARK    4  A    between atoms: C_3  and  N_4
REMARK    5  A    between atoms: N_4  and  C_5
REMARK    6  A    between atoms: C_8  and  C_9
REMARK    7  A    between atoms: C_13  and  C_14
REMARK    8  A    between atoms: C_14  and  N_15
REMARK                            x       y       z     vdW  Elec       q    Type
REMARK                         _______ _______ _______ _____ _____    ______ ____
ROOT
ATOM      1  C   UNL     1      45.572   5.778  11.559  0.00  0.00    +0.000 A 
ATOM      2  N   UNL     1      46.719   6.461  11.325  0.00  0.00    +0.000 NA
ATOM      3  C   UNL     1      47.611   6.631  12.330  0.00  0.00    +0.000 A 
ATOM      4  C   UNL     1      47.409   6.171  13.618  0.00  0.00    +0.000 A 
ATOM      5  C   UNL     1      46.229   5.482  13.866  0.00  0.00    +0.000 A 
ATOM      6  C   UNL     1      45.295   5.246  12.834  0.00  0.00    +0.000 A 
ENDROOT
BRANCH   4   7
ATOM      7  C   UNL     1      48.453   6.391  14.636  0.00  0.00    +0.000 C 
ATOM      8  N   UNL     1      48.118   6.166  15.944  0.00  0.00    +0.000 N 
ATOM      9  O   UNL     1      49.569   6.785  14.328  0.00  0.00    +0.000 OA
ATOM     10  H   UNL     1      47.170   5.996  16.256  0.00  0.00    +0.000 HD
ATOM     11  H   UNL     1      48.823   6.367  16.636  0.00  0.00    +0.000 HD
ENDBRANCH   4   7
BRANCH   1  12
ATOM     12  N   UNL     1      44.668   5.608  10.480  0.00  0.00    +0.000 N 
ATOM     13  H   UNL     1      43.900   5.037  10.814  0.00  0.00    +0.000 HD
BRANCH  12  14
ATOM     14  C   UNL     1      45.309   4.999   9.315  0.00  0.00    +0.000 C 
BRANCH  14  16
ATOM     15  C   UNL     1      44.203   2.800  10.133  0.00  0.00    +0.000 C 
ATOM     16  C   UNL     1      44.760   3.620   9.005  0.00  0.00    +0.000 C 
BRANCH  16  17
ATOM     17  C   UNL     1      45.471   2.884   7.864  0.00  0.00    +0.000 C 
ATOM     18  C   UNL     1      46.310   1.668   8.304  0.00  0.00    +0.000 C 
ATOM     19  C   UNL     1      46.959   0.966   7.104  0.00  0.00    +0.000 C 
ATOM     20  C   UNL     1      47.796   1.927   6.264  0.00  0.00    +0.000 C 
ATOM     21  C   UNL     1      46.985   3.144   5.834  0.00  0.00    +0.000 C 
ATOM     22  C   UNL     1      46.343   3.845   7.030  0.00  0.00    +0.000 C 
ENDBRANCH  16  17
ENDBRANCH  14  16
ENDBRANCH  12  14
ENDBRANCH   1  12
BRANCH   6  23
ATOM     23  C   UNL     1      44.004   4.529  13.158  0.00  0.00    +0.000 C 
BRANCH  23  24
ATOM     24  N   UNL     1      42.853   5.434  13.250  0.00  0.00    +0.000 NA
ATOM     25  H   UNL     1      42.433   5.534  12.326  0.00  0.00    +0.000 HD
ATOM     26  H   UNL     1      43.181   6.364  13.512  0.00  0.00    +0.000 HD
ENDBRANCH  23  24
ENDBRANCH   6  23
TORSDOF 7
ENDMDL
MODEL 2
REMARK VINA RESULT:    -7.397      2.972      6.567
REMARK INTER + INTRA:         -10.959
REMARK INTER:                 -10.084
REMARK INTRA:                  -0.875
REMARK UNBOUND:                -0.751
REMARK  Name = 
REMARK  8 active torsions:
REMARK  status: ('A' for Active; 'I' for Inactive)
REMARK    1  A    between atoms: C_1  and  C_2
REMARK    2  A    between atoms: C_2  and  C_3
REMARK    3  A    between atoms: C_2  and  C_16
REMARK    4  A    between atoms: C_3  and  N_4
REMARK    5  A    between atoms: N_4  and  C_5
REMARK    6  A    between atoms: C_8  and  C_9
REMARK    7  A    between atoms: C_13  and  C_14
REMARK    8  A    between atoms: C_14  and  N_15
REMARK                            x       y       z     vdW  Elec       q    Type
REMARK                         _______ _______ _______ _____ _____    ______ ____
ROOT
ATOM      1  C   UNL     1      44.936   4.247   9.202  0.00  0.00    +0.000 A 
ATOM      2  N   UNL     1      45.788   4.696   8.248  0.00  0.00    +0.000 NA
ATOM      3  C   UNL     1      46.509   3.805   7.526  0.00  0.00    +0.000 A 
ATOM      4  C   UNL     1      46.458   2.438   7.725  0.00  0.00    +0.000 A 
ATOM      5  C   UNL     1      45.595   1.974   8.710  0.00  0.00    +0.000 A 
ATOM      6  C   UNL     1      44.794   2.868   9.454  0.00  0.00    +0.000 A 
ENDROOT
BRANCH   4   7
ATOM      7  C   UNL     1      47.270   1.552   6.870  0.00  0.00    +0.000 C 
ATOM      8  N   UNL     1      48.300   2.120   6.170  0.00  0.00    +0.000 N 
ATOM      9  O   UNL     1      47.019   0.359   6.770  0.00  0.00    +0.000 OA
ATOM     10  H   UNL     1      48.442   3.120   6.099  0.00  0.00    +0.000 HD
ATOM     11  H   UNL     1      48.817   1.516   5.550  0.00  0.00    +0.000 HD
ENDBRANCH   4   7
BRANCH   1  12
ATOM     12  N   UNL     1      44.187   5.207   9.929  0.00  0.00    +0.000 N 
ATOM     13  H   UNL     1      43.558   5.659   9.275  0.00  0.00    +0.000 HD
BRANCH  12  14
ATOM     14  C   UNL     1      45.046   6.186  10.595  0.00  0.00    +0.000 C 
BRANCH  14  16
ATOM     15  C   UNL     1      43.832   5.841  12.860  0.00  0.00    +0.000 C 
ATOM     16  C   UNL     1      45.116   5.972  12.094  0.00  0.00    +0.000 C 
BRANCH  16  17
ATOM     17  C   UNL     1      46.302   6.654  12.787  0.00  0.00    +0.000 C 
ATOM     18  C   UNL     1      47.300   7.340  11.832  0.00  0.00    +0.000 C 
ATOM     19  C   UNL     1      48.434   8.028  12.602  0.00  0.00    +0.000 C 
ATOM     20  C   UNL     1      49.156   7.065  13.540  0.00  0.00    +0.000 C 
ATOM     21  C   UNL     1      48.180   6.366  14.480  0.00  0.00    +0.000 C 
ATOM     22  C   UNL     1      47.053   5.676  13.713  0.00  0.00    +0.000 C 
ENDBRANCH  16  17
ENDBRANCH  14  16
ENDBRANCH  12  14
ENDBRANCH   1  12
BRANCH   6  23
ATOM     23  C   UNL     1      43.902   2.324  10.546  0.00  0.00    +0.000 C 
BRANCH  23  24
ATOM     24  N   UNL     1      44.438   2.554  11.892  0.00  0.00    +0.000 NA
ATOM     25  H   UNL     1      43.662   2.650  12.547  0.00  0.00    +0.000 HD
ATOM     26  H   UNL     1      44.929   3.447  11.906  0.00  0.00    +0.000 HD
ENDBRANCH  23  24
ENDBRANCH   6  23
TORSDOF 7
ENDMDL
MODEL 3
REMARK VINA RESULT:    -7.225      1.438      2.096
REMARK INTER + INTRA:         -10.722
REMARK INTER:                  -9.811
REMARK INTRA:                  -0.911
REMARK UNBOUND:                -0.751
REMARK  Name = 
REMARK  8 active torsions:
REMARK  status: ('A' for Active; 'I' for Inactive)
REMARK    1  A    between atoms: C_1  and  C_2
REMARK    2  A    between atoms: C_2  and  C_3
REMARK    3  A    between atoms: C_2  and  C_16
REMARK    4  A    between atoms: C_3  and  N_4
REMARK    5  A    between atoms: N_4  and  C_5
REMARK    6  A    between atoms: C_8  and  C_9
REMARK    7  A    between atoms: C_13  and  C_14
REMARK    8  A    between atoms: C_14  and  N_15
REMARK                            x       y       z     vdW  Elec       q    Type
REMARK                         _______ _______ _______ _____ _____    ______ ____
ROOT
ATOM      1  C   UNL     1      44.695   3.882  12.296  0.00  0.00    +0.000 A 
ATOM      2  N   UNL     1      45.671   3.137  12.871  0.00  0.00    +0.000 NA
ATOM      3  C   UNL     1      46.654   3.752  13.572  0.00  0.00    +0.000 A 
ATOM      4  C   UNL     1      46.748   5.124  13.715  0.00  0.00    +0.000 A 
ATOM      5  C   UNL     1      45.757   5.892  13.116  0.00  0.00    +0.000 A 
ATOM      6  C   UNL     1      44.693   5.285  12.415  0.00  0.00    +0.000 A 
ENDROOT
BRANCH   4   7
ATOM      7  C   UNL     1      47.848   5.693  14.516  0.00  0.00    +0.000 C 
ATOM      8  N   UNL     1      47.787   5.535  15.874  0.00  0.00    +0.000 N 
ATOM      9  O   UNL     1      48.766   6.306  13.991  0.00  0.00    +0.000 OA
ATOM     10  H   UNL     1      46.973   5.179  16.359  0.00  0.00    +0.000 HD
ATOM     11  H   UNL     1      48.517   5.970  16.417  0.00  0.00    +0.000 HD
ENDBRANCH   4   7
BRANCH   1  12
ATOM     12  N   UNL     1      43.676   3.203  11.581  0.00  0.00    +0.000 N 
ATOM     13  H   UNL     1      43.220   2.571  12.230  0.00  0.00    +0.000 HD
BRANCH  12  14
ATOM     14  C   UNL     1      44.203   2.480  10.424  0.00  0.00    +0.000 C 
BRANCH  14  16
ATOM     15  C   UNL     1      44.094   4.461   8.754  0.00  0.00    +0.000 C 
ATOM     16  C   UNL     1      44.900   3.395   9.437  0.00  0.00    +0.000 C 
BRANCH  16  17
ATOM     17  C   UNL     1      46.043   2.741   8.650  0.00  0.00    +0.000 C 
ATOM     18  C   UNL     1      46.443   3.483   7.359  0.00  0.00    +0.000 C 
ATOM     19  C   UNL     1      47.614   2.789   6.650  0.00  0.00    +0.000 C 
ATOM     20  C   UNL     1      47.318   1.320   6.362  0.00  0.00    +0.000 C 
ATOM     21  C   UNL     1      46.905   0.576   7.627  0.00  0.00    +0.000 C 
ATOM     22  C   UNL     1      45.735   1.265   8.330  0.00  0.00    +0.000 C 
ENDBRANCH  16  17
ENDBRANCH  14  16
ENDBRANCH  12  14
ENDBRANCH   1  12
BRANCH   6  23
ATOM     23  C   UNL     1      43.660   6.161  11.743  0.00  0.00    +0.000 C 
BRANCH  23  24
ATOM     24  N   UNL     1      42.282   5.739  12.020  0.00  0.00    +0.000 NA
ATOM     25  H   UNL     1      42.242   5.331  12.954  0.00  0.00    +0.000 HD
ATOM     26  H   UNL     1      42.027   4.991  11.375  0.00  0.00    +0.000 HD
ENDBRANCH  23  24
ENDBRANCH   6  23
TORSDOF 7
ENDMDL
MODEL 4
REMARK VINA RESULT:    -7.148      3.515      6.997
REMARK INTER + INTRA:         -10.615
REMARK INTER:                  -9.769
REMARK INTRA:                  -0.846
REMARK UNBOUND:                -0.751
REMARK  Name = 
REMARK  8 active torsions:
REMARK  status: ('A' for Active; 'I' for Inactive)
REMARK    1  A    between atoms: C_1  and  C_2
REMARK    2  A    between atoms: C_2  and  C_3
REMARK    3  A    between atoms: C_2  and  C_16
REMARK    4  A    between atoms: C_3  and  N_4
REMARK    5  A    between atoms: N_4  and  C_5
REMARK    6  A    between atoms: C_8  and  C_9
REMARK    7  A    between atoms: C_13  and  C_14
REMARK    8  A    between atoms: C_14  and  N_15
REMARK                            x       y       z     vdW  Elec       q    Type
REMARK                         _______ _______ _______ _____ _____    ______ ____
ROOT
ATOM      1  C   UNL     1      45.405   4.511   9.158  0.00  0.00    +0.000 A 
ATOM      2  N   UNL     1      46.267   4.963   8.214  0.00  0.00    +0.000 NA
ATOM      3  C   UNL     1      46.842   4.082   7.360  0.00  0.00    +0.000 A 
ATOM      4  C   UNL     1      46.629   2.717   7.412  0.00  0.00    +0.000 A 
ATOM      5  C   UNL     1      45.757   2.248   8.386  0.00  0.00    +0.000 A 
ATOM      6  C   UNL     1      45.104   3.139   9.265  0.00  0.00    +0.000 A 
ENDROOT
BRANCH   4   7
ATOM      7  C   UNL     1      47.290   1.845   6.422  0.00  0.00    +0.000 C 
ATOM      8  N   UNL     1      48.039   2.449   5.448  0.00  0.00    +0.000 N 
ATOM      9  O   UNL     1      47.154   0.630   6.453  0.00  0.00    +0.000 OA
ATOM     10  H   UNL     1      48.047   3.449   5.290  0.00  0.00    +0.000 HD
ATOM     11  H   UNL     1      48.445   1.849   4.747  0.00  0.00    +0.000 HD
ENDBRANCH   4   7
BRANCH   1  12
ATOM     12  N   UNL     1      44.812   5.463  10.026  0.00  0.00    +0.000 N 
ATOM     13  H   UNL     1      44.374   6.170   9.446  0.00  0.00    +0.000 HD
BRANCH  12  14
ATOM     14  C   UNL     1      45.787   6.060  10.937  0.00  0.00    +0.000 C 
BRANCH  14  16
ATOM     15  C   UNL     1      43.896   6.011  12.711  0.00  0.00    +0.000 C 
ATOM     16  C   UNL     1      45.139   6.656  12.172  0.00  0.00    +0.000 C 
BRANCH  16  17
ATOM     17  C   UNL     1      45.273   8.178  12.298  0.00  0.00    +0.000 C 
ATOM     18  C   UNL     1      44.383   8.986  11.332  0.00  0.00    +0.000 C 
ATOM     19  C   UNL     1      44.547  10.497  11.545  0.00  0.00    +0.000 C 
ATOM     20  C   UNL     1      46.005  10.935  11.435  0.00  0.00    +0.000 C 
ATOM     21  C   UNL     1      46.900  10.134  12.373  0.00  0.00    +0.000 C 
ATOM     22  C   UNL     1      46.741   8.629  12.157  0.00  0.00    +0.000 C 
ENDBRANCH  16  17
ENDBRANCH  14  16
ENDBRANCH  12  14
ENDBRANCH   1  12
BRANCH   6  23
ATOM     23  C   UNL     1      44.197   2.582  10.338  0.00  0.00    +0.000 C 
BRANCH  23  24
ATOM     24  N   UNL     1      44.765   2.698  11.686  0.00  0.00    +0.000 NA
ATOM     25  H   UNL     1      44.211   2.132  12.330  0.00  0.00    +0.000 HD
ATOM     26  H   UNL     1      44.669   3.662  12.006  0.00  0.00    +0.000 HD
ENDBRANCH  23  24
ENDBRANCH   6  23
TORSDOF 7
ENDMDL
MODEL 5
REMARK VINA RESULT:    -6.982      3.132      6.626
REMARK INTER + INTRA:         -10.386
REMARK INTER:                  -9.627
REMARK INTRA:                  -0.759
REMARK UNBOUND:                -0.751
REMARK  Name = 
REMARK  8 active torsions:
REMARK  status: ('A' for Active; 'I' for Inactive)
REMARK    1  A    between atoms: C_1  and  C_2
REMARK    2  A    between atoms: C_2  and  C_3
REMARK    3  A    between atoms: C_2  and  C_16
REMARK    4  A    between atoms: C_3  and  N_4
REMARK    5  A    between atoms: N_4  and  C_5
REMARK    6  A    between atoms: C_8  and  C_9
REMARK    7  A    between atoms: C_13  and  C_14
REMARK    8  A    between atoms: C_14  and  N_15
REMARK                            x       y       z     vdW  Elec       q    Type
REMARK                         _______ _______ _______ _____ _____    ______ ____
ROOT
ATOM      1  C   UNL     1      45.106   2.759   9.680  0.00  0.00    +0.000 A 
ATOM      2  N   UNL     1      45.560   1.593   9.157  0.00  0.00    +0.000 NA
ATOM      3  C   UNL     1      46.267   1.611   8.002  0.00  0.00    +0.000 A 
ATOM      4  C   UNL     1      46.532   2.764   7.286  0.00  0.00    +0.000 A 
ATOM      5  C   UNL     1      46.057   3.959   7.811  0.00  0.00    +0.000 A 
ATOM      6  C   UNL     1      45.355   3.986   9.035  0.00  0.00    +0.000 A 
ENDROOT
BRANCH   4   7
ATOM      7  C   UNL     1      47.329   2.678   6.047  0.00  0.00    +0.000 C 
ATOM      8  N   UNL     1      48.663   2.398   6.172  0.00  0.00    +0.000 N 
ATOM      9  O   UNL     1      46.823   2.873   4.951  0.00  0.00    +0.000 OA
ATOM     10  H   UNL     1      49.150   2.388   7.060  0.00  0.00    +0.000 HD
ATOM     11  H   UNL     1      49.208   2.391   5.325  0.00  0.00    +0.000 HD
ENDBRANCH   4   7
BRANCH   1  12
ATOM     12  N   UNL     1      44.381   2.703  10.898  0.00  0.00    +0.000 N 
ATOM     13  H   UNL     1      43.681   3.435  10.868  0.00  0.00    +0.000 HD
BRANCH  12  14
ATOM     14  C   UNL     1      45.252   2.853  12.064  0.00  0.00    +0.000 C 
BRANCH  14  16
ATOM     15  C   UNL     1      43.443   4.324  13.200  0.00  0.00    +0.000 C 
ATOM     16  C   UNL     1      44.892   4.062  12.905  0.00  0.00    +0.000 C 
BRANCH  16  17
ATOM     17  C   UNL     1      45.821   5.269  12.730  0.00  0.00    +0.000 C 
ATOM     18  C   UNL     1      47.058   5.269  13.649  0.00  0.00    +0.000 C 
ATOM     19  C   UNL     1      47.954   6.486  13.388  0.00  0.00    +0.000 C 
ATOM     20  C   UNL     1      47.186   7.799  13.513  0.00  0.00    +0.000 C 
ATOM     21  C   UNL     1      45.950   7.808  12.621  0.00  0.00    +0.000 C 
ATOM     22  C   UNL     1      45.054   6.598  12.885  0.00  0.00    +0.000 C 
ENDBRANCH  16  17
ENDBRANCH  14  16
ENDBRANCH  12  14
ENDBRANCH   1  12
BRANCH   6  23
ATOM     23  C   UNL     1      44.819   5.303   9.548  0.00  0.00    +0.000 C 
BRANCH  23  24
ATOM     24  N   UNL     1      43.398   5.241   9.913  0.00  0.00    +0.000 NA
ATOM     25  H   UNL     1      43.181   4.301  10.245  0.00  0.00    +0.000 HD
ATOM     26  H   UNL     1      42.834   5.380   9.075  0.00  0.00    +0.000 HD
ENDBRANCH  23  24
ENDBRANCH   6  23
TORSDOF 7
ENDMDL
MODEL 6
REMARK VINA RESULT:    -6.916      1.816      2.662
REMARK INTER + INTRA:         -10.296
REMARK INTER:                  -9.706
REMARK INTRA:                  -0.589
REMARK UNBOUND:                -0.751
REMARK  Name = 
REMARK  8 active torsions:
REMARK  status: ('A' for Active; 'I' for Inactive)
REMARK    1  A    between atoms: C_1  and  C_2
REMARK    2  A    between atoms: C_2  and  C_3
REMARK    3  A    between atoms: C_2  and  C_16
REMARK    4  A    between atoms: C_3  and  N_4
REMARK    5  A    between atoms: N_4  and  C_5
REMARK    6  A    between atoms: C_8  and  C_9
REMARK    7  A    between atoms: C_13  and  C_14
REMARK    8  A    between atoms: C_14  and  N_15
REMARK                            x       y       z     vdW  Elec       q    Type
REMARK                         _______ _______ _______ _____ _____    ______ ____
ROOT
ATOM      1  C   UNL     1      44.980   6.073  12.741  0.00  0.00    +0.000 A 
ATOM      2  N   UNL     1      45.765   5.138  13.330  0.00  0.00    +0.000 NA
ATOM      3  C   UNL     1      47.048   5.442  13.637  0.00  0.00    +0.000 A 
ATOM      4  C   UNL     1      47.635   6.661  13.352  0.00  0.00    +0.000 A 
ATOM      5  C   UNL     1      46.839   7.618  12.736  0.00  0.00    +0.000 A 
ATOM      6  C   UNL     1      45.483   7.354  12.440  0.00  0.00    +0.000 A 
ENDROOT
BRANCH   4   7
ATOM      7  C   UNL     1      49.036   6.898  13.746  0.00  0.00    +0.000 C 
ATOM      8  N   UNL     1      49.886   7.391  12.794  0.00  0.00    +0.000 N 
ATOM      9  O   UNL     1      49.432   6.640  14.875  0.00  0.00    +0.000 OA
ATOM     10  H   UNL     1      49.643   7.467  11.814  0.00  0.00    +0.000 HD
ATOM     11  H   UNL     1      50.852   7.503  13.058  0.00  0.00    +0.000 HD
ENDBRANCH   4   7
BRANCH   1  12
ATOM     12  N   UNL     1      43.637   5.724  12.446  0.00  0.00    +0.000 N 
ATOM     13  H   UNL     1      43.376   4.970  13.070  0.00  0.00    +0.000 HD
BRANCH  12  14
ATOM     14  C   UNL     1      43.465   5.333  11.047  0.00  0.00    +0.000 C 
BRANCH  14  16
ATOM     15  C   UNL     1      43.401   2.900  11.942  0.00  0.00    +0.000 C 
ATOM     16  C   UNL     1      43.708   3.853  10.824  0.00  0.00    +0.000 C 
BRANCH  16  17
ATOM     17  C   UNL     1      44.890   3.526   9.903  0.00  0.00    +0.000 C 
ATOM     18  C   UNL     1      45.185   4.592   8.829  0.00  0.00    +0.000 C 
ATOM     19  C   UNL     1      46.400   4.210   7.974  0.00  0.00    +0.000 C 
ATOM     20  C   UNL     1      46.242   2.831   7.340  0.00  0.00    +0.000 C 
ATOM     21  C   UNL     1      45.934   1.767   8.389  0.00  0.00    +0.000 C 
ATOM     22  C   UNL     1      44.720   2.146   9.236  0.00  0.00    +0.000 C 
ENDBRANCH  16  17
ENDBRANCH  14  16
ENDBRANCH  12  14
ENDBRANCH   1  12
BRANCH   6  23
ATOM     23  C   UNL     1      44.665   8.409  11.732  0.00  0.00    +0.000 C 
BRANCH  23  24
ATOM     24  N   UNL     1      44.525   9.645  12.511  0.00  0.00    +0.000 NA
ATOM     25  H   UNL     1      43.611   9.650  12.964  0.00  0.00    +0.000 HD
ATOM     26  H   UNL     1      44.527  10.442  11.873  0.00  0.00    +0.000 HD
ENDBRANCH  23  24
ENDBRANCH   6  23
TORSDOF 7
ENDMDL
MODEL 7
REMARK VINA RESULT:    -6.636      2.123      2.837
REMARK INTER + INTRA:          -9.909
REMARK INTER:                  -8.903
REMARK INTRA:                  -1.005
REMARK UNBOUND:                -0.751
REMARK  Name = 
REMARK  8 active torsions:
REMARK  status: ('A' for Active; 'I' for Inactive)
REMARK    1  A    between atoms: C_1  and  C_2
REMARK    2  A    between atoms: C_2  and  C_3
REMARK    3  A    between atoms: C_2  and  C_16
REMARK    4  A    between atoms: C_3  and  N_4
REMARK    5  A    between atoms: N_4  and  C_5
REMARK    6  A    between atoms: C_8  and  C_9
REMARK    7  A    between atoms: C_13  and  C_14
REMARK    8  A    between atoms: C_14  and  N_15
REMARK                            x       y       z     vdW  Elec       q    Type
REMARK                         _______ _______ _______ _____ _____    ______ ____
ROOT
ATOM      1  C   UNL     1      45.173   6.428  12.444  0.00  0.00    +0.000 A 
ATOM      2  N   UNL     1      44.848   7.704  12.120  0.00  0.00    +0.000 NA
ATOM      3  C   UNL     1      45.810   8.657  12.119  0.00  0.00    +0.000 A 
ATOM      4  C   UNL     1      47.126   8.415  12.468  0.00  0.00    +0.000 A 
ATOM      5  C   UNL     1      47.461   7.112  12.814  0.00  0.00    +0.000 A 
ATOM      6  C   UNL     1      46.495   6.082  12.784  0.00  0.00    +0.000 A 
ENDROOT
BRANCH   4   7
ATOM      7  C   UNL     1      48.102   9.520  12.415  0.00  0.00    +0.000 C 
ATOM      8  N   UNL     1      47.883  10.596  13.233  0.00  0.00    +0.000 N 
ATOM      9  O   UNL     1      49.057   9.490  11.652  0.00  0.00    +0.000 OA
ATOM     10  H   UNL     1      47.028  10.734  13.757  0.00  0.00    +0.000 HD
ATOM     11  H   UNL     1      48.527  11.368  13.153  0.00  0.00    +0.000 HD
ENDBRANCH   4   7
BRANCH   1  12
ATOM     12  N   UNL     1      44.142   5.454  12.421  0.00  0.00    +0.000 N 
ATOM     13  H   UNL     1      44.511   4.612  12.849  0.00  0.00    +0.000 HD
BRANCH  12  14
ATOM     14  C   UNL     1      43.665   5.189  11.064  0.00  0.00    +0.000 C 
BRANCH  14  16
ATOM     15  C   UNL     1      43.377   2.686  11.678  0.00  0.00    +0.000 C 
ATOM     16  C   UNL     1      43.790   3.728  10.679  0.00  0.00    +0.000 C 
BRANCH  16  17
ATOM     17  C   UNL     1      44.964   3.406   9.747  0.00  0.00    +0.000 C 
ATOM     18  C   UNL     1      45.197   4.437   8.624  0.00  0.00    +0.000 C 
ATOM     19  C   UNL     1      46.408   4.063   7.759  0.00  0.00    +0.000 C 
ATOM     20  C   UNL     1      46.288   2.655   7.185  0.00  0.00    +0.000 C 
ATOM     21  C   UNL     1      46.041   1.625   8.282  0.00  0.00    +0.000 C 
ATOM     22  C   UNL     1      44.831   1.994   9.140  0.00  0.00    +0.000 C 
ENDBRANCH  16  17
ENDBRANCH  14  16
ENDBRANCH  12  14
ENDBRANCH   1  12
BRANCH   6  23
ATOM     23  C   UNL     1      46.893   4.688  13.209  0.00  0.00    +0.000 C 
BRANCH  23  24
ATOM     24  N   UNL     1      46.009   4.128  14.239  0.00  0.00    +0.000 NA
ATOM     25  H   UNL     1      45.670   4.885  14.832  0.00  0.00    +0.000 HD
ATOM     26  H   UNL     1      46.554   3.516  14.847  0.00  0.00    +0.000 HD
ENDBRANCH  23  24
ENDBRANCH   6  23
TORSDOF 7
ENDMDL
MODEL 8
REMARK VINA RESULT:    -6.424      1.837      2.246
REMARK INTER + INTRA:          -9.617
REMARK INTER:                  -8.878
REMARK INTRA:                  -0.739
REMARK UNBOUND:                -0.751
REMARK  Name = 
REMARK  8 active torsions:
REMARK  status: ('A' for Active; 'I' for Inactive)
REMARK    1  A    between atoms: C_1  and  C_2
REMARK    2  A    between atoms: C_2  and  C_3
REMARK    3  A    between atoms: C_2  and  C_16
REMARK    4  A    between atoms: C_3  and  N_4
REMARK    5  A    between atoms: N_4  and  C_5
REMARK    6  A    between atoms: C_8  and  C_9
REMARK    7  A    between atoms: C_13  and  C_14
REMARK    8  A    between atoms: C_14  and  N_15
REMARK                            x       y       z     vdW  Elec       q    Type
REMARK                         _______ _______ _______ _____ _____    ______ ____
ROOT
ATOM      1  C   UNL     1      46.463   6.121  12.477  0.00  0.00    +0.000 A 
ATOM      2  N   UNL     1      46.806   7.212  11.748  0.00  0.00    +0.000 NA
ATOM      3  C   UNL     1      47.879   7.950  12.119  0.00  0.00    +0.000 A 
ATOM      4  C   UNL     1      48.645   7.678  13.238  0.00  0.00    +0.000 A 
ATOM      5  C   UNL     1      48.290   6.569  13.994  0.00  0.00    +0.000 A 
ATOM      6  C   UNL     1      47.205   5.749  13.615  0.00  0.00    +0.000 A 
ENDROOT
BRANCH   4   7
ATOM      7  C   UNL     1      49.807   8.534  13.543  0.00  0.00    +0.000 C 
ATOM      8  N   UNL     1      49.773   9.828  13.099  0.00  0.00    +0.000 N 
ATOM      9  O   UNL     1      50.777   8.098  14.148  0.00  0.00    +0.000 OA
ATOM     10  H   UNL     1      49.069  10.181  12.462  0.00  0.00    +0.000 HD
ATOM     11  H   UNL     1      50.592  10.390  13.268  0.00  0.00    +0.000 HD
ENDBRANCH   4   7
BRANCH   1  12
ATOM     12  N   UNL     1      45.341   5.364  12.051  0.00  0.00    +0.000 N 
ATOM     13  H   UNL     1      45.473   4.415  12.381  0.00  0.00    +0.000 HD
BRANCH  12  14
ATOM     14  C   UNL     1      45.174   5.398  10.598  0.00  0.00    +0.000 C 
BRANCH  14  16
ATOM     15  C   UNL     1      43.455   3.514  11.069  0.00  0.00    +0.000 C 
ATOM     16  C   UNL     1      44.310   4.262  10.087  0.00  0.00    +0.000 C 
BRANCH  16  17
ATOM     17  C   UNL     1      44.903   3.482   8.908  0.00  0.00    +0.000 C 
ATOM     18  C   UNL     1      45.475   2.097   9.274  0.00  0.00    +0.000 C 
ATOM     19  C   UNL     1      46.015   1.366   8.038  0.00  0.00    +0.000 C 
ATOM     20  C   UNL     1      47.050   2.200   7.287  0.00  0.00    +0.000 C 
ATOM     21  C   UNL     1      46.504   3.578   6.932  0.00  0.00    +0.000 C 
ATOM     22  C   UNL     1      45.971   4.308   8.165  0.00  0.00    +0.000 C 
ENDBRANCH  16  17
ENDBRANCH  14  16
ENDBRANCH  12  14
ENDBRANCH   1  12
BRANCH   6  23
ATOM     23  C   UNL     1      46.826   4.577  14.491  0.00  0.00    +0.000 C 
BRANCH  23  24
ATOM     24  N   UNL     1      47.183   3.281  13.901  0.00  0.00    +0.000 NA
ATOM     25  H   UNL     1      46.387   2.648  13.982  0.00  0.00    +0.000 HD
ATOM     26  H   UNL     1      47.933   2.861  14.450  0.00  0.00    +0.000 HD
ENDBRANCH  23  24
ENDBRANCH   6  23
TORSDOF 7
ENDMDL
MODEL 9
REMARK VINA RESULT:    -6.416      2.377      4.216
REMARK INTER + INTRA:          -9.606
REMARK INTER:                  -8.746
REMARK INTRA:                  -0.860
REMARK UNBOUND:                -0.751
REMARK  Name = 
REMARK  8 active torsions:
REMARK  status: ('A' for Active; 'I' for Inactive)
REMARK    1  A    between atoms: C_1  and  C_2
REMARK    2  A    between atoms: C_2  and  C_3
REMARK    3  A    between atoms: C_2  and  C_16
REMARK    4  A    between atoms: C_3  and  N_4
REMARK    5  A    between atoms: N_4  and  C_5
REMARK    6  A    between atoms: C_8  and  C_9
REMARK    7  A    between atoms: C_13  and  C_14
REMARK    8  A    between atoms: C_14  and  N_15
REMARK                            x       y       z     vdW  Elec       q    Type
REMARK                         _______ _______ _______ _____ _____    ______ ____
ROOT
ATOM      1  C   UNL     1      47.223   5.035  14.419  0.00  0.00    +0.000 A 
ATOM      2  N   UNL     1      46.763   3.996  15.159  0.00  0.00    +0.000 NA
ATOM      3  C   UNL     1      47.169   3.862  16.444  0.00  0.00    +0.000 A 
ATOM      4  C   UNL     1      48.070   4.716  17.055  0.00  0.00    +0.000 A 
ATOM      5  C   UNL     1      48.554   5.774  16.296  0.00  0.00    +0.000 A 
ATOM      6  C   UNL     1      48.120   5.973  14.967  0.00  0.00    +0.000 A 
ENDROOT
BRANCH   4   7
ATOM      7  C   UNL     1      48.432   4.493  18.467  0.00  0.00    +0.000 C 
ATOM      8  N   UNL     1      48.376   3.210  18.939  0.00  0.00    +0.000 N 
ATOM      9  O   UNL     1      48.747   5.422  19.197  0.00  0.00    +0.000 OA
ATOM     10  H   UNL     1      47.970   2.441  18.419  0.00  0.00    +0.000 HD
ATOM     11  H   UNL     1      48.577   3.075  19.918  0.00  0.00    +0.000 HD
ENDBRANCH   4   7
BRANCH   1  12
ATOM     12  N   UNL     1      46.765   5.152  13.081  0.00  0.00    +0.000 N 
ATOM     13  H   UNL     1      47.430   5.732  12.583  0.00  0.00    +0.000 HD
BRANCH  12  14
ATOM     14  C   UNL     1      45.417   5.713  13.008  0.00  0.00    +0.000 C 
BRANCH  14  16
ATOM     15  C   UNL     1      43.458   4.014  13.070  0.00  0.00    +0.000 C 
ATOM     16  C   UNL     1      44.450   4.808  12.270  0.00  0.00    +0.000 C 
BRANCH  16  17
ATOM     17  C   UNL     1      45.008   4.180  10.988  0.00  0.00    +0.000 C 
ATOM     18  C   UNL     1      45.242   5.173   9.832  0.00  0.00    +0.000 C 
ATOM     19  C   UNL     1      45.834   4.476   8.600  0.00  0.00    +0.000 C 
ATOM     20  C   UNL     1      44.974   3.302   8.140  0.00  0.00    +0.000 C 
ATOM     21  C   UNL     1      44.720   2.318   9.276  0.00  0.00    +0.000 C 
ATOM     22  C   UNL     1      44.126   3.012  10.501  0.00  0.00    +0.000 C 
ENDBRANCH  16  17
ENDBRANCH  14  16
ENDBRANCH  12  14
ENDBRANCH   1  12
BRANCH   6  23
ATOM     23  C   UNL     1      48.705   7.112  14.164  0.00  0.00    +0.000 C 
BRANCH  23  24
ATOM     24  N   UNL     1      49.452   6.658  12.985  0.00  0.00    +0.000 NA
ATOM     25  H   UNL     1      49.389   5.642  12.923  0.00  0.00    +0.000 HD
ATOM     26  H   UNL     1      50.441   6.871  13.117  0.00  0.00    +0.000 HD
ENDBRANCH  23  24
ENDBRANCH   6  23
TORSDOF 7
ENDMDL
