MODEL 1
REMARK VINA RESULT:    -7.627      0.000      0.000
REMARK INTER + INTRA:         -10.269
REMARK INTER:                  -9.633
REMARK INTRA:                  -0.636
REMARK UNBOUND:                -0.636
REMARK  Name = 
REMARK  5 active torsions:
REMARK  status: ('A' for Active; 'I' for Inactive)
REMARK    1  A    between atoms: C_2  and  O_3
REMARK    2  A    between atoms: C_2  and  C_4
REMARK    3  A    between atoms: C_4  and  C_5
REMARK    4  A    between atoms: C_8  and  C_9
REMARK    5  A    between atoms: C_9  and  N_10
REMARK                            x       y       z     vdW  Elec       q    Type
REMARK                         _______ _______ _______ _____ _____    ______ ____
ROOT
ATOM      1  C   UNL     1      45.893   3.386   7.589  0.00  0.00    +0.000 A 
ATOM      2  N   UNL     1      45.039   2.610   8.275  0.00  0.00    +0.000 NA
ATOM      3  C   UNL     1      44.529   3.133   9.411  0.00  0.00    +0.000 A 
ATOM      4  C   UNL     1      44.840   4.386   9.896  0.00  0.00    +0.000 A 
ATOM      5  C   UNL     1      45.703   5.106   9.098  0.00  0.00    +0.000 A 
ATOM      6  N   UNL     1      46.206   4.653   7.927  0.00  0.00    +0.000 NA
ENDROOT
BRANCH   1   7
ATOM      7  C   UNL     1      46.529   2.830   6.351  0.00  0.00    +0.000 C 
BRANCH   7   9
ATOM      8  O   UNL     1      47.799   0.959   7.142  0.00  0.00    +0.000 OA
ATOM      9  C   UNL     1      47.795   2.067   6.616  0.00  0.00    +0.000 C 
BRANCH   9  10
ATOM     10  O   UNL     1      48.949   2.720   6.349  0.00  0.00    +0.000 OA
ATOM     11  H   UNL     1      49.179   2.756   5.395  0.00  0.00    +0.000 HD
ENDBRANCH   9  10
ENDBRANCH   7   9
ENDBRANCH   1   7
BRANCH   4  12
ATOM     12  C   UNL     1      44.279   4.913  11.182  0.00  0.00    +0.000 C 
BRANCH  12  13
ATOM     13  N   UNL     1      45.225   4.895  12.281  0.00  0.00    +0.000 N 
ATOM     14  C   UNL     1      45.808   3.653  12.803  0.00  0.00    +0.000 C 
ATOM     15  C   UNL     1      46.807   4.051  13.905  0.00  0.00    +0.000 C 
ATOM     16  C   UNL     1      47.063   5.479  13.551  0.00  0.00    +0.000 A 
ATOM     17  C   UNL     1      48.031   6.323  14.071  0.00  0.00    +0.000 A 
ATOM     18  C   UNL     1      48.043   7.649  13.643  0.00  0.00    +0.000 A 
ATOM     19  C   UNL     1      47.086   8.101  12.723  0.00  0.00    +0.000 A 
ATOM     20  C   UNL     1      46.109   7.234  12.217  0.00  0.00    +0.000 A 
ATOM     21  C   UNL     1      46.104   5.911  12.624  0.00  0.00    +0.000 A 
ENDBRANCH  12  13
ENDBRANCH   4  12
TORSDOF 5
ENDMDL
MODEL 2
REMARK VINA RESULT:    -7.203      3.380      6.812
REMARK INTER + INTRA:          -9.733
REMARK INTER:                  -9.031
REMARK INTRA:                  -0.702
REMARK UNBOUND:                -0.636
REMARK  Name = 
REMARK  5 active torsions:
REMARK  status: ('A' for Active; 'I' for Inactive)
REMARK    1  A    between atoms: C_2  and  O_3
REMARK    2  A    between atoms: C_2  and  C_4
REMARK    3  A    between atoms: C_4  and  C_5
REMARK    4  A    between atoms: C_8  and  C_9
REMARK    5  A    between atoms: C_9  and  N_10
REMARK                            x       y       z     vdW  Elec       q    Type
REMARK                         _______ _______ _______ _____ _____    ______ ____
ROOT
ATOM      1  C   UNL     1      46.450   4.513  14.007  0.00  0.00    +0.000 A 
ATOM      2  N   UNL     1      46.443   3.248  13.558  0.00  0.00    +0.000 NA
ATOM      3  C   UNL     1      45.754   3.014  12.421  0.00  0.00    +0.000 A 
ATOM      4  C   UNL     1      45.064   3.981  11.720  0.00  0.00    +0.000 A 
ATOM      5  C   UNL     1      45.161   5.248  12.254  0.00  0.00    +0.000 A 
ATOM      6  N   UNL     1      45.878   5.549  13.362  0.00  0.00    +0.000 NA
ENDROOT
BRANCH   1   7
ATOM      7  C   UNL     1      47.155   4.813  15.295  0.00  0.00    +0.000 C 
BRANCH   7   9
ATOM      8  O   UNL     1      46.652   3.378  17.146  0.00  0.00    +0.000 OA
ATOM      9  C   UNL     1      47.354   3.607  16.166  0.00  0.00    +0.000 C 
BRANCH   9  10
ATOM     10  O   UNL     1      48.431   2.840  15.883  0.00  0.00    +0.000 OA
ATOM     11  H   UNL     1      48.888   3.081  15.048  0.00  0.00    +0.000 HD
ENDBRANCH   9  10
ENDBRANCH   7   9
ENDBRANCH   1   7
BRANCH   4  12
ATOM     12  C   UNL     1      44.279   3.671  10.482  0.00  0.00    +0.000 C 
BRANCH  12  13
ATOM     13  N   UNL     1      45.051   3.783   9.260  0.00  0.00    +0.000 N 
ATOM     14  C   UNL     1      45.752   5.015   8.877  0.00  0.00    +0.000 C 
ATOM     15  C   UNL     1      46.507   4.718   7.568  0.00  0.00    +0.000 C 
ATOM     16  C   UNL     1      46.569   3.226   7.612  0.00  0.00    +0.000 A 
ATOM     17  C   UNL     1      47.301   2.381   6.791  0.00  0.00    +0.000 A 
ATOM     18  C   UNL     1      47.152   1.008   6.966  0.00  0.00    +0.000 A 
ATOM     19  C   UNL     1      46.272   0.512   7.940  0.00  0.00    +0.000 A 
ATOM     20  C   UNL     1      45.534   1.382   8.752  0.00  0.00    +0.000 A 
ATOM     21  C   UNL     1      45.692   2.749   8.596  0.00  0.00    +0.000 A 
ENDBRANCH  12  13
ENDBRANCH   4  12
TORSDOF 5
ENDMDL
MODEL 3
REMARK VINA RESULT:    -7.145      1.029      2.183
REMARK INTER + INTRA:          -9.661
REMARK INTER:                  -8.949
REMARK INTRA:                  -0.711
REMARK UNBOUND:                -0.636
REMARK  Name = 
REMARK  5 active torsions:
REMARK  status: ('A' for Active; 'I' for Inactive)
REMARK    1  A    between atoms: C_2  and  O_3
REMARK    2  A    between atoms: C_2  and  C_4
REMARK    3  A    between atoms: C_4  and  C_5
REMARK    4  A    between atoms: C_8  and  C_9
REMARK    5  A    between atoms: C_9  and  N_10
REMARK                            x       y       z     vdW  Elec       q    Type
REMARK                         _______ _______ _______ _____ _____    ______ ____
ROOT
ATOM      1  C   UNL     1      45.738   3.364   7.942  0.00  0.00    +0.000 A 
ATOM      2  N   UNL     1      44.896   2.707   8.756  0.00  0.00    +0.000 NA
ATOM      3  C   UNL     1      44.465   3.378   9.845  0.00  0.00    +0.000 A 
ATOM      4  C   UNL     1      44.843   4.666  10.164  0.00  0.00    +0.000 A 
ATOM      5  C   UNL     1      45.686   5.254   9.245  0.00  0.00    +0.000 A 
ATOM      6  N   UNL     1      46.111   4.648   8.112  0.00  0.00    +0.000 NA
ENDROOT
BRANCH   1   7
ATOM      7  C   UNL     1      46.289   2.643   6.749  0.00  0.00    +0.000 C 
BRANCH   7   9
ATOM      8  O   UNL     1      48.281   1.322   6.596  0.00  0.00    +0.000 OA
ATOM      9  C   UNL     1      47.176   1.485   7.103  0.00  0.00    +0.000 C 
BRANCH   9  10
ATOM     10  O   UNL     1      46.642   0.557   7.929  0.00  0.00    +0.000 OA
ATOM     11  H   UNL     1      46.171  -0.170   7.465  0.00  0.00    +0.000 HD
ENDBRANCH   9  10
ENDBRANCH   7   9
ENDBRANCH   1   7
BRANCH   4  12
ATOM     12  C   UNL     1      44.369   5.360  11.404  0.00  0.00    +0.000 C 
BRANCH  12  13
ATOM     13  N   UNL     1      45.055   6.610  11.670  0.00  0.00    +0.000 N 
ATOM     14  C   UNL     1      44.408   7.917  11.505  0.00  0.00    +0.000 C 
ATOM     15  C   UNL     1      45.426   8.985  11.947  0.00  0.00    +0.000 C 
ATOM     16  C   UNL     1      46.349   8.162  12.786  0.00  0.00    +0.000 A 
ATOM     17  C   UNL     1      47.366   8.607  13.617  0.00  0.00    +0.000 A 
ATOM     18  C   UNL     1      48.155   7.653  14.254  0.00  0.00    +0.000 A 
ATOM     19  C   UNL     1      47.922   6.286  14.038  0.00  0.00    +0.000 A 
ATOM     20  C   UNL     1      46.896   5.858  13.186  0.00  0.00    +0.000 A 
ATOM     21  C   UNL     1      46.096   6.802  12.565  0.00  0.00    +0.000 A 
ENDBRANCH  12  13
ENDBRANCH   4  12
TORSDOF 5
ENDMDL
MODEL 4
REMARK VINA RESULT:    -6.299      3.940      6.844
REMARK INTER + INTRA:          -8.592
REMARK INTER:                  -7.845
REMARK INTRA:                  -0.746
REMARK UNBOUND:                -0.636
REMARK  Name = 
REMARK  5 active torsions:
REMARK  status: ('A' for Active; 'I' for Inactive)
REMARK    1  A    between atoms: C_2  and  O_3
REMARK    2  A    between atoms: C_2  and  C_4
REMARK    3  A    between atoms: C_4  and  C_5
REMARK    4  A    between atoms: C_8  and  C_9
REMARK    5  A    between atoms: C_9  and  N_10
REMARK                            x       y       z     vdW  Elec       q    Type
REMARK                         _______ _______ _______ _____ _____    ______ ____
ROOT
ATOM      1  C   UNL     1      48.217   6.499  14.612  0.00  0.00    +0.000 A 
ATOM      2  N   UNL     1      47.612   5.301  14.609  0.00  0.00    +0.000 NA
ATOM      3  C   UNL     1      46.495   5.192  13.859  0.00  0.00    +0.000 A 
ATOM      4  C   UNL     1      45.950   6.225  13.125  0.00  0.00    +0.000 A 
ATOM      5  C   UNL     1      46.667   7.400  13.178  0.00  0.00    +0.000 A 
ATOM      6  N   UNL     1      47.819   7.553  13.872  0.00  0.00    +0.000 NA
ENDROOT
BRANCH   1   7
ATOM      7  C   UNL     1      49.430   6.686  15.473  0.00  0.00    +0.000 C 
BRANCH   7   9
ATOM      8  O   UNL     1      49.300   6.452  17.854  0.00  0.00    +0.000 OA
ATOM      9  C   UNL     1      49.383   5.910  16.757  0.00  0.00    +0.000 C 
BRANCH   9  10
ATOM     10  O   UNL     1      49.555   4.573  16.649  0.00  0.00    +0.000 OA
ATOM     11  H   UNL     1      49.962   4.287  15.802  0.00  0.00    +0.000 HD
ENDBRANCH   9  10
ENDBRANCH   7   9
ENDBRANCH   1   7
BRANCH   4  12
ATOM     12  C   UNL     1      44.685   6.071  12.335  0.00  0.00    +0.000 C 
BRANCH  12  13
ATOM     13  N   UNL     1      44.507   4.747  11.772  0.00  0.00    +0.000 N 
ATOM     14  C   UNL     1      43.461   3.826  12.230  0.00  0.00    +0.000 C 
ATOM     15  C   UNL     1      43.550   2.566  11.350  0.00  0.00    +0.000 C 
ATOM     16  C   UNL     1      44.292   3.100  10.169  0.00  0.00    +0.000 A 
ATOM     17  C   UNL     1      44.509   2.478   8.949  0.00  0.00    +0.000 A 
ATOM     18  C   UNL     1      45.296   3.137   8.008  0.00  0.00    +0.000 A 
ATOM     19  C   UNL     1      45.856   4.388   8.309  0.00  0.00    +0.000 A 
ATOM     20  C   UNL     1      45.633   4.994   9.552  0.00  0.00    +0.000 A 
ATOM     21  C   UNL     1      44.835   4.353  10.484  0.00  0.00    +0.000 A 
ENDBRANCH  12  13
ENDBRANCH   4  12
TORSDOF 5
ENDMDL
MODEL 5
REMARK VINA RESULT:    -6.291      1.976      3.454
REMARK INTER + INTRA:          -8.582
REMARK INTER:                  -7.811
REMARK INTRA:                  -0.771
REMARK UNBOUND:                -0.636
REMARK  Name = 
REMARK  5 active torsions:
REMARK  status: ('A' for Active; 'I' for Inactive)
REMARK    1  A    between atoms: C_2  and  O_3
REMARK    2  A    between atoms: C_2  and  C_4
REMARK    3  A    between atoms: C_4  and  C_5
REMARK    4  A    between atoms: C_8  and  C_9
REMARK    5  A    between atoms: C_9  and  N_10
REMARK                            x       y       z     vdW  Elec       q    Type
REMARK                         _______ _______ _______ _____ _____    ______ ____
ROOT
ATOM      1  C   UNL     1      44.866   3.412  10.342  0.00  0.00    +0.000 A 
ATOM      2  N   UNL     1      45.064   3.032  11.614  0.00  0.00    +0.000 NA
ATOM      3  C   UNL     1      45.397   4.004  12.490  0.00  0.00    +0.000 A 
ATOM      4  C   UNL     1      45.553   5.332  12.152  0.00  0.00    +0.000 A 
ATOM      5  C   UNL     1      45.298   5.615  10.827  0.00  0.00    +0.000 A 
ATOM      6  N   UNL     1      44.912   4.690   9.917  0.00  0.00    +0.000 NA
ENDROOT
BRANCH   1   7
ATOM      7  C   UNL     1      44.548   2.362   9.322  0.00  0.00    +0.000 C 
BRANCH   7   9
ATOM      8  O   UNL     1      46.180   0.918   8.327  0.00  0.00    +0.000 OA
ATOM      9  C   UNL     1      45.697   2.042   8.410  0.00  0.00    +0.000 C 
BRANCH   9  10
ATOM     10  O   UNL     1      46.253   3.092   7.764  0.00  0.00    +0.000 OA
ATOM     11  H   UNL     1      47.027   2.856   7.206  0.00  0.00    +0.000 HD
ENDBRANCH   9  10
ENDBRANCH   7   9
ENDBRANCH   1   7
BRANCH   4  12
ATOM     12  C   UNL     1      45.961   6.374  13.148  0.00  0.00    +0.000 C 
BRANCH  12  13
ATOM     13  N   UNL     1      46.352   7.634  12.547  0.00  0.00    +0.000 N 
ATOM     14  C   UNL     1      45.580   8.869  12.725  0.00  0.00    +0.000 C 
ATOM     15  C   UNL     1      46.346   9.990  12.000  0.00  0.00    +0.000 C 
ATOM     16  C   UNL     1      47.712   9.391  11.920  0.00  0.00    +0.000 A 
ATOM     17  C   UNL     1      48.891  10.012  11.538  0.00  0.00    +0.000 A 
ATOM     18  C   UNL     1      50.046   9.237  11.467  0.00  0.00    +0.000 A 
ATOM     19  C   UNL     1      49.995   7.867  11.763  0.00  0.00    +0.000 A 
ATOM     20  C   UNL     1      48.791   7.257  12.138  0.00  0.00    +0.000 A 
ATOM     21  C   UNL     1      47.643   8.026  12.229  0.00  0.00    +0.000 A 
ENDBRANCH  12  13
ENDBRANCH   4  12
TORSDOF 5
ENDMDL
MODEL 6
REMARK VINA RESULT:    -6.197      3.431      6.700
REMARK INTER + INTRA:          -8.463
REMARK INTER:                  -7.875
REMARK INTRA:                  -0.588
REMARK UNBOUND:                -0.636
REMARK  Name = 
REMARK  5 active torsions:
REMARK  status: ('A' for Active; 'I' for Inactive)
REMARK    1  A    between atoms: C_2  and  O_3
REMARK    2  A    between atoms: C_2  and  C_4
REMARK    3  A    between atoms: C_4  and  C_5
REMARK    4  A    between atoms: C_8  and  C_9
REMARK    5  A    between atoms: C_9  and  N_10
REMARK                            x       y       z     vdW  Elec       q    Type
REMARK                         _______ _______ _______ _____ _____    ______ ____
ROOT
ATOM      1  C   UNL     1      46.858   4.816  14.274  0.00  0.00    +0.000 A 
ATOM      2  N   UNL     1      46.428   3.624  13.830  0.00  0.00    +0.000 NA
ATOM      3  C   UNL     1      45.784   3.620  12.643  0.00  0.00    +0.000 A 
ATOM      4  C   UNL     1      45.540   4.748  11.889  0.00  0.00    +0.000 A 
ATOM      5  C   UNL     1      46.049   5.911  12.425  0.00  0.00    +0.000 A 
ATOM      6  N   UNL     1      46.745   5.969  13.585  0.00  0.00    +0.000 NA
ENDROOT
BRANCH   1   7
ATOM      7  C   UNL     1      47.530   4.882  15.612  0.00  0.00    +0.000 C 
BRANCH   7   9
ATOM      8  O   UNL     1      46.607   3.425  17.275  0.00  0.00    +0.000 OA
ATOM      9  C   UNL     1      47.441   3.603  16.394  0.00  0.00    +0.000 C 
BRANCH   9  10
ATOM     10  O   UNL     1      48.411   2.691  16.155  0.00  0.00    +0.000 OA
ATOM     11  H   UNL     1      49.168   3.038  15.634  0.00  0.00    +0.000 HD
ENDBRANCH   9  10
ENDBRANCH   7   9
ENDBRANCH   1   7
BRANCH   4  12
ATOM     12  C   UNL     1      44.787   4.703  10.594  0.00  0.00    +0.000 C 
BRANCH  12  13
ATOM     13  N   UNL     1      45.077   3.531   9.792  0.00  0.00    +0.000 N 
ATOM     14  C   UNL     1      44.254   2.316   9.840  0.00  0.00    +0.000 C 
ATOM     15  C   UNL     1      44.836   1.335   8.806  0.00  0.00    +0.000 C 
ATOM     16  C   UNL     1      45.603   2.271   7.930  0.00  0.00    +0.000 A 
ATOM     17  C   UNL     1      46.192   1.998   6.705  0.00  0.00    +0.000 A 
ATOM     18  C   UNL     1      46.925   3.011   6.091  0.00  0.00    +0.000 A 
ATOM     19  C   UNL     1      47.064   4.259   6.716  0.00  0.00    +0.000 A 
ATOM     20  C   UNL     1      46.468   4.511   7.959  0.00  0.00    +0.000 A 
ATOM     21  C   UNL     1      45.722   3.514   8.565  0.00  0.00    +0.000 A 
ENDBRANCH  12  13
ENDBRANCH   4  12
TORSDOF 5
ENDMDL
MODEL 7
REMARK VINA RESULT:    -6.033      1.634      2.602
REMARK INTER + INTRA:          -8.256
REMARK INTER:                  -7.688
REMARK INTRA:                  -0.568
REMARK UNBOUND:                -0.636
REMARK  Name = 
REMARK  5 active torsions:
REMARK  status: ('A' for Active; 'I' for Inactive)
REMARK    1  A    between atoms: C_2  and  O_3
REMARK    2  A    between atoms: C_2  and  C_4
REMARK    3  A    between atoms: C_4  and  C_5
REMARK    4  A    between atoms: C_8  and  C_9
REMARK    5  A    between atoms: C_9  and  N_10
REMARK                            x       y       z     vdW  Elec       q    Type
REMARK                         _______ _______ _______ _____ _____    ______ ____
ROOT
ATOM      1  C   UNL     1      44.774   3.094   9.700  0.00  0.00    +0.000 A 
ATOM      2  N   UNL     1      44.726   2.607  10.950  0.00  0.00    +0.000 NA
ATOM      3  C   UNL     1      44.762   3.511  11.951  0.00  0.00    +0.000 A 
ATOM      4  C   UNL     1      44.855   4.874  11.763  0.00  0.00    +0.000 A 
ATOM      5  C   UNL     1      44.869   5.266  10.441  0.00  0.00    +0.000 A 
ATOM      6  N   UNL     1      44.786   4.408   9.398  0.00  0.00    +0.000 NA
ENDROOT
BRANCH   1   7
ATOM      7  C   UNL     1      44.793   2.128   8.555  0.00  0.00    +0.000 C 
BRANCH   7   9
ATOM      8  O   UNL     1      46.950   2.641   7.647  0.00  0.00    +0.000 OA
ATOM      9  C   UNL     1      46.175   1.791   8.074  0.00  0.00    +0.000 C 
BRANCH   9  10
ATOM     10  O   UNL     1      46.484   0.476   8.026  0.00  0.00    +0.000 OA
ATOM     11  H   UNL     1      45.748  -0.120   8.289  0.00  0.00    +0.000 HD
ENDBRANCH   9  10
ENDBRANCH   7   9
ENDBRANCH   1   7
BRANCH   4  12
ATOM     12  C   UNL     1      44.930   5.842  12.905  0.00  0.00    +0.000 C 
BRANCH  12  13
ATOM     13  N   UNL     1      46.192   6.551  12.985  0.00  0.00    +0.000 N 
ATOM     14  C   UNL     1      47.489   5.867  12.941  0.00  0.00    +0.000 C 
ATOM     15  C   UNL     1      48.577   6.955  12.981  0.00  0.00    +0.000 C 
ATOM     16  C   UNL     1      47.797   8.149  12.536  0.00  0.00    +0.000 A 
ATOM     17  C   UNL     1      48.282   9.401  12.190  0.00  0.00    +0.000 A 
ATOM     18  C   UNL     1      47.360  10.395  11.871  0.00  0.00    +0.000 A 
ATOM     19  C   UNL     1      45.985  10.123  11.917  0.00  0.00    +0.000 A 
ATOM     20  C   UNL     1      45.515   8.854  12.279  0.00  0.00    +0.000 A 
ATOM     21  C   UNL     1      46.427   7.856  12.579  0.00  0.00    +0.000 A 
ENDBRANCH  12  13
ENDBRANCH   4  12
TORSDOF 5
ENDMDL
MODEL 8
REMARK VINA RESULT:    -5.741      3.317      6.069
REMARK INTER + INTRA:          -7.887
REMARK INTER:                  -7.209
REMARK INTRA:                  -0.678
REMARK UNBOUND:                -0.636
REMARK  Name = 
REMARK  5 active torsions:
REMARK  status: ('A' for Active; 'I' for Inactive)
REMARK    1  A    between atoms: C_2  and  O_3
REMARK    2  A    between atoms: C_2  and  C_4
REMARK    3  A    between atoms: C_4  and  C_5
REMARK    4  A    between atoms: C_8  and  C_9
REMARK    5  A    between atoms: C_9  and  N_10
REMARK                            x       y       z     vdW  Elec       q    Type
REMARK                         _______ _______ _______ _____ _____    ______ ____
ROOT
ATOM      1  C   UNL     1      48.975   7.648  12.834  0.00  0.00    +0.000 A 
ATOM      2  N   UNL     1      48.613   6.398  13.160  0.00  0.00    +0.000 NA
ATOM      3  C   UNL     1      47.308   6.087  13.001  0.00  0.00    +0.000 A 
ATOM      4  C   UNL     1      46.351   6.968  12.544  0.00  0.00    +0.000 A 
ATOM      5  C   UNL     1      46.838   8.214  12.213  0.00  0.00    +0.000 A 
ATOM      6  N   UNL     1      48.142   8.566  12.304  0.00  0.00    +0.000 NA
ENDROOT
BRANCH   1   7
ATOM      7  C   UNL     1      50.401   8.059  13.045  0.00  0.00    +0.000 C 
BRANCH   7   9
ATOM      8  O   UNL     1      51.929   7.890  11.207  0.00  0.00    +0.000 OA
ATOM      9  C   UNL     1      51.077   8.547  11.796  0.00  0.00    +0.000 C 
BRANCH   9  10
ATOM     10  O   UNL     1      50.781   9.811  11.415  0.00  0.00    +0.000 OA
ATOM     11  H   UNL     1      50.670   9.922  10.445  0.00  0.00    +0.000 HD
ENDBRANCH   9  10
ENDBRANCH   7   9
ENDBRANCH   1   7
BRANCH   4  12
ATOM     12  C   UNL     1      44.906   6.593  12.419  0.00  0.00    +0.000 C 
BRANCH  12  13
ATOM     13  N   UNL     1      44.694   5.208  12.048  0.00  0.00    +0.000 N 
ATOM     14  C   UNL     1      43.740   4.339  12.746  0.00  0.00    +0.000 C 
ATOM     15  C   UNL     1      43.750   2.980  12.022  0.00  0.00    +0.000 C 
ATOM     16  C   UNL     1      44.321   3.372  10.698  0.00  0.00    +0.000 A 
ATOM     17  C   UNL     1      44.397   2.606   9.545  0.00  0.00    +0.000 A 
ATOM     18  C   UNL     1      45.040   3.153   8.436  0.00  0.00    +0.000 A 
ATOM     19  C   UNL     1      45.599   4.438   8.509  0.00  0.00    +0.000 A 
ATOM     20  C   UNL     1      45.520   5.191   9.687  0.00  0.00    +0.000 A 
ATOM     21  C   UNL     1      44.866   4.660  10.786  0.00  0.00    +0.000 A 
ENDBRANCH  12  13
ENDBRANCH   4  12
TORSDOF 5
ENDMDL
MODEL 9
REMARK VINA RESULT:    -5.696      5.269      7.738
REMARK INTER + INTRA:          -7.830
REMARK INTER:                  -7.046
REMARK INTRA:                  -0.784
REMARK UNBOUND:                -0.636
REMARK  Name = 
REMARK  5 active torsions:
REMARK  status: ('A' for Active; 'I' for Inactive)
REMARK    1  A    between atoms: C_2  and  O_3
REMARK    2  A    between atoms: C_2  and  C_4
REMARK    3  A    between atoms: C_4  and  C_5
REMARK    4  A    between atoms: C_8  and  C_9
REMARK    5  A    between atoms: C_9  and  N_10
REMARK                            x       y       z     vdW  Elec       q    Type
REMARK                         _______ _______ _______ _____ _____    ______ ____
ROOT
ATOM      1  C   UNL     1      47.054   4.904  14.174  0.00  0.00    +0.000 A 
ATOM      2  N   UNL     1      47.882   5.919  14.467  0.00  0.00    +0.000 NA
ATOM      3  C   UNL     1      48.509   5.861  15.661  0.00  0.00    +0.000 A 
ATOM      4  C   UNL     1      48.339   4.845  16.578  0.00  0.00    +0.000 A 
ATOM      5  C   UNL     1      47.489   3.842  16.164  0.00  0.00    +0.000 A 
ATOM      6  N   UNL     1      46.873   3.823  14.959  0.00  0.00    +0.000 NA
ENDROOT
BRANCH   1   7
ATOM      7  C   UNL     1      46.293   4.950  12.885  0.00  0.00    +0.000 C 
BRANCH   7   9
ATOM      8  O   UNL     1      43.991   4.322  13.106  0.00  0.00    +0.000 OA
ATOM      9  C   UNL     1      45.140   3.989  12.833  0.00  0.00    +0.000 C 
BRANCH   9  10
ATOM     10  O   UNL     1      45.452   2.698  12.580  0.00  0.00    +0.000 OA
ATOM     11  H   UNL     1      45.981   2.267  13.288  0.00  0.00    +0.000 HD
ENDBRANCH   9  10
ENDBRANCH   7   9
ENDBRANCH   1   7
BRANCH   4  12
ATOM     12  C   UNL     1      49.026   4.839  17.910  0.00  0.00    +0.000 C 
BRANCH  12  13
ATOM     13  N   UNL     1      50.466   4.691  17.822  0.00  0.00    +0.000 N 
ATOM     14  C   UNL     1      51.398   5.681  18.375  0.00  0.00    +0.000 C 
ATOM     15  C   UNL     1      52.821   5.138  18.147  0.00  0.00    +0.000 C 
ATOM     16  C   UNL     1      52.540   3.685  17.949  0.00  0.00    +0.000 A 
ATOM     17  C   UNL     1      53.452   2.643  17.891  0.00  0.00    +0.000 A 
ATOM     18  C   UNL     1      52.969   1.363  17.626  0.00  0.00    +0.000 A 
ATOM     19  C   UNL     1      51.598   1.157  17.413  0.00  0.00    +0.000 A 
ATOM     20  C   UNL     1      50.694   2.226  17.466  0.00  0.00    +0.000 A 
ATOM     21  C   UNL     1      51.165   3.497  17.749  0.00  0.00    +0.000 A 
ENDBRANCH  12  13
ENDBRANCH   4  12
TORSDOF 5
ENDMDL
