MODEL 1
REMARK VINA RESULT:    -7.690      0.000      0.000
REMARK INTER + INTRA:         -10.201
REMARK INTER:                  -9.713
REMARK INTRA:                  -0.488
REMARK UNBOUND:                -0.488
REMARK  Name = 
REMARK  5 active torsions:
REMARK  status: ('A' for Active; 'I' for Inactive)
REMARK    1  A    between atoms: N_1  and  C_2
REMARK    2  A    between atoms: C_2  and  C_3
REMARK    3  A    between atoms: C_3  and  C_4
REMARK    4  A    between atoms: C_7  and  C_8
REMARK    5  A    between atoms: C_8  and  N_9
REMARK                            x       y       z     vdW  Elec       q    Type
REMARK                         _______ _______ _______ _____ _____    ______ ____
ROOT
ATOM      1  C   UNL     1      45.994   2.340   8.206  0.00  0.00    +0.000 A 
ATOM      2  C   UNL     1      46.039   3.720   8.033  0.00  0.00    +0.000 A 
ATOM      3  C   UNL     1      45.211   4.525   8.811  0.00  0.00    +0.000 A 
ATOM      4  C   UNL     1      44.361   3.935   9.749  0.00  0.00    +0.000 A 
ATOM      5  C   UNL     1      44.380   2.552   9.850  0.00  0.00    +0.000 A 
ATOM      6  N   UNL     1      45.169   1.748   9.102  0.00  0.00    +0.000 NA
ENDROOT
BRANCH   1   7
ATOM      7  C   UNL     1      46.824   1.432   7.343  0.00  0.00    +0.000 C 
BRANCH   7   8
ATOM      8  C   UNL     1      48.046   2.190   6.814  0.00  0.00    +0.000 C 
BRANCH   8   9
ATOM      9  N   UNL     1      48.370   1.799   5.439  0.00  0.00    +0.000 NA
ATOM     10  H   UNL     1      49.327   1.448   5.418  0.00  0.00    +0.000 HD
ATOM     11  H   UNL     1      48.365   2.631   4.850  0.00  0.00    +0.000 HD
ENDBRANCH   8   9
ENDBRANCH   7   8
ENDBRANCH   1   7
BRANCH   4  12
ATOM     12  C   UNL     1      43.509   4.762  10.663  0.00  0.00    +0.000 C 
BRANCH  12  13
ATOM     13  N   UNL     1      44.261   5.601  11.582  0.00  0.00    +0.000 N 
ATOM     14  C   UNL     1      44.379   6.959  11.457  0.00  0.00    +0.000 A 
ATOM     15  N   UNL     1      45.493   7.401  11.994  0.00  0.00    +0.000 NA
ATOM     16  C   UNL     1      46.082   6.297  12.564  0.00  0.00    +0.000 A 
ATOM     17  C   UNL     1      47.312   6.158  13.214  0.00  0.00    +0.000 A 
ATOM     18  N   UNL     1      47.673   4.961  13.752  0.00  0.00    +0.000 NA
ATOM     19  C   UNL     1      46.815   3.919  13.655  0.00  0.00    +0.000 A 
ATOM     20  C   UNL     1      45.596   3.942  12.989  0.00  0.00    +0.000 A 
ATOM     21  C   UNL     1      45.271   5.172  12.415  0.00  0.00    +0.000 A 
ENDBRANCH  12  13
ENDBRANCH   4  12
TORSDOF 5
ENDMDL
MODEL 2
REMARK VINA RESULT:    -6.730      1.713      6.189
REMARK INTER + INTRA:          -8.988
REMARK INTER:                  -8.736
REMARK INTRA:                  -0.252
REMARK UNBOUND:                -0.488
REMARK  Name = 
REMARK  5 active torsions:
REMARK  status: ('A' for Active; 'I' for Inactive)
REMARK    1  A    between atoms: N_1  and  C_2
REMARK    2  A    between atoms: C_2  and  C_3
REMARK    3  A    between atoms: C_3  and  C_4
REMARK    4  A    between atoms: C_7  and  C_8
REMARK    5  A    between atoms: C_8  and  N_9
REMARK                            x       y       z     vdW  Elec       q    Type
REMARK                         _______ _______ _______ _____ _____    ______ ____
ROOT
ATOM      1  C   UNL     1      47.200   5.094  14.727  0.00  0.00    +0.000 A 
ATOM      2  C   UNL     1      47.518   6.207  13.956  0.00  0.00    +0.000 A 
ATOM      3  C   UNL     1      46.757   6.483  12.823  0.00  0.00    +0.000 A 
ATOM      4  C   UNL     1      45.689   5.645  12.490  0.00  0.00    +0.000 A 
ATOM      5  C   UNL     1      45.448   4.557  13.315  0.00  0.00    +0.000 A 
ATOM      6  N   UNL     1      46.177   4.264  14.416  0.00  0.00    +0.000 NA
ENDROOT
BRANCH   1   7
ATOM      7  C   UNL     1      48.036   4.725  15.920  0.00  0.00    +0.000 C 
BRANCH   7   8
ATOM      8  C   UNL     1      47.686   3.307  16.382  0.00  0.00    +0.000 C 
BRANCH   8   9
ATOM      9  N   UNL     1      46.698   3.319  17.465  0.00  0.00    +0.000 NA
ATOM     10  H   UNL     1      47.029   3.941  18.200  0.00  0.00    +0.000 HD
ATOM     11  H   UNL     1      46.656   2.390  17.883  0.00  0.00    +0.000 HD
ENDBRANCH   8   9
ENDBRANCH   7   8
ENDBRANCH   1   7
BRANCH   4  12
ATOM     12  C   UNL     1      44.793   5.943  11.328  0.00  0.00    +0.000 C 
BRANCH  12  13
ATOM     13  N   UNL     1      44.313   4.763  10.627  0.00  0.00    +0.000 N 
ATOM     14  C   UNL     1      43.435   3.858  11.162  0.00  0.00    +0.000 A 
ATOM     15  N   UNL     1      43.590   2.664  10.640  0.00  0.00    +0.000 NA
ATOM     16  C   UNL     1      44.550   2.817   9.666  0.00  0.00    +0.000 A 
ATOM     17  C   UNL     1      45.159   1.872   8.835  0.00  0.00    +0.000 A 
ATOM     18  N   UNL     1      46.061   2.265   7.896  0.00  0.00    +0.000 NA
ATOM     19  C   UNL     1      46.346   3.582   7.777  0.00  0.00    +0.000 A 
ATOM     20  C   UNL     1      45.834   4.590   8.585  0.00  0.00    +0.000 A 
ATOM     21  C   UNL     1      44.940   4.152   9.563  0.00  0.00    +0.000 A 
ENDBRANCH  12  13
ENDBRANCH   4  12
TORSDOF 5
ENDMDL
MODEL 3
REMARK VINA RESULT:    -6.610      1.453      6.070
REMARK INTER + INTRA:          -8.836
REMARK INTER:                  -8.390
REMARK INTRA:                  -0.446
REMARK UNBOUND:                -0.488
REMARK  Name = 
REMARK  5 active torsions:
REMARK  status: ('A' for Active; 'I' for Inactive)
REMARK    1  A    between atoms: N_1  and  C_2
REMARK    2  A    between atoms: C_2  and  C_3
REMARK    3  A    between atoms: C_3  and  C_4
REMARK    4  A    between atoms: C_7  and  C_8
REMARK    5  A    between atoms: C_8  and  N_9
REMARK                            x       y       z     vdW  Elec       q    Type
REMARK                         _______ _______ _______ _____ _____    ______ ____
ROOT
ATOM      1  C   UNL     1      45.843   5.264  12.796  0.00  0.00    +0.000 A 
ATOM      2  C   UNL     1      46.330   6.021  11.736  0.00  0.00    +0.000 A 
ATOM      3  C   UNL     1      45.919   5.714  10.441  0.00  0.00    +0.000 A 
ATOM      4  C   UNL     1      45.026   4.660  10.234  0.00  0.00    +0.000 A 
ATOM      5  C   UNL     1      44.596   3.957  11.350  0.00  0.00    +0.000 A 
ATOM      6  N   UNL     1      44.985   4.232  12.616  0.00  0.00    +0.000 NA
ENDROOT
BRANCH   1   7
ATOM      7  C   UNL     1      46.311   5.522  14.200  0.00  0.00    +0.000 C 
BRANCH   7   8
ATOM      8  C   UNL     1      47.568   4.697  14.490  0.00  0.00    +0.000 C 
BRANCH   8   9
ATOM      9  N   UNL     1      47.337   3.265  14.278  0.00  0.00    +0.000 NA
ATOM     10  H   UNL     1      48.228   2.820  14.067  0.00  0.00    +0.000 HD
ATOM     11  H   UNL     1      46.761   3.144  13.445  0.00  0.00    +0.000 HD
ENDBRANCH   8   9
ENDBRANCH   7   8
ENDBRANCH   1   7
BRANCH   4  12
ATOM     12  C   UNL     1      44.494   4.340   8.871  0.00  0.00    +0.000 C 
BRANCH  12  13
ATOM     13  N   UNL     1      44.901   3.040   8.362  0.00  0.00    +0.000 N 
ATOM     14  C   UNL     1      44.590   1.850   8.965  0.00  0.00    +0.000 A 
ATOM     15  N   UNL     1      45.481   0.924   8.700  0.00  0.00    +0.000 NA
ATOM     16  C   UNL     1      46.363   1.512   7.823  0.00  0.00    +0.000 A 
ATOM     17  C   UNL     1      47.543   1.021   7.256  0.00  0.00    +0.000 A 
ATOM     18  N   UNL     1      48.238   1.772   6.360  0.00  0.00    +0.000 NA
ATOM     19  C   UNL     1      47.759   2.992   6.022  0.00  0.00    +0.000 A 
ATOM     20  C   UNL     1      46.626   3.587   6.564  0.00  0.00    +0.000 A 
ATOM     21  C   UNL     1      45.955   2.808   7.508  0.00  0.00    +0.000 A 
ENDBRANCH  12  13
ENDBRANCH   4  12
TORSDOF 5
ENDMDL
MODEL 4
REMARK VINA RESULT:    -6.302      1.650      2.509
REMARK INTER + INTRA:          -8.447
REMARK INTER:                  -7.767
REMARK INTRA:                  -0.680
REMARK UNBOUND:                -0.488
REMARK  Name = 
REMARK  5 active torsions:
REMARK  status: ('A' for Active; 'I' for Inactive)
REMARK    1  A    between atoms: N_1  and  C_2
REMARK    2  A    between atoms: C_2  and  C_3
REMARK    3  A    between atoms: C_3  and  C_4
REMARK    4  A    between atoms: C_7  and  C_8
REMARK    5  A    between atoms: C_8  and  N_9
REMARK                            x       y       z     vdW  Elec       q    Type
REMARK                         _______ _______ _______ _____ _____    ______ ____
ROOT
ATOM      1  C   UNL     1      45.764   3.218   7.453  0.00  0.00    +0.000 A 
ATOM      2  C   UNL     1      44.957   2.633   8.424  0.00  0.00    +0.000 A 
ATOM      3  C   UNL     1      44.708   3.328   9.605  0.00  0.00    +0.000 A 
ATOM      4  C   UNL     1      45.266   4.596   9.788  0.00  0.00    +0.000 A 
ATOM      5  C   UNL     1      46.061   5.098   8.769  0.00  0.00    +0.000 A 
ATOM      6  N   UNL     1      46.323   4.440   7.616  0.00  0.00    +0.000 NA
ENDROOT
BRANCH   1   7
ATOM      7  C   UNL     1      46.108   2.475   6.193  0.00  0.00    +0.000 C 
BRANCH   7   8
ATOM      8  C   UNL     1      47.382   3.059   5.577  0.00  0.00    +0.000 C 
BRANCH   8   9
ATOM      9  N   UNL     1      48.587   2.508   6.204  0.00  0.00    +0.000 NA
ATOM     10  H   UNL     1      49.308   2.408   5.491  0.00  0.00    +0.000 HD
ATOM     11  H   UNL     1      48.386   1.563   6.531  0.00  0.00    +0.000 HD
ENDBRANCH   8   9
ENDBRANCH   7   8
ENDBRANCH   1   7
BRANCH   4  12
ATOM     12  C   UNL     1      44.966   5.415  11.004  0.00  0.00    +0.000 C 
BRANCH  12  13
ATOM     13  N   UNL     1      45.949   5.285  12.069  0.00  0.00    +0.000 N 
ATOM     14  C   UNL     1      45.767   4.519  13.189  0.00  0.00    +0.000 A 
ATOM     15  N   UNL     1      46.457   4.978  14.208  0.00  0.00    +0.000 NA
ATOM     16  C   UNL     1      47.182   6.034  13.707  0.00  0.00    +0.000 A 
ATOM     17  C   UNL     1      48.036   6.935  14.349  0.00  0.00    +0.000 A 
ATOM     18  N   UNL     1      48.696   7.885  13.633  0.00  0.00    +0.000 NA
ATOM     19  C   UNL     1      48.517   7.931  12.293  0.00  0.00    +0.000 A 
ATOM     20  C   UNL     1      47.654   7.117  11.570  0.00  0.00    +0.000 A 
ATOM     21  C   UNL     1      46.963   6.177  12.337  0.00  0.00    +0.000 A 
ENDBRANCH  12  13
ENDBRANCH   4  12
TORSDOF 5
ENDMDL
MODEL 5
REMARK VINA RESULT:    -6.286      1.712      5.953
REMARK INTER + INTRA:          -8.427
REMARK INTER:                  -7.677
REMARK INTRA:                  -0.750
REMARK UNBOUND:                -0.488
REMARK  Name = 
REMARK  5 active torsions:
REMARK  status: ('A' for Active; 'I' for Inactive)
REMARK    1  A    between atoms: N_1  and  C_2
REMARK    2  A    between atoms: C_2  and  C_3
REMARK    3  A    between atoms: C_3  and  C_4
REMARK    4  A    between atoms: C_7  and  C_8
REMARK    5  A    between atoms: C_8  and  N_9
REMARK                            x       y       z     vdW  Elec       q    Type
REMARK                         _______ _______ _______ _____ _____    ______ ____
ROOT
ATOM      1  C   UNL     1      47.693   6.544  13.282  0.00  0.00    +0.000 A 
ATOM      2  C   UNL     1      47.435   7.256  12.115  0.00  0.00    +0.000 A 
ATOM      3  C   UNL     1      46.220   7.065  11.462  0.00  0.00    +0.000 A 
ATOM      4  C   UNL     1      45.285   6.172  11.993  0.00  0.00    +0.000 A 
ATOM      5  C   UNL     1      45.630   5.504  13.158  0.00  0.00    +0.000 A 
ATOM      6  N   UNL     1      46.805   5.667  13.807  0.00  0.00    +0.000 NA
ENDROOT
BRANCH   1   7
ATOM      7  C   UNL     1      49.016   6.673  13.981  0.00  0.00    +0.000 C 
BRANCH   7   8
ATOM      8  C   UNL     1      48.801   6.727  15.497  0.00  0.00    +0.000 C 
BRANCH   8   9
ATOM      9  N   UNL     1      48.741   5.384  16.082  0.00  0.00    +0.000 NA
ATOM     10  H   UNL     1      48.353   4.745  15.390  0.00  0.00    +0.000 HD
ATOM     11  H   UNL     1      48.079   5.391  16.857  0.00  0.00    +0.000 HD
ENDBRANCH   8   9
ENDBRANCH   7   8
ENDBRANCH   1   7
BRANCH   4  12
ATOM     12  C   UNL     1      43.934   5.990  11.372  0.00  0.00    +0.000 C 
BRANCH  12  13
ATOM     13  N   UNL     1      43.717   4.674  10.793  0.00  0.00    +0.000 N 
ATOM     14  C   UNL     1      43.098   3.642  11.447  0.00  0.00    +0.000 A 
ATOM     15  N   UNL     1      43.506   2.475  11.009  0.00  0.00    +0.000 NA
ATOM     16  C   UNL     1      44.364   2.758   9.971  0.00  0.00    +0.000 A 
ATOM     17  C   UNL     1      45.143   1.909   9.179  0.00  0.00    +0.000 A 
ATOM     18  N   UNL     1      45.889   2.415   8.160  0.00  0.00    +0.000 NA
ATOM     19  C   UNL     1      45.852   3.747   7.925  0.00  0.00    +0.000 A 
ATOM     20  C   UNL     1      45.152   4.677   8.683  0.00  0.00    +0.000 A 
ATOM     21  C   UNL     1      44.426   4.133   9.744  0.00  0.00    +0.000 A 
ENDBRANCH  12  13
ENDBRANCH   4  12
TORSDOF 5
ENDMDL
MODEL 6
REMARK VINA RESULT:    -5.819      1.768      3.183
REMARK INTER + INTRA:          -7.837
REMARK INTER:                  -7.481
REMARK INTRA:                  -0.356
REMARK UNBOUND:                -0.488
REMARK  Name = 
REMARK  5 active torsions:
REMARK  status: ('A' for Active; 'I' for Inactive)
REMARK    1  A    between atoms: N_1  and  C_2
REMARK    2  A    between atoms: C_2  and  C_3
REMARK    3  A    between atoms: C_3  and  C_4
REMARK    4  A    between atoms: C_7  and  C_8
REMARK    5  A    between atoms: C_8  and  N_9
REMARK                            x       y       z     vdW  Elec       q    Type
REMARK                         _______ _______ _______ _____ _____    ______ ____
ROOT
ATOM      1  C   UNL     1      45.695   3.150   7.843  0.00  0.00    +0.000 A 
ATOM      2  C   UNL     1      44.769   2.551   8.692  0.00  0.00    +0.000 A 
ATOM      3  C   UNL     1      44.332   3.249   9.815  0.00  0.00    +0.000 A 
ATOM      4  C   UNL     1      44.824   4.534  10.062  0.00  0.00    +0.000 A 
ATOM      5  C   UNL     1      45.746   5.049   9.164  0.00  0.00    +0.000 A 
ATOM      6  N   UNL     1      46.192   4.389   8.071  0.00  0.00    +0.000 NA
ENDROOT
BRANCH   1   7
ATOM      7  C   UNL     1      46.240   2.407   6.657  0.00  0.00    +0.000 C 
BRANCH   7   8
ATOM      8  C   UNL     1      47.602   2.983   6.262  0.00  0.00    +0.000 C 
BRANCH   8   9
ATOM      9  N   UNL     1      48.528   1.933   5.827  0.00  0.00    +0.000 NA
ATOM     10  H   UNL     1      49.368   1.982   6.403  0.00  0.00    +0.000 HD
ATOM     11  H   UNL     1      48.831   2.134   4.874  0.00  0.00    +0.000 HD
ENDBRANCH   8   9
ENDBRANCH   7   8
ENDBRANCH   1   7
BRANCH   4  12
ATOM     12  C   UNL     1      44.326   5.355  11.211  0.00  0.00    +0.000 C 
BRANCH  12  13
ATOM     13  N   UNL     1      45.183   6.479  11.555  0.00  0.00    +0.000 N 
ATOM     14  C   UNL     1      46.265   6.389  12.390  0.00  0.00    +0.000 A 
ATOM     15  N   UNL     1      46.514   7.531  12.987  0.00  0.00    +0.000 NA
ATOM     16  C   UNL     1      45.608   8.421  12.457  0.00  0.00    +0.000 A 
ATOM     17  C   UNL     1      45.365   9.763  12.767  0.00  0.00    +0.000 A 
ATOM     18  N   UNL     1      44.439  10.472  12.067  0.00  0.00    +0.000 NA
ATOM     19  C   UNL     1      43.771   9.857  11.063  0.00  0.00    +0.000 A 
ATOM     20  C   UNL     1      43.904   8.519  10.712  0.00  0.00    +0.000 A 
ATOM     21  C   UNL     1      44.833   7.808  11.472  0.00  0.00    +0.000 A 
ENDBRANCH  12  13
ENDBRANCH   4  12
TORSDOF 5
ENDMDL
MODEL 7
REMARK VINA RESULT:    -5.603      2.114      3.453
REMARK INTER + INTRA:          -7.565
REMARK INTER:                  -7.123
REMARK INTRA:                  -0.442
REMARK UNBOUND:                -0.488
REMARK  Name = 
REMARK  5 active torsions:
REMARK  status: ('A' for Active; 'I' for Inactive)
REMARK    1  A    between atoms: N_1  and  C_2
REMARK    2  A    between atoms: C_2  and  C_3
REMARK    3  A    between atoms: C_3  and  C_4
REMARK    4  A    between atoms: C_7  and  C_8
REMARK    5  A    between atoms: C_8  and  N_9
REMARK                            x       y       z     vdW  Elec       q    Type
REMARK                         _______ _______ _______ _____ _____    ______ ____
ROOT
ATOM      1  C   UNL     1      44.920   3.218   9.835  0.00  0.00    +0.000 A 
ATOM      2  C   UNL     1      45.283   4.513   9.478  0.00  0.00    +0.000 A 
ATOM      3  C   UNL     1      45.378   5.486  10.470  0.00  0.00    +0.000 A 
ATOM      4  C   UNL     1      45.114   5.143  11.798  0.00  0.00    +0.000 A 
ATOM      5  C   UNL     1      44.755   3.829  12.061  0.00  0.00    +0.000 A 
ATOM      6  N   UNL     1      44.650   2.868  11.115  0.00  0.00    +0.000 NA
ENDROOT
BRANCH   1   7
ATOM      7  C   UNL     1      44.745   2.155   8.788  0.00  0.00    +0.000 C 
BRANCH   7   8
ATOM      8  C   UNL     1      46.065   1.934   8.045  0.00  0.00    +0.000 C 
BRANCH   8   9
ATOM      9  N   UNL     1      46.442   0.517   8.023  0.00  0.00    +0.000 NA
ATOM     10  H   UNL     1      47.272   0.410   7.441  0.00  0.00    +0.000 HD
ATOM     11  H   UNL     1      45.706  -0.013   7.559  0.00  0.00    +0.000 HD
ENDBRANCH   8   9
ENDBRANCH   7   8
ENDBRANCH   1   7
BRANCH   4  12
ATOM     12  C   UNL     1      45.278   6.132  12.910  0.00  0.00    +0.000 C 
BRANCH  12  13
ATOM     13  N   UNL     1      46.659   6.359  13.308  0.00  0.00    +0.000 N 
ATOM     14  C   UNL     1      47.370   5.516  14.120  0.00  0.00    +0.000 A 
ATOM     15  N   UNL     1      48.307   6.154  14.780  0.00  0.00    +0.000 NA
ATOM     16  C   UNL     1      48.259   7.449  14.317  0.00  0.00    +0.000 A 
ATOM     17  C   UNL     1      48.978   8.581  14.708  0.00  0.00    +0.000 A 
ATOM     18  N   UNL     1      48.797   9.766  14.065  0.00  0.00    +0.000 NA
ATOM     19  C   UNL     1      47.919   9.821  13.037  0.00  0.00    +0.000 A 
ATOM     20  C   UNL     1      47.122   8.768  12.605  0.00  0.00    +0.000 A 
ATOM     21  C   UNL     1      47.303   7.576  13.309  0.00  0.00    +0.000 A 
ENDBRANCH  12  13
ENDBRANCH   4  12
TORSDOF 5
ENDMDL
MODEL 8
REMARK VINA RESULT:    -5.497      1.920      2.713
REMARK INTER + INTRA:          -7.431
REMARK INTER:                  -7.120
REMARK INTRA:                  -0.310
REMARK UNBOUND:                -0.488
REMARK  Name = 
REMARK  5 active torsions:
REMARK  status: ('A' for Active; 'I' for Inactive)
REMARK    1  A    between atoms: N_1  and  C_2
REMARK    2  A    between atoms: C_2  and  C_3
REMARK    3  A    between atoms: C_3  and  C_4
REMARK    4  A    between atoms: C_7  and  C_8
REMARK    5  A    between atoms: C_8  and  N_9
REMARK                            x       y       z     vdW  Elec       q    Type
REMARK                         _______ _______ _______ _____ _____    ______ ____
ROOT
ATOM      1  C   UNL     1      45.315   3.757   9.093  0.00  0.00    +0.000 A 
ATOM      2  C   UNL     1      45.670   5.100   9.165  0.00  0.00    +0.000 A 
ATOM      3  C   UNL     1      45.619   5.747  10.398  0.00  0.00    +0.000 A 
ATOM      4  C   UNL     1      45.220   5.036  11.533  0.00  0.00    +0.000 A 
ATOM      5  C   UNL     1      44.881   3.702  11.365  0.00  0.00    +0.000 A 
ATOM      6  N   UNL     1      44.916   3.053  10.179  0.00  0.00    +0.000 NA
ENDROOT
BRANCH   1   7
ATOM      7  C   UNL     1      45.296   3.040   7.773  0.00  0.00    +0.000 C 
BRANCH   7   8
ATOM      8  C   UNL     1      46.578   2.219   7.607  0.00  0.00    +0.000 C 
BRANCH   8   9
ATOM      9  N   UNL     1      46.397   0.836   8.059  0.00  0.00    +0.000 NA
ATOM     10  H   UNL     1      47.298   0.475   8.368  0.00  0.00    +0.000 HD
ATOM     11  H   UNL     1      46.124   0.262   7.262  0.00  0.00    +0.000 HD
ENDBRANCH   8   9
ENDBRANCH   7   8
ENDBRANCH   1   7
BRANCH   4  12
ATOM     12  C   UNL     1      45.224   5.664  12.892  0.00  0.00    +0.000 C 
BRANCH  12  13
ATOM     13  N   UNL     1      45.864   6.969  12.944  0.00  0.00    +0.000 N 
ATOM     14  C   UNL     1      45.210   8.152  12.721  0.00  0.00    +0.000 A 
ATOM     15  N   UNL     1      46.021   9.076  12.263  0.00  0.00    +0.000 NA
ATOM     16  C   UNL     1      47.268   8.497  12.267  0.00  0.00    +0.000 A 
ATOM     17  C   UNL     1      48.500   8.988  11.823  0.00  0.00    +0.000 A 
ATOM     18  N   UNL     1      49.630   8.246  11.974  0.00  0.00    +0.000 NA
ATOM     19  C   UNL     1      49.538   7.035  12.571  0.00  0.00    +0.000 A 
ATOM     20  C   UNL     1      48.359   6.438  12.999  0.00  0.00    +0.000 A 
ATOM     21  C   UNL     1      47.212   7.207  12.796  0.00  0.00    +0.000 A 
ENDBRANCH  12  13
ENDBRANCH   4  12
TORSDOF 5
ENDMDL
MODEL 9
REMARK VINA RESULT:    -5.365      2.903      6.456
REMARK INTER + INTRA:          -7.264
REMARK INTER:                  -7.298
REMARK INTRA:                   0.035
REMARK UNBOUND:                -0.488
REMARK  Name = 
REMARK  5 active torsions:
REMARK  status: ('A' for Active; 'I' for Inactive)
REMARK    1  A    between atoms: N_1  and  C_2
REMARK    2  A    between atoms: C_2  and  C_3
REMARK    3  A    between atoms: C_3  and  C_4
REMARK    4  A    between atoms: C_7  and  C_8
REMARK    5  A    between atoms: C_8  and  N_9
REMARK                            x       y       z     vdW  Elec       q    Type
REMARK                         _______ _______ _______ _____ _____    ______ ____
ROOT
ATOM      1  C   UNL     1      48.063   5.191  15.645  0.00  0.00    +0.000 A 
ATOM      2  C   UNL     1      47.101   4.497  14.919  0.00  0.00    +0.000 A 
ATOM      3  C   UNL     1      46.768   4.940  13.642  0.00  0.00    +0.000 A 
ATOM      4  C   UNL     1      47.409   6.065  13.115  0.00  0.00    +0.000 A 
ATOM      5  C   UNL     1      48.352   6.696  13.912  0.00  0.00    +0.000 A 
ATOM      6  N   UNL     1      48.688   6.289  15.157  0.00  0.00    +0.000 NA
ENDROOT
BRANCH   1   7
ATOM      7  C   UNL     1      48.405   4.783  17.050  0.00  0.00    +0.000 C 
BRANCH   7   8
ATOM      8  C   UNL     1      47.122   4.484  17.832  0.00  0.00    +0.000 C 
BRANCH   8   9
ATOM      9  N   UNL     1      46.784   3.059  17.792  0.00  0.00    +0.000 NA
ATOM     10  H   UNL     1      45.953   2.938  17.215  0.00  0.00    +0.000 HD
ATOM     11  H   UNL     1      46.519   2.756  18.729  0.00  0.00    +0.000 HD
ENDBRANCH   8   9
ENDBRANCH   7   8
ENDBRANCH   1   7
BRANCH   4  12
ATOM     12  C   UNL     1      47.144   6.535  11.718  0.00  0.00    +0.000 C 
BRANCH  12  13
ATOM     13  N   UNL     1      45.743   6.488  11.329  0.00  0.00    +0.000 N 
ATOM     14  C   UNL     1      44.847   7.495  11.572  0.00  0.00    +0.000 A 
ATOM     15  N   UNL     1      43.620   7.040  11.671  0.00  0.00    +0.000 NA
ATOM     16  C   UNL     1      43.711   5.695  11.397  0.00  0.00    +0.000 A 
ATOM     17  C   UNL     1      42.734   4.695  11.421  0.00  0.00    +0.000 A 
ATOM     18  N   UNL     1      43.046   3.421  11.060  0.00  0.00    +0.000 NA
ATOM     19  C   UNL     1      44.312   3.147  10.668  0.00  0.00    +0.000 A 
ATOM     20  C   UNL     1      45.363   4.056  10.658  0.00  0.00    +0.000 A 
ATOM     21  C   UNL     1      45.021   5.345  11.070  0.00  0.00    +0.000 A 
ENDBRANCH  12  13
ENDBRANCH   4  12
TORSDOF 5
ENDMDL
