MODEL 1
REMARK VINA RESULT:    -8.615      0.000      0.000
REMARK INTER + INTRA:         -12.148
REMARK INTER:                 -11.133
REMARK INTRA:                  -1.015
REMARK UNBOUND:                -1.015
REMARK  Name = 
REMARK  8 active torsions:
REMARK  status: ('A' for Active; 'I' for Inactive)
REMARK    1  A    between atoms: C_1  and  N_2
REMARK    2  A    between atoms: N_5  and  C_6
REMARK    3  A    between atoms: C_10  and  C_11
REMARK    4  A    between atoms: C_11  and  C_12
REMARK    5  A    between atoms: C_11  and  C_13
REMARK    6  A    between atoms: C_11  and  C_14
REMARK    7  A    between atoms: C_14  and  N_15
REMARK    8  A    between atoms: C_19  and  C_20
REMARK                            x       y       z     vdW  Elec       q    Type
REMARK                         _______ _______ _______ _____ _____    ______ ____
ROOT
ATOM      1  C   UNL     1      43.710   5.307  11.995  0.00  0.00    +0.000 C 
ATOM      2  C   UNL     1      43.012   4.831  13.292  0.00  0.00    +0.000 C 
ATOM      3  C   UNL     1      42.989   6.579  11.496  0.00  0.00    +0.000 C 
ENDROOT
BRANCH   1   8
ATOM      4  C   UNL     1      47.101   5.575  13.815  0.00  0.00    +0.000 A 
ATOM      5  C   UNL     1      47.794   6.270  12.826  0.00  0.00    +0.000 A 
ATOM      6  C   UNL     1      47.138   6.637  11.666  0.00  0.00    +0.000 A 
ATOM      7  N   UNL     1      45.854   6.331  11.408  0.00  0.00    +0.000 NA
ATOM      8  C   UNL     1      45.160   5.647  12.352  0.00  0.00    +0.000 A 
ATOM      9  C   UNL     1      45.753   5.302  13.570  0.00  0.00    +0.000 A 
BRANCH   4  14
ATOM     10  C   UNL     1      50.149   3.746  18.124  0.00  0.00    +0.000 C 
ATOM     11  N   UNL     1      49.044   4.444  17.471  0.00  0.00    +0.000 NA
ATOM     12  C   UNL     1      49.566   5.528  16.604  0.00  0.00    +0.000 C 
ATOM     13  C   UNL     1      48.457   6.245  15.799  0.00  0.00    +0.000 C 
ATOM     14  N   UNL     1      47.738   5.241  14.999  0.00  0.00    +0.000 N 
ATOM     15  C   UNL     1      47.131   4.189  15.840  0.00  0.00    +0.000 C 
ATOM     16  C   UNL     1      48.246   3.495  16.656  0.00  0.00    +0.000 C 
ENDBRANCH   4  14
ENDBRANCH   1   8
BRANCH   1  17
ATOM     17  C   UNL     1      43.525   4.180  10.942  0.00  0.00    +0.000 C 
BRANCH  17  18
ATOM     18  N   UNL     1      43.716   4.626   9.560  0.00  0.00    +0.000 N 
ATOM     19  C   UNL     1      44.609   3.833   8.856  0.00  0.00    +0.000 A 
ATOM     20  N   UNL     1      44.634   2.512   9.075  0.00  0.00    +0.000 NA
ATOM     21  C   UNL     1      45.525   1.783   8.383  0.00  0.00    +0.000 A 
ATOM     22  C   UNL     1      46.407   2.326   7.488  0.00  0.00    +0.000 A 
ATOM     23  C   UNL     1      46.314   3.686   7.333  0.00  0.00    +0.000 A 
ATOM     24  N   UNL     1      45.435   4.459   8.003  0.00  0.00    +0.000 NA
ATOM     25  H   UNL     1      44.005   5.588   9.418  0.00  0.00    +0.000 HD
BRANCH  22  26
ATOM     26  C   UNL     1      47.391   1.494   6.748  0.00  0.00    +0.000 C 
ATOM     27  F   UNL     1      48.655   1.590   7.243  0.00  0.00    +0.000 F 
ATOM     28  F   UNL     1      47.081   0.171   6.771  0.00  0.00    +0.000 F 
ATOM     29  F   UNL     1      47.479   1.839   5.435  0.00  0.00    +0.000 F 
ENDBRANCH  22  26
ENDBRANCH  17  18
ENDBRANCH   1  17
TORSDOF 5
ENDMDL
MODEL 2
REMARK VINA RESULT:    -8.293      2.282      2.988
REMARK INTER + INTRA:         -11.732
REMARK INTER:                 -10.595
REMARK INTRA:                  -1.137
REMARK UNBOUND:                -1.015
REMARK  Name = 
REMARK  8 active torsions:
REMARK  status: ('A' for Active; 'I' for Inactive)
REMARK    1  A    between atoms: C_1  and  N_2
REMARK    2  A    between atoms: N_5  and  C_6
REMARK    3  A    between atoms: C_10  and  C_11
REMARK    4  A    between atoms: C_11  and  C_12
REMARK    5  A    between atoms: C_11  and  C_13
REMARK    6  A    between atoms: C_11  and  C_14
REMARK    7  A    between atoms: C_14  and  N_15
REMARK    8  A    between atoms: C_19  and  C_20
REMARK                            x       y       z     vdW  Elec       q    Type
REMARK                         _______ _______ _______ _____ _____    ______ ____
ROOT
ATOM      1  C   UNL     1      44.232   4.447  12.211  0.00  0.00    +0.000 C 
ATOM      2  C   UNL     1      45.342   3.392  12.442  0.00  0.00    +0.000 C 
ATOM      3  C   UNL     1      43.271   4.411  13.420  0.00  0.00    +0.000 C 
ENDROOT
BRANCH   1   8
ATOM      4  C   UNL     1      46.834   7.293  12.325  0.00  0.00    +0.000 A 
ATOM      5  C   UNL     1      46.006   8.326  11.889  0.00  0.00    +0.000 A 
ATOM      6  C   UNL     1      44.676   8.064  11.621  0.00  0.00    +0.000 A 
ATOM      7  N   UNL     1      44.122   6.842  11.722  0.00  0.00    +0.000 NA
ATOM      8  C   UNL     1      44.909   5.819  12.136  0.00  0.00    +0.000 A 
ATOM      9  C   UNL     1      46.247   6.034  12.480  0.00  0.00    +0.000 A 
BRANCH   4  14
ATOM     10  C   UNL     1      51.926   9.123  13.711  0.00  0.00    +0.000 C 
ATOM     11  N   UNL     1      50.941   8.165  13.214  0.00  0.00    +0.000 NA
ATOM     12  C   UNL     1      49.955   7.850  14.276  0.00  0.00    +0.000 C 
ATOM     13  C   UNL     1      48.819   6.919  13.788  0.00  0.00    +0.000 C 
ATOM     14  N   UNL     1      48.157   7.555  12.637  0.00  0.00    +0.000 N 
ATOM     15  C   UNL     1      49.096   7.807  11.525  0.00  0.00    +0.000 C 
ATOM     16  C   UNL     1      50.238   8.719  12.031  0.00  0.00    +0.000 C 
ENDBRANCH   4  14
ENDBRANCH   1   8
BRANCH   1  17
ATOM     17  C   UNL     1      43.453   4.012  10.940  0.00  0.00    +0.000 C 
BRANCH  17  18
ATOM     18  N   UNL     1      43.820   4.763   9.736  0.00  0.00    +0.000 N 
ATOM     19  C   UNL     1      44.709   4.076   8.923  0.00  0.00    +0.000 A 
ATOM     20  N   UNL     1      44.597   2.748   8.798  0.00  0.00    +0.000 NA
ATOM     21  C   UNL     1      45.488   2.120   8.013  0.00  0.00    +0.000 A 
ATOM     22  C   UNL     1      46.499   2.768   7.356  0.00  0.00    +0.000 A 
ATOM     23  C   UNL     1      46.540   4.126   7.548  0.00  0.00    +0.000 A 
ATOM     24  N   UNL     1      45.668   4.801   8.324  0.00  0.00    +0.000 NA
ATOM     25  H   UNL     1      44.203   5.693   9.868  0.00  0.00    +0.000 HD
BRANCH  22  26
ATOM     26  C   UNL     1      47.478   2.043   6.505  0.00  0.00    +0.000 C 
ATOM     27  F   UNL     1      48.768   2.216   6.903  0.00  0.00    +0.000 F 
ATOM     28  F   UNL     1      47.268   0.700   6.493  0.00  0.00    +0.000 F 
ATOM     29  F   UNL     1      47.434   2.443   5.206  0.00  0.00    +0.000 F 
ENDBRANCH  22  26
ENDBRANCH  17  18
ENDBRANCH   1  17
TORSDOF 5
ENDMDL
MODEL 3
REMARK VINA RESULT:    -8.138      2.077      3.570
REMARK INTER + INTRA:         -11.531
REMARK INTER:                 -10.654
REMARK INTRA:                  -0.877
REMARK UNBOUND:                -1.015
REMARK  Name = 
REMARK  8 active torsions:
REMARK  status: ('A' for Active; 'I' for Inactive)
REMARK    1  A    between atoms: C_1  and  N_2
REMARK    2  A    between atoms: N_5  and  C_6
REMARK    3  A    between atoms: C_10  and  C_11
REMARK    4  A    between atoms: C_11  and  C_12
REMARK    5  A    between atoms: C_11  and  C_13
REMARK    6  A    between atoms: C_11  and  C_14
REMARK    7  A    between atoms: C_14  and  N_15
REMARK    8  A    between atoms: C_19  and  C_20
REMARK                            x       y       z     vdW  Elec       q    Type
REMARK                         _______ _______ _______ _____ _____    ______ ____
ROOT
ATOM      1  C   UNL     1      43.817   5.406  12.071  0.00  0.00    +0.000 C 
ATOM      2  C   UNL     1      42.866   5.138  13.262  0.00  0.00    +0.000 C 
ATOM      3  C   UNL     1      43.379   6.721  11.389  0.00  0.00    +0.000 C 
ENDROOT
BRANCH   1   8
ATOM      4  C   UNL     1      47.360   6.727  12.836  0.00  0.00    +0.000 A 
ATOM      5  C   UNL     1      47.714   5.778  13.793  0.00  0.00    +0.000 A 
ATOM      6  C   UNL     1      46.828   4.767  14.109  0.00  0.00    +0.000 A 
ATOM      7  N   UNL     1      45.603   4.654  13.566  0.00  0.00    +0.000 NA
ATOM      8  C   UNL     1      45.231   5.570  12.638  0.00  0.00    +0.000 A 
ATOM      9  C   UNL     1      46.108   6.581  12.234  0.00  0.00    +0.000 A 
BRANCH   4  14
ATOM     10  C   UNL     1      50.826  10.512  10.631  0.00  0.00    +0.000 C 
ATOM     11  N   UNL     1      50.205   9.732  11.699  0.00  0.00    +0.000 NA
ATOM     12  C   UNL     1      48.749  10.006  11.751  0.00  0.00    +0.000 C 
ATOM     13  C   UNL     1      48.008   9.136  12.794  0.00  0.00    +0.000 C 
ATOM     14  N   UNL     1      48.259   7.719  12.482  0.00  0.00    +0.000 N 
ATOM     15  C   UNL     1      49.699   7.391  12.504  0.00  0.00    +0.000 C 
ATOM     16  C   UNL     1      50.432   8.283  11.475  0.00  0.00    +0.000 C 
ENDBRANCH   4  14
ENDBRANCH   1   8
BRANCH   1  17
ATOM     17  C   UNL     1      43.628   4.235  11.068  0.00  0.00    +0.000 C 
BRANCH  17  18
ATOM     18  N   UNL     1      43.762   4.630   9.665  0.00  0.00    +0.000 N 
ATOM     19  C   UNL     1      44.658   3.837   8.964  0.00  0.00    +0.000 A 
ATOM     20  N   UNL     1      44.729   2.527   9.234  0.00  0.00    +0.000 NA
ATOM     21  C   UNL     1      45.621   1.798   8.542  0.00  0.00    +0.000 A 
ATOM     22  C   UNL     1      46.458   2.331   7.599  0.00  0.00    +0.000 A 
ATOM     23  C   UNL     1      46.319   3.679   7.395  0.00  0.00    +0.000 A 
ATOM     24  N   UNL     1      45.438   4.453   8.061  0.00  0.00    +0.000 NA
ATOM     25  H   UNL     1      44.017   5.594   9.476  0.00  0.00    +0.000 HD
BRANCH  22  26
ATOM     26  C   UNL     1      47.444   1.499   6.861  0.00  0.00    +0.000 C 
ATOM     27  F   UNL     1      47.531   0.225   7.330  0.00  0.00    +0.000 F 
ATOM     28  F   UNL     1      47.153   1.391   5.538  0.00  0.00    +0.000 F 
ATOM     29  F   UNL     1      48.705   2.006   6.929  0.00  0.00    +0.000 F 
ENDBRANCH  22  26
ENDBRANCH  17  18
ENDBRANCH   1  17
TORSDOF 5
ENDMDL
MODEL 4
REMARK VINA RESULT:    -7.185      3.752      7.928
REMARK INTER + INTRA:         -10.300
REMARK INTER:                  -9.386
REMARK INTRA:                  -0.914
REMARK UNBOUND:                -1.015
REMARK  Name = 
REMARK  8 active torsions:
REMARK  status: ('A' for Active; 'I' for Inactive)
REMARK    1  A    between atoms: C_1  and  N_2
REMARK    2  A    between atoms: N_5  and  C_6
REMARK    3  A    between atoms: C_10  and  C_11
REMARK    4  A    between atoms: C_11  and  C_12
REMARK    5  A    between atoms: C_11  and  C_13
REMARK    6  A    between atoms: C_11  and  C_14
REMARK    7  A    between atoms: C_14  and  N_15
REMARK    8  A    between atoms: C_19  and  C_20
REMARK                            x       y       z     vdW  Elec       q    Type
REMARK                         _______ _______ _______ _____ _____    ______ ____
ROOT
ATOM      1  C   UNL     1      46.659   8.017  12.490  0.00  0.00    +0.000 C 
ATOM      2  C   UNL     1      47.974   7.913  11.680  0.00  0.00    +0.000 C 
ATOM      3  C   UNL     1      45.973   9.353  12.130  0.00  0.00    +0.000 C 
ENDROOT
BRANCH   1   8
ATOM      4  C   UNL     1      45.228   4.932  10.668  0.00  0.00    +0.000 A 
ATOM      5  C   UNL     1      44.093   4.754  11.457  0.00  0.00    +0.000 A 
ATOM      6  C   UNL     1      43.837   5.637  12.488  0.00  0.00    +0.000 A 
ATOM      7  N   UNL     1      44.646   6.662  12.811  0.00  0.00    +0.000 NA
ATOM      8  C   UNL     1      45.762   6.851  12.064  0.00  0.00    +0.000 A 
ATOM      9  C   UNL     1      46.043   6.026  10.970  0.00  0.00    +0.000 A 
BRANCH   4  14
ATOM     10  C   UNL     1      46.976   1.445   6.670  0.00  0.00    +0.000 C 
ATOM     11  N   UNL     1      46.044   2.352   7.337  0.00  0.00    +0.000 NA
ATOM     12  C   UNL     1      45.686   1.822   8.675  0.00  0.00    +0.000 C 
ATOM     13  C   UNL     1      44.782   2.783   9.483  0.00  0.00    +0.000 C 
ATOM     14  N   UNL     1      45.470   4.078   9.606  0.00  0.00    +0.000 N 
ATOM     15  C   UNL     1      45.768   4.677   8.288  0.00  0.00    +0.000 C 
ATOM     16  C   UNL     1      46.652   3.697   7.482  0.00  0.00    +0.000 C 
ENDBRANCH   4  14
ENDBRANCH   1   8
BRANCH   1  17
ATOM     17  C   UNL     1      47.054   8.046  13.992  0.00  0.00    +0.000 C 
BRANCH  17  18
ATOM     18  N   UNL     1      48.372   7.468  14.267  0.00  0.00    +0.000 N 
ATOM     19  C   UNL     1      48.306   6.315  15.034  0.00  0.00    +0.000 A 
ATOM     20  N   UNL     1      47.295   5.457  14.848  0.00  0.00    +0.000 NA
ATOM     21  C   UNL     1      47.261   4.359  15.622  0.00  0.00    +0.000 A 
ATOM     22  C   UNL     1      48.193   4.093  16.590  0.00  0.00    +0.000 A 
ATOM     23  C   UNL     1      49.186   5.030  16.714  0.00  0.00    +0.000 A 
ATOM     24  N   UNL     1      49.264   6.145  15.958  0.00  0.00    +0.000 NA
ATOM     25  H   UNL     1      49.060   8.071  14.705  0.00  0.00    +0.000 HD
BRANCH  22  26
ATOM     26  C   UNL     1      48.119   2.876  17.440  0.00  0.00    +0.000 C 
ATOM     27  F   UNL     1      48.682   3.043  18.667  0.00  0.00    +0.000 F 
ATOM     28  F   UNL     1      46.841   2.473  17.668  0.00  0.00    +0.000 F 
ATOM     29  F   UNL     1      48.756   1.812  16.881  0.00  0.00    +0.000 F 
ENDBRANCH  22  26
ENDBRANCH  17  18
ENDBRANCH   1  17
TORSDOF 5
ENDMDL
MODEL 5
REMARK VINA RESULT:    -7.179      1.689      2.653
REMARK INTER + INTRA:         -10.292
REMARK INTER:                  -9.762
REMARK INTRA:                  -0.530
REMARK UNBOUND:                -1.015
REMARK  Name = 
REMARK  8 active torsions:
REMARK  status: ('A' for Active; 'I' for Inactive)
REMARK    1  A    between atoms: C_1  and  N_2
REMARK    2  A    between atoms: N_5  and  C_6
REMARK    3  A    between atoms: C_10  and  C_11
REMARK    4  A    between atoms: C_11  and  C_12
REMARK    5  A    between atoms: C_11  and  C_13
REMARK    6  A    between atoms: C_11  and  C_14
REMARK    7  A    between atoms: C_14  and  N_15
REMARK    8  A    between atoms: C_19  and  C_20
REMARK                            x       y       z     vdW  Elec       q    Type
REMARK                         _______ _______ _______ _____ _____    ______ ____
ROOT
ATOM      1  C   UNL     1      45.808   6.179  12.272  0.00  0.00    +0.000 C 
ATOM      2  C   UNL     1      44.995   7.429  12.688  0.00  0.00    +0.000 C 
ATOM      3  C   UNL     1      46.833   6.604  11.197  0.00  0.00    +0.000 C 
ENDROOT
BRANCH   1   8
ATOM      4  C   UNL     1      48.231   5.884  15.260  0.00  0.00    +0.000 A 
ATOM      5  C   UNL     1      47.740   4.691  15.787  0.00  0.00    +0.000 A 
ATOM      6  C   UNL     1      46.701   4.043  15.147  0.00  0.00    +0.000 A 
ATOM      7  N   UNL     1      46.095   4.514  14.043  0.00  0.00    +0.000 NA
ATOM      8  C   UNL     1      46.550   5.678  13.516  0.00  0.00    +0.000 A 
ATOM      9  C   UNL     1      47.637   6.349  14.084  0.00  0.00    +0.000 A 
BRANCH   4  14
ATOM     10  C   UNL     1      52.799   7.692  17.919  0.00  0.00    +0.000 C 
ATOM     11  N   UNL     1      51.512   7.818  17.238  0.00  0.00    +0.000 NA
ATOM     12  C   UNL     1      51.618   7.311  15.849  0.00  0.00    +0.000 C 
ATOM     13  C   UNL     1      50.265   7.319  15.098  0.00  0.00    +0.000 C 
ATOM     14  N   UNL     1      49.300   6.520  15.870  0.00  0.00    +0.000 N 
ATOM     15  C   UNL     1      49.106   7.048  17.236  0.00  0.00    +0.000 C 
ATOM     16  C   UNL     1      50.468   7.057  17.967  0.00  0.00    +0.000 C 
ENDBRANCH   4  14
ENDBRANCH   1   8
BRANCH   1  17
ATOM     17  C   UNL     1      44.805   5.176  11.640  0.00  0.00    +0.000 C 
BRANCH  17  18
ATOM     18  N   UNL     1      44.598   5.374  10.203  0.00  0.00    +0.000 N 
ATOM     19  C   UNL     1      45.152   4.363   9.434  0.00  0.00    +0.000 A 
ATOM     20  N   UNL     1      45.121   3.101   9.882  0.00  0.00    +0.000 NA
ATOM     21  C   UNL     1      45.682   2.154   9.113  0.00  0.00    +0.000 A 
ATOM     22  C   UNL     1      46.289   2.420   7.915  0.00  0.00    +0.000 A 
ATOM     23  C   UNL     1      46.279   3.739   7.540  0.00  0.00    +0.000 A 
ATOM     24  N   UNL     1      45.727   4.725   8.276  0.00  0.00    +0.000 NA
ATOM     25  H   UNL     1      44.916   6.251   9.805  0.00  0.00    +0.000 HD
BRANCH  22  26
ATOM     26  C   UNL     1      46.914   1.351   7.094  0.00  0.00    +0.000 C 
ATOM     27  F   UNL     1      46.497   0.101   7.431  0.00  0.00    +0.000 F 
ATOM     28  F   UNL     1      46.649   1.487   5.767  0.00  0.00    +0.000 F 
ATOM     29  F   UNL     1      48.269   1.334   7.208  0.00  0.00    +0.000 F 
ENDBRANCH  22  26
ENDBRANCH  17  18
ENDBRANCH   1  17
TORSDOF 5
ENDMDL
MODEL 6
REMARK VINA RESULT:    -6.551      3.383      6.313
REMARK INTER + INTRA:          -9.480
REMARK INTER:                  -8.875
REMARK INTRA:                  -0.605
REMARK UNBOUND:                -1.015
REMARK  Name = 
REMARK  8 active torsions:
REMARK  status: ('A' for Active; 'I' for Inactive)
REMARK    1  A    between atoms: C_1  and  N_2
REMARK    2  A    between atoms: N_5  and  C_6
REMARK    3  A    between atoms: C_10  and  C_11
REMARK    4  A    between atoms: C_11  and  C_12
REMARK    5  A    between atoms: C_11  and  C_13
REMARK    6  A    between atoms: C_11  and  C_14
REMARK    7  A    between atoms: C_14  and  N_15
REMARK    8  A    between atoms: C_19  and  C_20
REMARK                            x       y       z     vdW  Elec       q    Type
REMARK                         _______ _______ _______ _____ _____    ______ ____
ROOT
ATOM      1  C   UNL     1      48.099   3.734  16.951  0.00  0.00    +0.000 C 
ATOM      2  C   UNL     1      47.131   2.838  17.762  0.00  0.00    +0.000 C 
ATOM      3  C   UNL     1      47.964   5.184  17.467  0.00  0.00    +0.000 C 
ENDROOT
BRANCH   1   8
ATOM      4  C   UNL     1      51.763   3.456  18.125  0.00  0.00    +0.000 A 
ATOM      5  C   UNL     1      52.012   2.164  17.668  0.00  0.00    +0.000 A 
ATOM      6  C   UNL     1      51.021   1.479  16.992  0.00  0.00    +0.000 A 
ATOM      7  N   UNL     1      49.791   1.976  16.769  0.00  0.00    +0.000 NA
ATOM      8  C   UNL     1      49.521   3.229  17.212  0.00  0.00    +0.000 A 
ATOM      9  C   UNL     1      50.503   3.993  17.850  0.00  0.00    +0.000 A 
BRANCH   4  14
ATOM     10  C   UNL     1      55.211   6.862  20.904  0.00  0.00    +0.000 C 
ATOM     11  N   UNL     1      54.852   5.733  20.049  0.00  0.00    +0.000 NA
ATOM     12  C   UNL     1      53.995   4.780  20.795  0.00  0.00    +0.000 C 
ATOM     13  C   UNL     1      53.490   3.608  19.919  0.00  0.00    +0.000 C 
ATOM     14  N   UNL     1      52.764   4.167  18.767  0.00  0.00    +0.000 N 
ATOM     15  C   UNL     1      53.615   5.058  17.952  0.00  0.00    +0.000 C 
ATOM     16  C   UNL     1      54.132   6.211  18.843  0.00  0.00    +0.000 C 
ENDBRANCH   4  14
ENDBRANCH   1   8
BRANCH   1  17
ATOM     17  C   UNL     1      47.629   3.683  15.471  0.00  0.00    +0.000 C 
BRANCH  17  18
ATOM     18  N   UNL     1      46.862   4.859  15.054  0.00  0.00    +0.000 N 
ATOM     19  C   UNL     1      46.314   4.723  13.788  0.00  0.00    +0.000 A 
ATOM     20  N   UNL     1      45.855   3.529  13.392  0.00  0.00    +0.000 NA
ATOM     21  C   UNL     1      45.346   3.438  12.153  0.00  0.00    +0.000 A 
ATOM     22  C   UNL     1      45.290   4.495  11.283  0.00  0.00    +0.000 A 
ATOM     23  C   UNL     1      45.788   5.675  11.772  0.00  0.00    +0.000 A 
ATOM     24  N   UNL     1      46.307   5.817  13.009  0.00  0.00    +0.000 NA
ATOM     25  H   UNL     1      47.339   5.754  15.072  0.00  0.00    +0.000 HD
BRANCH  22  26
ATOM     26  C   UNL     1      44.733   4.358   9.912  0.00  0.00    +0.000 C 
ATOM     27  F   UNL     1      45.423   5.069   8.979  0.00  0.00    +0.000 F 
ATOM     28  F   UNL     1      44.729   3.072   9.474  0.00  0.00    +0.000 F 
ATOM     29  F   UNL     1      43.446   4.789   9.830  0.00  0.00    +0.000 F 
ENDBRANCH  22  26
ENDBRANCH  17  18
ENDBRANCH   1  17
TORSDOF 5
ENDMDL
MODEL 7
REMARK VINA RESULT:    -6.336      3.416      6.449
REMARK INTER + INTRA:          -9.202
REMARK INTER:                  -8.201
REMARK INTRA:                  -1.001
REMARK UNBOUND:                -1.015
REMARK  Name = 
REMARK  8 active torsions:
REMARK  status: ('A' for Active; 'I' for Inactive)
REMARK    1  A    between atoms: C_1  and  N_2
REMARK    2  A    between atoms: N_5  and  C_6
REMARK    3  A    between atoms: C_10  and  C_11
REMARK    4  A    between atoms: C_11  and  C_12
REMARK    5  A    between atoms: C_11  and  C_13
REMARK    6  A    between atoms: C_11  and  C_14
REMARK    7  A    between atoms: C_14  and  N_15
REMARK    8  A    between atoms: C_19  and  C_20
REMARK                            x       y       z     vdW  Elec       q    Type
REMARK                         _______ _______ _______ _____ _____    ______ ____
ROOT
ATOM      1  C   UNL     1      48.374   4.607  17.265  0.00  0.00    +0.000 C 
ATOM      2  C   UNL     1      49.177   3.297  17.457  0.00  0.00    +0.000 C 
ATOM      3  C   UNL     1      47.944   5.121  18.657  0.00  0.00    +0.000 C 
ENDROOT
BRANCH   1   8
ATOM      4  C   UNL     1      49.758   7.567  15.213  0.00  0.00    +0.000 A 
ATOM      5  C   UNL     1      51.100   7.432  15.564  0.00  0.00    +0.000 A 
ATOM      6  C   UNL     1      51.484   6.398  16.396  0.00  0.00    +0.000 A 
ATOM      7  N   UNL     1      50.624   5.512  16.930  0.00  0.00    +0.000 NA
ATOM      8  C   UNL     1      49.311   5.628  16.610  0.00  0.00    +0.000 A 
ATOM      9  C   UNL     1      48.871   6.617  15.725  0.00  0.00    +0.000 A 
BRANCH   4  14
ATOM     10  C   UNL     1      48.662  11.248  11.156  0.00  0.00    +0.000 C 
ATOM     11  N   UNL     1      48.651  10.719  12.519  0.00  0.00    +0.000 NA
ATOM     12  C   UNL     1      47.926   9.425  12.558  0.00  0.00    +0.000 C 
ATOM     13  C   UNL     1      47.963   8.755  13.952  0.00  0.00    +0.000 C 
ATOM     14  N   UNL     1      49.370   8.574  14.345  0.00  0.00    +0.000 N 
ATOM     15  C   UNL     1      50.102   9.856  14.398  0.00  0.00    +0.000 C 
ATOM     16  C   UNL     1      50.038  10.527  13.006  0.00  0.00    +0.000 C 
ENDBRANCH   4  14
ENDBRANCH   1   8
BRANCH   1  17
ATOM     17  C   UNL     1      47.103   4.244  16.449  0.00  0.00    +0.000 C 
BRANCH  17  18
ATOM     18  N   UNL     1      47.379   3.458  15.244  0.00  0.00    +0.000 N 
ATOM     19  C   UNL     1      46.674   3.904  14.137  0.00  0.00    +0.000 A 
ATOM     20  N   UNL     1      46.469   5.217  13.971  0.00  0.00    +0.000 NA
ATOM     21  C   UNL     1      45.769   5.605  12.892  0.00  0.00    +0.000 A 
ATOM     22  C   UNL     1      45.249   4.729  11.978  0.00  0.00    +0.000 A 
ATOM     23  C   UNL     1      45.502   3.405  12.233  0.00  0.00    +0.000 A 
ATOM     24  N   UNL     1      46.202   2.967  13.299  0.00  0.00    +0.000 NA
ATOM     25  H   UNL     1      47.231   2.456  15.300  0.00  0.00    +0.000 HD
BRANCH  22  26
ATOM     26  C   UNL     1      44.466   5.189  10.802  0.00  0.00    +0.000 C 
ATOM     27  F   UNL     1      43.443   4.354  10.477  0.00  0.00    +0.000 F 
ATOM     28  F   UNL     1      43.902   6.411  10.994  0.00  0.00    +0.000 F 
ATOM     29  F   UNL     1      45.227   5.297   9.680  0.00  0.00    +0.000 F 
ENDBRANCH  22  26
ENDBRANCH  17  18
ENDBRANCH   1  17
TORSDOF 5
ENDMDL
MODEL 8
REMARK VINA RESULT:    -6.266      4.618      8.139
REMARK INTER + INTRA:          -9.112
REMARK INTER:                  -8.132
REMARK INTRA:                  -0.980
REMARK UNBOUND:                -1.015
REMARK  Name = 
REMARK  8 active torsions:
REMARK  status: ('A' for Active; 'I' for Inactive)
REMARK    1  A    between atoms: C_1  and  N_2
REMARK    2  A    between atoms: N_5  and  C_6
REMARK    3  A    between atoms: C_10  and  C_11
REMARK    4  A    between atoms: C_11  and  C_12
REMARK    5  A    between atoms: C_11  and  C_13
REMARK    6  A    between atoms: C_11  and  C_14
REMARK    7  A    between atoms: C_14  and  N_15
REMARK    8  A    between atoms: C_19  and  C_20
REMARK                            x       y       z     vdW  Elec       q    Type
REMARK                         _______ _______ _______ _____ _____    ______ ____
ROOT
ATOM      1  C   UNL     1      49.272   8.941  12.836  0.00  0.00    +0.000 C 
ATOM      2  C   UNL     1      50.037   7.833  12.072  0.00  0.00    +0.000 C 
ATOM      3  C   UNL     1      49.794  10.312  12.352  0.00  0.00    +0.000 C 
ENDROOT
BRANCH   1   8
ATOM      4  C   UNL     1      45.740   7.524  12.206  0.00  0.00    +0.000 A 
ATOM      5  C   UNL     1      45.107   8.724  11.885  0.00  0.00    +0.000 A 
ATOM      6  C   UNL     1      45.843   9.893  11.856  0.00  0.00    +0.000 A 
ATOM      7  N   UNL     1      47.152   9.958  12.157  0.00  0.00    +0.000 NA
ATOM      8  C   UNL     1      47.788   8.805  12.481  0.00  0.00    +0.000 A 
ATOM      9  C   UNL     1      47.111   7.581  12.468  0.00  0.00    +0.000 A 
BRANCH   4  14
ATOM     10  C   UNL     1      43.265   2.568  11.486  0.00  0.00    +0.000 C 
ATOM     11  N   UNL     1      43.469   3.884  12.088  0.00  0.00    +0.000 NA
ATOM     12  C   UNL     1      44.810   3.956  12.717  0.00  0.00    +0.000 C 
ATOM     13  C   UNL     1      45.136   5.357  13.285  0.00  0.00    +0.000 C 
ATOM     14  N   UNL     1      45.020   6.340  12.196  0.00  0.00    +0.000 N 
ATOM     15  C   UNL     1      43.668   6.355  11.600  0.00  0.00    +0.000 C 
ATOM     16  C   UNL     1      43.345   4.944  11.057  0.00  0.00    +0.000 C 
ENDBRANCH   4  14
ENDBRANCH   1   8
BRANCH   1  17
ATOM     17  C   UNL     1      49.619   8.775  14.341  0.00  0.00    +0.000 C 
BRANCH  17  18
ATOM     18  N   UNL     1      50.545   7.674  14.616  0.00  0.00    +0.000 N 
ATOM     19  C   UNL     1      50.001   6.707  15.447  0.00  0.00    +0.000 A 
ATOM     20  N   UNL     1      48.704   6.394  15.334  0.00  0.00    +0.000 NA
ATOM     21  C   UNL     1      48.214   5.463  16.168  0.00  0.00    +0.000 A 
ATOM     22  C   UNL     1      48.968   4.840  17.126  0.00  0.00    +0.000 A 
ATOM     23  C   UNL     1      50.283   5.228  17.174  0.00  0.00    +0.000 A 
ATOM     24  N   UNL     1      50.821   6.156  16.356  0.00  0.00    +0.000 NA
ATOM     25  H   UNL     1      51.452   7.916  15.003  0.00  0.00    +0.000 HD
BRANCH  22  26
ATOM     26  C   UNL     1      48.393   3.823  18.045  0.00  0.00    +0.000 C 
ATOM     27  F   UNL     1      47.061   3.620  17.855  0.00  0.00    +0.000 F 
ATOM     28  F   UNL     1      48.979   2.604  17.911  0.00  0.00    +0.000 F 
ATOM     29  F   UNL     1      48.533   4.167  19.353  0.00  0.00    +0.000 F 
ENDBRANCH  22  26
ENDBRANCH  17  18
ENDBRANCH   1  17
TORSDOF 5
ENDMDL
MODEL 9
REMARK VINA RESULT:    -6.097      3.339      5.909
REMARK INTER + INTRA:          -8.894
REMARK INTER:                  -8.005
REMARK INTRA:                  -0.889
REMARK UNBOUND:                -1.015
REMARK  Name = 
REMARK  8 active torsions:
REMARK  status: ('A' for Active; 'I' for Inactive)
REMARK    1  A    between atoms: C_1  and  N_2
REMARK    2  A    between atoms: N_5  and  C_6
REMARK    3  A    between atoms: C_10  and  C_11
REMARK    4  A    between atoms: C_11  and  C_12
REMARK    5  A    between atoms: C_11  and  C_13
REMARK    6  A    between atoms: C_11  and  C_14
REMARK    7  A    between atoms: C_14  and  N_15
REMARK    8  A    between atoms: C_19  and  C_20
REMARK                            x       y       z     vdW  Elec       q    Type
REMARK                         _______ _______ _______ _____ _____    ______ ____
ROOT
ATOM      1  C   UNL     1      48.162   3.408  16.832  0.00  0.00    +0.000 C 
ATOM      2  C   UNL     1      49.423   2.510  16.833  0.00  0.00    +0.000 C 
ATOM      3  C   UNL     1      47.118   2.778  17.779  0.00  0.00    +0.000 C 
ENDROOT
BRANCH   1   8
ATOM      4  C   UNL     1      50.086   6.683  17.509  0.00  0.00    +0.000 A 
ATOM      5  C   UNL     1      49.153   7.281  18.354  0.00  0.00    +0.000 A 
ATOM      6  C   UNL     1      47.997   6.599  18.681  0.00  0.00    +0.000 A 
ATOM      7  N   UNL     1      47.688   5.382  18.199  0.00  0.00    +0.000 NA
ATOM      8  C   UNL     1      48.576   4.783  17.368  0.00  0.00    +0.000 A 
ATOM      9  C   UNL     1      49.791   5.398  17.048  0.00  0.00    +0.000 A 
BRANCH   4  14
ATOM     10  C   UNL     1      55.196   8.845  16.863  0.00  0.00    +0.000 C 
ATOM     11  N   UNL     1      53.749   8.757  16.675  0.00  0.00    +0.000 NA
ATOM     12  C   UNL     1      53.398   7.480  16.009  0.00  0.00    +0.000 C 
ATOM     13  C   UNL     1      51.871   7.272  15.869  0.00  0.00    +0.000 C 
ATOM     14  N   UNL     1      51.267   7.341  17.209  0.00  0.00    +0.000 N 
ATOM     15  C   UNL     1      51.527   8.636  17.871  0.00  0.00    +0.000 C 
ATOM     16  C   UNL     1      53.055   8.843  17.983  0.00  0.00    +0.000 C 
ENDBRANCH   4  14
ENDBRANCH   1   8
BRANCH   1  17
ATOM     17  C   UNL     1      47.599   3.394  15.384  0.00  0.00    +0.000 C 
BRANCH  17  18
ATOM     18  N   UNL     1      46.731   4.533  15.076  0.00  0.00    +0.000 N 
ATOM     19  C   UNL     1      46.204   4.479  13.796  0.00  0.00    +0.000 A 
ATOM     20  N   UNL     1      45.856   3.295  13.276  0.00  0.00    +0.000 NA
ATOM     21  C   UNL     1      45.363   3.286  12.026  0.00  0.00    +0.000 A 
ATOM     22  C   UNL     1      45.217   4.416  11.267  0.00  0.00    +0.000 A 
ATOM     23  C   UNL     1      45.605   5.580  11.878  0.00  0.00    +0.000 A 
ATOM     24  N   UNL     1      46.103   5.641  13.131  0.00  0.00    +0.000 NA
ATOM     25  H   UNL     1      47.126   5.461  15.191  0.00  0.00    +0.000 HD
BRANCH  22  26
ATOM     26  C   UNL     1      44.682   4.370   9.881  0.00  0.00    +0.000 C 
ATOM     27  F   UNL     1      44.605   3.110   9.376  0.00  0.00    +0.000 F 
ATOM     28  F   UNL     1      43.428   4.887   9.787  0.00  0.00    +0.000 F 
ATOM     29  F   UNL     1      45.447   5.076   9.006  0.00  0.00    +0.000 F 
ENDBRANCH  22  26
ENDBRANCH  17  18
ENDBRANCH   1  17
TORSDOF 5
ENDMDL
