MODEL 1
REMARK VINA RESULT:    -7.036      0.000      0.000
REMARK INTER + INTRA:          -8.688
REMARK INTER:                  -8.270
REMARK INTRA:                  -0.418
REMARK UNBOUND:                -0.418
REMARK  Name = 
REMARK  5 active torsions:
REMARK  status: ('A' for Active; 'I' for Inactive)
REMARK    1  A    between atoms: C_1  and  N_2
REMARK    2  A    between atoms: C_3  and  C_5
REMARK    3  A    between atoms: N_9  and  C_10
REMARK    4  A    between atoms: C_10  and  C_11
REMARK    5  A    between atoms: C_10  and  C_12
REMARK                            x       y       z     vdW  Elec       q    Type
REMARK                         _______ _______ _______ _____ _____    ______ ____
ROOT
ATOM      1  C   UNL     1      46.088   2.492   7.867  0.00  0.00    +0.000 A 
ATOM      2  C   UNL     1      45.467   1.625   8.761  0.00  0.00    +0.000 A 
ATOM      3  C   UNL     1      44.547   2.140   9.675  0.00  0.00    +0.000 A 
ATOM      4  C   UNL     1      44.299   3.511   9.722  0.00  0.00    +0.000 A 
ATOM      5  N   UNL     1      43.462   3.980  10.720  0.00  0.00    +0.000 N 
ATOM      6  N   UNL     1      44.914   4.361   8.877  0.00  0.00    +0.000 NA
ATOM      7  C   UNL     1      45.777   3.841   7.966  0.00  0.00    +0.000 A 
ATOM      8  H   UNL     1      42.519   3.605  10.694  0.00  0.00    +0.000 HD
ENDROOT
BRANCH   1  11
ATOM      9  C   UNL     1      48.186   2.489   4.715  0.00  0.00    +0.000 C 
ATOM     10  N   UNL     1      47.240   2.837   5.747  0.00  0.00    +0.000 N 
ATOM     11  C   UNL     1      47.087   2.047   6.866  0.00  0.00    +0.000 C 
ATOM     12  O   UNL     1      47.737   1.024   7.064  0.00  0.00    +0.000 OA
ATOM     13  H   UNL     1      46.806   3.749   5.705  0.00  0.00    +0.000 HD
ENDBRANCH   1  11
BRANCH   5  14
ATOM     14  C   UNL     1      43.507   5.390  11.099  0.00  0.00    +0.000 C 
ATOM     15  C   UNL     1      42.276   5.835  11.885  0.00  0.00    +0.000 C 
BRANCH  14  16
ATOM     16  C   UNL     1      44.760   5.604  11.952  0.00  0.00    +0.000 A 
ATOM     17  C   UNL     1      45.687   6.581  11.590  0.00  0.00    +0.000 A 
ATOM     18  C   UNL     1      46.820   6.764  12.379  0.00  0.00    +0.000 A 
ATOM     19  C   UNL     1      47.006   5.965  13.500  0.00  0.00    +0.000 A 
ATOM     20  C   UNL     1      46.051   5.004  13.784  0.00  0.00    +0.000 A 
ATOM     21  N   UNL     1      44.939   4.803  13.041  0.00  0.00    +0.000 NA
ENDBRANCH  14  16
ENDBRANCH   5  14
TORSDOF 3
ENDMDL
MODEL 2
REMARK VINA RESULT:    -6.598      3.057      7.067
REMARK INTER + INTRA:          -8.174
REMARK INTER:                  -7.732
REMARK INTRA:                  -0.442
REMARK UNBOUND:                -0.418
REMARK  Name = 
REMARK  5 active torsions:
REMARK  status: ('A' for Active; 'I' for Inactive)
REMARK    1  A    between atoms: C_1  and  N_2
REMARK    2  A    between atoms: C_3  and  C_5
REMARK    3  A    between atoms: N_9  and  C_10
REMARK    4  A    between atoms: C_10  and  C_11
REMARK    5  A    between atoms: C_10  and  C_12
REMARK                            x       y       z     vdW  Elec       q    Type
REMARK                         _______ _______ _______ _____ _____    ______ ____
ROOT
ATOM      1  C   UNL     1      47.914   6.294  14.096  0.00  0.00    +0.000 A 
ATOM      2  C   UNL     1      48.146   7.058  12.957  0.00  0.00    +0.000 A 
ATOM      3  C   UNL     1      47.330   6.872  11.839  0.00  0.00    +0.000 A 
ATOM      4  C   UNL     1      46.334   5.897  11.854  0.00  0.00    +0.000 A 
ATOM      5  N   UNL     1      45.627   5.679  10.684  0.00  0.00    +0.000 N 
ATOM      6  N   UNL     1      46.118   5.136  12.945  0.00  0.00    +0.000 NA
ATOM      7  C   UNL     1      46.894   5.355  14.039  0.00  0.00    +0.000 A 
ATOM      8  H   UNL     1      45.116   6.486  10.341  0.00  0.00    +0.000 HD
ENDROOT
BRANCH   1  11
ATOM      9  C   UNL     1      48.787   6.290  17.780  0.00  0.00    +0.000 C 
ATOM     10  N   UNL     1      48.080   6.201  16.526  0.00  0.00    +0.000 N 
ATOM     11  C   UNL     1      48.731   6.408  15.329  0.00  0.00    +0.000 C 
ATOM     12  O   UNL     1      49.929   6.663  15.247  0.00  0.00    +0.000 OA
ATOM     13  H   UNL     1      47.138   5.834  16.537  0.00  0.00    +0.000 HD
ENDBRANCH   1  11
BRANCH   5  14
ATOM     14  C   UNL     1      44.909   4.421  10.495  0.00  0.00    +0.000 C 
ATOM     15  C   UNL     1      43.405   4.617  10.314  0.00  0.00    +0.000 C 
BRANCH  14  16
ATOM     16  C   UNL     1      45.486   3.736   9.254  0.00  0.00    +0.000 A 
ATOM     17  C   UNL     1      45.565   2.344   9.204  0.00  0.00    +0.000 A 
ATOM     18  C   UNL     1      46.089   1.737   8.066  0.00  0.00    +0.000 A 
ATOM     19  C   UNL     1      46.531   2.528   7.013  0.00  0.00    +0.000 A 
ATOM     20  C   UNL     1      46.437   3.904   7.145  0.00  0.00    +0.000 A 
ATOM     21  N   UNL     1      45.930   4.524   8.234  0.00  0.00    +0.000 NA
ENDBRANCH  14  16
ENDBRANCH   5  14
TORSDOF 3
ENDMDL
MODEL 3
REMARK VINA RESULT:    -6.405      3.333      6.752
REMARK INTER + INTRA:          -7.947
REMARK INTER:                  -7.472
REMARK INTRA:                  -0.475
REMARK UNBOUND:                -0.418
REMARK  Name = 
REMARK  5 active torsions:
REMARK  status: ('A' for Active; 'I' for Inactive)
REMARK    1  A    between atoms: C_1  and  N_2
REMARK    2  A    between atoms: C_3  and  C_5
REMARK    3  A    between atoms: N_9  and  C_10
REMARK    4  A    between atoms: C_10  and  C_11
REMARK    5  A    between atoms: C_10  and  C_12
REMARK                            x       y       z     vdW  Elec       q    Type
REMARK                         _______ _______ _______ _____ _____    ______ ____
ROOT
ATOM      1  C   UNL     1      48.530   6.861  13.594  0.00  0.00    +0.000 A 
ATOM      2  C   UNL     1      48.422   7.621  12.434  0.00  0.00    +0.000 A 
ATOM      3  C   UNL     1      47.322   7.428  11.597  0.00  0.00    +0.000 A 
ATOM      4  C   UNL     1      46.377   6.447  11.898  0.00  0.00    +0.000 A 
ATOM      5  N   UNL     1      45.367   6.222  10.979  0.00  0.00    +0.000 N 
ATOM      6  N   UNL     1      46.487   5.689  13.006  0.00  0.00    +0.000 NA
ATOM      7  C   UNL     1      47.542   5.916  13.833  0.00  0.00    +0.000 A 
ATOM      8  H   UNL     1      44.774   7.025  10.795  0.00  0.00    +0.000 HD
ENDROOT
BRANCH   1  11
ATOM      9  C   UNL     1      51.881   7.937  14.990  0.00  0.00    +0.000 C 
ATOM     10  N   UNL     1      50.729   7.758  14.139  0.00  0.00    +0.000 N 
ATOM     11  C   UNL     1      49.664   6.982  14.542  0.00  0.00    +0.000 C 
ATOM     12  O   UNL     1      49.615   6.414  15.629  0.00  0.00    +0.000 OA
ATOM     13  H   UNL     1      50.656   8.335  13.312  0.00  0.00    +0.000 HD
ENDBRANCH   1  11
BRANCH   5  14
ATOM     14  C   UNL     1      44.632   4.960  11.006  0.00  0.00    +0.000 C 
ATOM     15  C   UNL     1      43.119   5.152  10.928  0.00  0.00    +0.000 C 
BRANCH  14  16
ATOM     16  C   UNL     1      45.100   4.121   9.814  0.00  0.00    +0.000 A 
ATOM     17  C   UNL     1      44.958   2.734   9.844  0.00  0.00    +0.000 A 
ATOM     18  C   UNL     1      45.386   1.986   8.750  0.00  0.00    +0.000 A 
ATOM     19  C   UNL     1      45.955   2.636   7.661  0.00  0.00    +0.000 A 
ATOM     20  C   UNL     1      46.080   4.014   7.714  0.00  0.00    +0.000 A 
ATOM     21  N   UNL     1      45.671   4.769   8.759  0.00  0.00    +0.000 NA
ENDBRANCH  14  16
ENDBRANCH   5  14
TORSDOF 3
ENDMDL
MODEL 4
REMARK VINA RESULT:    -5.888      5.393      8.933
REMARK INTER + INTRA:          -7.339
REMARK INTER:                  -7.089
REMARK INTRA:                  -0.250
REMARK UNBOUND:                -0.418
REMARK  Name = 
REMARK  5 active torsions:
REMARK  status: ('A' for Active; 'I' for Inactive)
REMARK    1  A    between atoms: C_1  and  N_2
REMARK    2  A    between atoms: C_3  and  C_5
REMARK    3  A    between atoms: N_9  and  C_10
REMARK    4  A    between atoms: C_10  and  C_11
REMARK    5  A    between atoms: C_10  and  C_12
REMARK                            x       y       z     vdW  Elec       q    Type
REMARK                         _______ _______ _______ _____ _____    ______ ____
ROOT
ATOM      1  C   UNL     1      48.750   4.306  18.495  0.00  0.00    +0.000 A 
ATOM      2  C   UNL     1      48.167   3.106  18.102  0.00  0.00    +0.000 A 
ATOM      3  C   UNL     1      47.616   3.008  16.823  0.00  0.00    +0.000 A 
ATOM      4  C   UNL     1      47.608   4.116  15.978  0.00  0.00    +0.000 A 
ATOM      5  N   UNL     1      46.952   3.996  14.764  0.00  0.00    +0.000 N 
ATOM      6  N   UNL     1      48.148   5.289  16.359  0.00  0.00    +0.000 NA
ATOM      7  C   UNL     1      48.716   5.359  17.592  0.00  0.00    +0.000 A 
ATOM      8  H   UNL     1      47.323   3.276  14.151  0.00  0.00    +0.000 HD
ENDROOT
BRANCH   1  11
ATOM      9  C   UNL     1      51.396   4.896  21.138  0.00  0.00    +0.000 C 
ATOM     10  N   UNL     1      50.718   4.686  19.883  0.00  0.00    +0.000 N 
ATOM     11  C   UNL     1      49.351   4.516  19.835  0.00  0.00    +0.000 C 
ATOM     12  O   UNL     1      48.632   4.544  20.830  0.00  0.00    +0.000 OA
ATOM     13  H   UNL     1      51.245   4.820  19.030  0.00  0.00    +0.000 HD
ENDBRANCH   1  11
BRANCH   5  14
ATOM     14  C   UNL     1      46.528   5.196  14.048  0.00  0.00    +0.000 C 
ATOM     15  C   UNL     1      47.614   5.759  13.134  0.00  0.00    +0.000 C 
BRANCH  14  16
ATOM     16  C   UNL     1      45.299   4.831  13.212  0.00  0.00    +0.000 A 
ATOM     17  C   UNL     1      44.421   5.832  12.795  0.00  0.00    +0.000 A 
ATOM     18  C   UNL     1      43.310   5.482  12.032  0.00  0.00    +0.000 A 
ATOM     19  C   UNL     1      43.094   4.147  11.714  0.00  0.00    +0.000 A 
ATOM     20  C   UNL     1      44.000   3.209  12.180  0.00  0.00    +0.000 A 
ATOM     21  N   UNL     1      45.089   3.516  12.919  0.00  0.00    +0.000 NA
ENDBRANCH  14  16
ENDBRANCH   5  14
TORSDOF 3
ENDMDL
MODEL 5
REMARK VINA RESULT:    -5.746      3.958      6.057
REMARK INTER + INTRA:          -7.172
REMARK INTER:                  -7.138
REMARK INTRA:                  -0.034
REMARK UNBOUND:                -0.418
REMARK  Name = 
REMARK  5 active torsions:
REMARK  status: ('A' for Active; 'I' for Inactive)
REMARK    1  A    between atoms: C_1  and  N_2
REMARK    2  A    between atoms: C_3  and  C_5
REMARK    3  A    between atoms: N_9  and  C_10
REMARK    4  A    between atoms: C_10  and  C_11
REMARK    5  A    between atoms: C_10  and  C_12
REMARK                            x       y       z     vdW  Elec       q    Type
REMARK                         _______ _______ _______ _____ _____    ______ ____
ROOT
ATOM      1  C   UNL     1      45.526   4.218  11.837  0.00  0.00    +0.000 A 
ATOM      2  C   UNL     1      45.988   5.516  12.025  0.00  0.00    +0.000 A 
ATOM      3  C   UNL     1      46.699   5.821  13.187  0.00  0.00    +0.000 A 
ATOM      4  C   UNL     1      46.893   4.846  14.164  0.00  0.00    +0.000 A 
ATOM      5  N   UNL     1      47.508   5.230  15.344  0.00  0.00    +0.000 N 
ATOM      6  N   UNL     1      46.427   3.593  14.003  0.00  0.00    +0.000 NA
ATOM      7  C   UNL     1      45.771   3.300  12.849  0.00  0.00    +0.000 A 
ATOM      8  H   UNL     1      48.449   5.595  15.233  0.00  0.00    +0.000 HD
ENDROOT
BRANCH   1  11
ATOM      9  C   UNL     1      44.457   2.133   8.863  0.00  0.00    +0.000 C 
ATOM     10  N   UNL     1      45.146   2.627  10.031  0.00  0.00    +0.000 N 
ATOM     11  C   UNL     1      44.752   3.796  10.645  0.00  0.00    +0.000 C 
ATOM     12  O   UNL     1      43.805   4.475  10.259  0.00  0.00    +0.000 OA
ATOM     13  H   UNL     1      45.820   2.020  10.476  0.00  0.00    +0.000 HD
ENDBRANCH   1  11
BRANCH   5  14
ATOM     14  C   UNL     1      47.348   4.412  16.543  0.00  0.00    +0.000 C 
ATOM     15  C   UNL     1      48.162   3.121  16.495  0.00  0.00    +0.000 C 
BRANCH  14  16
ATOM     16  C   UNL     1      47.796   5.250  17.744  0.00  0.00    +0.000 A 
ATOM     17  C   UNL     1      46.929   5.440  18.820  0.00  0.00    +0.000 A 
ATOM     18  C   UNL     1      47.354   6.202  19.905  0.00  0.00    +0.000 A 
ATOM     19  C   UNL     1      48.623   6.766  19.886  0.00  0.00    +0.000 A 
ATOM     20  C   UNL     1      49.419   6.549  18.774  0.00  0.00    +0.000 A 
ATOM     21  N   UNL     1      49.038   5.811  17.707  0.00  0.00    +0.000 NA
ENDBRANCH  14  16
ENDBRANCH   5  14
TORSDOF 3
ENDMDL
MODEL 6
REMARK VINA RESULT:    -5.736      2.737      6.602
REMARK INTER + INTRA:          -7.160
REMARK INTER:                  -6.646
REMARK INTRA:                  -0.514
REMARK UNBOUND:                -0.418
REMARK  Name = 
REMARK  5 active torsions:
REMARK  status: ('A' for Active; 'I' for Inactive)
REMARK    1  A    between atoms: C_1  and  N_2
REMARK    2  A    between atoms: C_3  and  C_5
REMARK    3  A    between atoms: N_9  and  C_10
REMARK    4  A    between atoms: C_10  and  C_11
REMARK    5  A    between atoms: C_10  and  C_12
REMARK                            x       y       z     vdW  Elec       q    Type
REMARK                         _______ _______ _______ _____ _____    ______ ____
ROOT
ATOM      1  C   UNL     1      46.736   5.173  13.376  0.00  0.00    +0.000 A 
ATOM      2  C   UNL     1      47.116   6.129  12.440  0.00  0.00    +0.000 A 
ATOM      3  C   UNL     1      46.567   6.076  11.157  0.00  0.00    +0.000 A 
ATOM      4  C   UNL     1      45.694   5.046  10.811  0.00  0.00    +0.000 A 
ATOM      5  N   UNL     1      45.267   4.978   9.496  0.00  0.00    +0.000 N 
ATOM      6  N   UNL     1      45.341   4.101  11.703  0.00  0.00    +0.000 NA
ATOM      7  C   UNL     1      45.851   4.188  12.960  0.00  0.00    +0.000 A 
ATOM      8  H   UNL     1      44.755   5.793   9.174  0.00  0.00    +0.000 HD
ENDROOT
BRANCH   1  11
ATOM      9  C   UNL     1      47.136   4.120  16.991  0.00  0.00    +0.000 C 
ATOM     10  N   UNL     1      46.689   4.232  15.624  0.00  0.00    +0.000 N 
ATOM     11  C   UNL     1      47.269   5.135  14.759  0.00  0.00    +0.000 C 
ATOM     12  O   UNL     1      48.191   5.880  15.079  0.00  0.00    +0.000 OA
ATOM     13  H   UNL     1      46.050   3.531  15.275  0.00  0.00    +0.000 HD
ENDBRANCH   1  11
BRANCH   5  14
ATOM     14  C   UNL     1      44.734   3.723   8.972  0.00  0.00    +0.000 C 
ATOM     15  C   UNL     1      43.545   3.926   8.036  0.00  0.00    +0.000 C 
BRANCH  14  16
ATOM     16  C   UNL     1      45.862   3.017   8.214  0.00  0.00    +0.000 A 
ATOM     17  C   UNL     1      46.697   3.751   7.372  0.00  0.00    +0.000 A 
ATOM     18  C   UNL     1      47.720   3.094   6.693  0.00  0.00    +0.000 A 
ATOM     19  C   UNL     1      47.879   1.724   6.860  0.00  0.00    +0.000 A 
ATOM     20  C   UNL     1      46.999   1.061   7.699  0.00  0.00    +0.000 A 
ATOM     21  N   UNL     1      45.998   1.670   8.374  0.00  0.00    +0.000 NA
ENDBRANCH  14  16
ENDBRANCH   5  14
TORSDOF 3
ENDMDL
MODEL 7
REMARK VINA RESULT:    -5.693      2.296      3.294
REMARK INTER + INTRA:          -7.109
REMARK INTER:                  -6.616
REMARK INTRA:                  -0.494
REMARK UNBOUND:                -0.418
REMARK  Name = 
REMARK  5 active torsions:
REMARK  status: ('A' for Active; 'I' for Inactive)
REMARK    1  A    between atoms: C_1  and  N_2
REMARK    2  A    between atoms: C_3  and  C_5
REMARK    3  A    between atoms: N_9  and  C_10
REMARK    4  A    between atoms: C_10  and  C_11
REMARK    5  A    between atoms: C_10  and  C_12
REMARK                            x       y       z     vdW  Elec       q    Type
REMARK                         _______ _______ _______ _____ _____    ______ ____
ROOT
ATOM      1  C   UNL     1      45.076   3.416  10.000  0.00  0.00    +0.000 A 
ATOM      2  C   UNL     1      44.681   3.340  11.332  0.00  0.00    +0.000 A 
ATOM      3  C   UNL     1      44.605   4.514  12.084  0.00  0.00    +0.000 A 
ATOM      4  C   UNL     1      44.971   5.734  11.516  0.00  0.00    +0.000 A 
ATOM      5  N   UNL     1      44.982   6.849  12.337  0.00  0.00    +0.000 N 
ATOM      6  N   UNL     1      45.378   5.813  10.235  0.00  0.00    +0.000 NA
ATOM      7  C   UNL     1      45.410   4.668   9.503  0.00  0.00    +0.000 A 
ATOM      8  H   UNL     1      44.084   7.079  12.751  0.00  0.00    +0.000 HD
ENDROOT
BRANCH   1  11
ATOM      9  C   UNL     1      46.595   0.973   7.538  0.00  0.00    +0.000 C 
ATOM     10  N   UNL     1      46.378   2.094   8.420  0.00  0.00    +0.000 N 
ATOM     11  C   UNL     1      45.199   2.228   9.121  0.00  0.00    +0.000 C 
ATOM     12  O   UNL     1      44.279   1.418   9.056  0.00  0.00    +0.000 OA
ATOM     13  H   UNL     1      47.166   2.693   8.629  0.00  0.00    +0.000 HD
ENDBRANCH   1  11
BRANCH   5  14
ATOM     14  C   UNL     1      45.754   8.026  11.949  0.00  0.00    +0.000 C 
ATOM     15  C   UNL     1      45.115   9.335  12.407  0.00  0.00    +0.000 C 
BRANCH  14  16
ATOM     16  C   UNL     1      47.148   7.896  12.569  0.00  0.00    +0.000 A 
ATOM     17  C   UNL     1      48.214   7.445  11.792  0.00  0.00    +0.000 A 
ATOM     18  C   UNL     1      49.476   7.337  12.372  0.00  0.00    +0.000 A 
ATOM     19  C   UNL     1      49.641   7.667  13.711  0.00  0.00    +0.000 A 
ATOM     20  C   UNL     1      48.530   8.089  14.423  0.00  0.00    +0.000 A 
ATOM     21  N   UNL     1      47.294   8.209  13.889  0.00  0.00    +0.000 NA
ENDBRANCH  14  16
ENDBRANCH   5  14
TORSDOF 3
ENDMDL
MODEL 8
REMARK VINA RESULT:    -5.608      3.511      5.502
REMARK INTER + INTRA:          -7.010
REMARK INTER:                  -6.594
REMARK INTRA:                  -0.417
REMARK UNBOUND:                -0.418
REMARK  Name = 
REMARK  5 active torsions:
REMARK  status: ('A' for Active; 'I' for Inactive)
REMARK    1  A    between atoms: C_1  and  N_2
REMARK    2  A    between atoms: C_3  and  C_5
REMARK    3  A    between atoms: N_9  and  C_10
REMARK    4  A    between atoms: C_10  and  C_11
REMARK    5  A    between atoms: C_10  and  C_12
REMARK                            x       y       z     vdW  Elec       q    Type
REMARK                         _______ _______ _______ _____ _____    ______ ____
ROOT
ATOM      1  C   UNL     1      45.364   4.561  11.521  0.00  0.00    +0.000 A 
ATOM      2  C   UNL     1      45.446   4.019  12.800  0.00  0.00    +0.000 A 
ATOM      3  C   UNL     1      46.115   4.732  13.796  0.00  0.00    +0.000 A 
ATOM      4  C   UNL     1      46.735   5.943  13.494  0.00  0.00    +0.000 A 
ATOM      5  N   UNL     1      47.477   6.554  14.491  0.00  0.00    +0.000 N 
ATOM      6  N   UNL     1      46.682   6.464  12.253  0.00  0.00    +0.000 NA
ATOM      7  C   UNL     1      45.993   5.779  11.302  0.00  0.00    +0.000 A 
ATOM      8  H   UNL     1      46.949   6.798  15.323  0.00  0.00    +0.000 HD
ENDROOT
BRANCH   1  11
ATOM      9  C   UNL     1      44.507   1.852   9.019  0.00  0.00    +0.000 C 
ATOM     10  N   UNL     1      45.103   2.599  10.100  0.00  0.00    +0.000 N 
ATOM     11  C   UNL     1      44.686   3.879  10.392  0.00  0.00    +0.000 C 
ATOM     12  O   UNL     1      43.792   4.455   9.778  0.00  0.00    +0.000 OA
ATOM     13  H   UNL     1      45.722   2.108  10.731  0.00  0.00    +0.000 HD
ENDBRANCH   1  11
BRANCH   5  14
ATOM     14  C   UNL     1      48.484   7.551  14.136  0.00  0.00    +0.000 C 
ATOM     15  C   UNL     1      48.029   8.981  14.417  0.00  0.00    +0.000 C 
BRANCH  14  16
ATOM     16  C   UNL     1      49.746   7.250  14.949  0.00  0.00    +0.000 A 
ATOM     17  C   UNL     1      50.939   7.905  14.646  0.00  0.00    +0.000 A 
ATOM     18  C   UNL     1      52.076   7.622  15.398  0.00  0.00    +0.000 A 
ATOM     19  C   UNL     1      52.001   6.687  16.422  0.00  0.00    +0.000 A 
ATOM     20  C   UNL     1      50.785   6.063  16.650  0.00  0.00    +0.000 A 
ATOM     21  N   UNL     1      49.662   6.318  15.941  0.00  0.00    +0.000 NA
ENDBRANCH  14  16
ENDBRANCH   5  14
TORSDOF 3
ENDMDL
MODEL 9
REMARK VINA RESULT:    -5.292      4.197      7.015
REMARK INTER + INTRA:          -6.638
REMARK INTER:                  -6.122
REMARK INTRA:                  -0.517
REMARK UNBOUND:                -0.418
REMARK  Name = 
REMARK  5 active torsions:
REMARK  status: ('A' for Active; 'I' for Inactive)
REMARK    1  A    between atoms: C_1  and  N_2
REMARK    2  A    between atoms: C_3  and  C_5
REMARK    3  A    between atoms: N_9  and  C_10
REMARK    4  A    between atoms: C_10  and  C_11
REMARK    5  A    between atoms: C_10  and  C_12
REMARK                            x       y       z     vdW  Elec       q    Type
REMARK                         _______ _______ _______ _____ _____    ______ ____
ROOT
ATOM      1  C   UNL     1      46.073   5.310  12.808  0.00  0.00    +0.000 A 
ATOM      2  C   UNL     1      46.462   6.620  12.549  0.00  0.00    +0.000 A 
ATOM      3  C   UNL     1      47.537   7.160  13.258  0.00  0.00    +0.000 A 
ATOM      4  C   UNL     1      48.172   6.410  14.246  0.00  0.00    +0.000 A 
ATOM      5  N   UNL     1      49.158   7.031  14.993  0.00  0.00    +0.000 N 
ATOM      6  N   UNL     1      47.786   5.149  14.521  0.00  0.00    +0.000 NA
ATOM      7  C   UNL     1      46.764   4.622  13.796  0.00  0.00    +0.000 A 
ATOM      8  H   UNL     1      49.950   7.367  14.454  0.00  0.00    +0.000 HD
ENDROOT
BRANCH   1  11
ATOM      9  C   UNL     1      43.422   2.720  12.034  0.00  0.00    +0.000 C 
ATOM     10  N   UNL     1      44.517   3.442  12.635  0.00  0.00    +0.000 N 
ATOM     11  C   UNL     1      44.939   4.648  12.119  0.00  0.00    +0.000 C 
ATOM     12  O   UNL     1      44.418   5.186  11.146  0.00  0.00    +0.000 OA
ATOM     13  H   UNL     1      44.865   3.120  13.528  0.00  0.00    +0.000 HD
ENDBRANCH   1  11
BRANCH   5  14
ATOM     14  C   UNL     1      49.540   6.478  16.290  0.00  0.00    +0.000 C 
ATOM     15  C   UNL     1      51.035   6.610  16.576  0.00  0.00    +0.000 C 
BRANCH  14  16
ATOM     16  C   UNL     1      48.749   7.224  17.367  0.00  0.00    +0.000 A 
ATOM     17  C   UNL     1      48.602   8.609  17.286  0.00  0.00    +0.000 A 
ATOM     18  C   UNL     1      47.876   9.272  18.272  0.00  0.00    +0.000 A 
ATOM     19  C   UNL     1      47.325   8.542  19.319  0.00  0.00    +0.000 A 
ATOM     20  C   UNL     1      47.529   7.173  19.340  0.00  0.00    +0.000 A 
ATOM     21  N   UNL     1      48.226   6.500  18.397  0.00  0.00    +0.000 NA
ENDBRANCH  14  16
ENDBRANCH   5  14
TORSDOF 3
ENDMDL
