MODEL 1
REMARK VINA RESULT:    -8.587      0.000      0.000
REMARK INTER + INTRA:         -12.036
REMARK INTER:                 -11.849
REMARK INTRA:                  -0.186
REMARK UNBOUND:                -0.186
REMARK  Name = 
REMARK  8 active torsions:
REMARK  status: ('A' for Active; 'I' for Inactive)
REMARK    1  A    between atoms: C_1  and  C_2
REMARK    2  A    between atoms: C_4  and  C_5
REMARK    3  A    between atoms: C_10  and  N_11
REMARK    4  A    between atoms: N_11  and  C_12
REMARK    5  A    between atoms: C_12  and  C_13
REMARK    6  A    between atoms: C_17  and  C_18
REMARK    7  A    between atoms: CA_22  and  C_23
REMARK    8  A    between atoms: C_23  and  O_24
REMARK                            x       y       z     vdW  Elec       q    Type
REMARK                         _______ _______ _______ _____ _____    ______ ____
ROOT
ATOM      1  C   UNL     1      44.448   4.829  11.518  0.00  0.00    +0.000 C 
ENDROOT
BRANCH   1   2
ATOM      2  C   UNL     1      45.543   5.736  12.060  0.00  0.00    +0.000 A 
ATOM      3  C   UNL     1      45.836   6.915  11.370  0.00  0.00    +0.000 A 
ATOM      4  C   UNL     1      46.812   7.762  11.870  0.00  0.00    +0.000 A 
ATOM      5  C   UNL     1      47.484   7.408  13.033  0.00  0.00    +0.000 A 
ATOM      6  C   UNL     1      47.169   6.212  13.677  0.00  0.00    +0.000 A 
ATOM      7  N   UNL     1      46.200   5.379  13.200  0.00  0.00    +0.000 NA
BRANCH   6   8
ATOM      8  C   UNL     1      47.844   5.783  14.924  0.00  0.00    +0.000 A 
ATOM      9  C   UNL     1      48.852   6.554  15.523  0.00  0.00    +0.000 A 
ATOM     10  C   UNL     1      49.436   6.111  16.703  0.00  0.00    +0.000 A 
ATOM     11  N   UNL     1      49.097   4.962  17.329  0.00  0.00    +0.000 NA
ATOM     12  CA  UNL     1      48.135   4.207  16.746  0.00  0.00    +0.000 A 
ATOM     13  C   UNL     1      47.496   4.590  15.563  0.00  0.00    +0.000 A 
BRANCH  12  14
ATOM     14  C   UNL     1      47.786   2.894  17.412  0.00  0.00    +0.000 C 
BRANCH  14  15
ATOM     15  O   UNL     1      46.395   2.809  17.701  0.00  0.00    +0.000 OA
ATOM     16  H   UNL     1      45.969   2.634  16.841  0.00  0.00    +0.000 HD
ENDBRANCH  14  15
ENDBRANCH  12  14
ENDBRANCH   6   8
ENDBRANCH   1   2
BRANCH   1  17
ATOM     17  N   UNL     1      44.220   5.095  10.092  0.00  0.00    +0.000 N 
ATOM     18  H   UNL     1      44.355   6.079   9.886  0.00  0.00    +0.000 HD
BRANCH  17  25
ATOM     19  C   UNL     1      43.939   2.166  10.309  0.00  0.00    +0.000 C 
ATOM     20  C   UNL     1      44.852   2.864   9.343  0.00  0.00    +0.000 A 
ATOM     21  C   UNL     1      45.701   2.072   8.549  0.00  0.00    +0.000 A 
ATOM     22  C   UNL     1      46.580   2.655   7.642  0.00  0.00    +0.000 A 
ATOM     23  C   UNL     1      46.548   4.032   7.553  0.00  0.00    +0.000 A 
ATOM     24  N   UNL     1      45.739   4.829   8.299  0.00  0.00    +0.000 NA
ATOM     25  C   UNL     1      44.903   4.260   9.200  0.00  0.00    +0.000 A 
BRANCH  22  26
ATOM     26  C   UNL     1      47.488   1.781   6.856  0.00  0.00    +0.000 C 
ATOM     27  N   UNL     1      48.580   2.329   6.248  0.00  0.00    +0.000 N 
ATOM     28  O   UNL     1      47.272   0.579   6.749  0.00  0.00    +0.000 OA
ATOM     29  H   UNL     1      48.855   3.297   6.273  0.00  0.00    +0.000 HD
ATOM     30  H   UNL     1      49.167   1.690   5.727  0.00  0.00    +0.000 HD
ENDBRANCH  22  26
ENDBRANCH  17  25
ENDBRANCH   1  17
TORSDOF 7
ENDMDL
MODEL 2
REMARK VINA RESULT:    -8.231      2.773      3.697
REMARK INTER + INTRA:         -11.545
REMARK INTER:                 -10.561
REMARK INTRA:                  -0.985
REMARK UNBOUND:                -0.186
REMARK  Name = 
REMARK  8 active torsions:
REMARK  status: ('A' for Active; 'I' for Inactive)
REMARK    1  A    between atoms: C_1  and  C_2
REMARK    2  A    between atoms: C_4  and  C_5
REMARK    3  A    between atoms: C_10  and  N_11
REMARK    4  A    between atoms: N_11  and  C_12
REMARK    5  A    between atoms: C_12  and  C_13
REMARK    6  A    between atoms: C_17  and  C_18
REMARK    7  A    between atoms: CA_22  and  C_23
REMARK    8  A    between atoms: C_23  and  O_24
REMARK                            x       y       z     vdW  Elec       q    Type
REMARK                         _______ _______ _______ _____ _____    ______ ____
ROOT
ATOM      1  C   UNL     1      44.937   6.320  10.575  0.00  0.00    +0.000 C 
ENDROOT
BRANCH   1   2
ATOM      2  C   UNL     1      45.788   6.008  11.797  0.00  0.00    +0.000 A 
ATOM      3  C   UNL     1      45.319   5.064  12.713  0.00  0.00    +0.000 A 
ATOM      4  C   UNL     1      46.099   4.751  13.815  0.00  0.00    +0.000 A 
ATOM      5  C   UNL     1      47.316   5.398  13.987  0.00  0.00    +0.000 A 
ATOM      6  C   UNL     1      47.735   6.345  13.054  0.00  0.00    +0.000 A 
ATOM      7  N   UNL     1      46.980   6.649  11.959  0.00  0.00    +0.000 NA
BRANCH   6   8
ATOM      8  C   UNL     1      49.025   7.062  13.177  0.00  0.00    +0.000 A 
ATOM      9  C   UNL     1      49.585   7.369  14.427  0.00  0.00    +0.000 A 
ATOM     10  C   UNL     1      50.808   8.024  14.481  0.00  0.00    +0.000 A 
ATOM     11  N   UNL     1      51.513   8.400  13.392  0.00  0.00    +0.000 NA
ATOM     12  CA  UNL     1      50.970   8.119  12.182  0.00  0.00    +0.000 A 
ATOM     13  C   UNL     1      49.747   7.455  12.047  0.00  0.00    +0.000 A 
BRANCH  12  14
ATOM     14  C   UNL     1      51.727   8.582  10.958  0.00  0.00    +0.000 C 
BRANCH  14  15
ATOM     15  O   UNL     1      51.816   7.552   9.979  0.00  0.00    +0.000 OA
ATOM     16  H   UNL     1      51.867   8.019   9.125  0.00  0.00    +0.000 HD
ENDBRANCH  14  15
ENDBRANCH  12  14
ENDBRANCH   6   8
ENDBRANCH   1   2
BRANCH   1  17
ATOM     17  N   UNL     1      44.173   5.135  10.164  0.00  0.00    +0.000 N 
ATOM     18  H   UNL     1      43.257   5.402   9.819  0.00  0.00    +0.000 HD
BRANCH  17  25
ATOM     19  C   UNL     1      43.965   2.224  10.598  0.00  0.00    +0.000 C 
ATOM     20  C   UNL     1      44.820   2.869   9.545  0.00  0.00    +0.000 A 
ATOM     21  C   UNL     1      45.652   2.039   8.772  0.00  0.00    +0.000 A 
ATOM     22  C   UNL     1      46.479   2.573   7.788  0.00  0.00    +0.000 A 
ATOM     23  C   UNL     1      46.412   3.939   7.605  0.00  0.00    +0.000 A 
ATOM     24  N   UNL     1      45.619   4.771   8.329  0.00  0.00    +0.000 NA
ATOM     25  C   UNL     1      44.835   4.252   9.303  0.00  0.00    +0.000 A 
BRANCH  22  26
ATOM     26  C   UNL     1      47.370   1.663   7.026  0.00  0.00    +0.000 C 
ATOM     27  N   UNL     1      48.486   2.171   6.424  0.00  0.00    +0.000 N 
ATOM     28  O   UNL     1      47.122   0.466   6.932  0.00  0.00    +0.000 OA
ATOM     29  H   UNL     1      48.788   3.131   6.440  0.00  0.00    +0.000 HD
ATOM     30  H   UNL     1      49.061   1.508   5.919  0.00  0.00    +0.000 HD
ENDBRANCH  22  26
ENDBRANCH  17  25
ENDBRANCH   1  17
TORSDOF 7
ENDMDL
MODEL 3
REMARK VINA RESULT:    -7.805      2.864      7.374
REMARK INTER + INTRA:         -10.957
REMARK INTER:                  -9.878
REMARK INTRA:                  -1.079
REMARK UNBOUND:                -0.186
REMARK  Name = 
REMARK  8 active torsions:
REMARK  status: ('A' for Active; 'I' for Inactive)
REMARK    1  A    between atoms: C_1  and  C_2
REMARK    2  A    between atoms: C_4  and  C_5
REMARK    3  A    between atoms: C_10  and  N_11
REMARK    4  A    between atoms: N_11  and  C_12
REMARK    5  A    between atoms: C_12  and  C_13
REMARK    6  A    between atoms: C_17  and  C_18
REMARK    7  A    between atoms: CA_22  and  C_23
REMARK    8  A    between atoms: C_23  and  O_24
REMARK                            x       y       z     vdW  Elec       q    Type
REMARK                         _______ _______ _______ _____ _____    ______ ____
ROOT
ATOM      1  C   UNL     1      44.003   6.859  11.709  0.00  0.00    +0.000 C 
ENDROOT
BRANCH   1   2
ATOM      2  C   UNL     1      44.026   5.389  11.316  0.00  0.00    +0.000 A 
ATOM      3  C   UNL     1      43.278   4.485  12.074  0.00  0.00    +0.000 A 
ATOM      4  C   UNL     1      43.269   3.148  11.708  0.00  0.00    +0.000 A 
ATOM      5  C   UNL     1      44.017   2.742  10.610  0.00  0.00    +0.000 A 
ATOM      6  C   UNL     1      44.761   3.679   9.896  0.00  0.00    +0.000 A 
ATOM      7  N   UNL     1      44.765   4.999  10.239  0.00  0.00    +0.000 NA
BRANCH   6   8
ATOM      8  C   UNL     1      45.572   3.310   8.712  0.00  0.00    +0.000 A 
ATOM      9  C   UNL     1      45.969   4.262   7.761  0.00  0.00    +0.000 A 
ATOM     10  C   UNL     1      46.745   3.861   6.681  0.00  0.00    +0.000 A 
ATOM     11  N   UNL     1      47.152   2.589   6.473  0.00  0.00    +0.000 NA
ATOM     12  CA  UNL     1      46.758   1.663   7.381  0.00  0.00    +0.000 A 
ATOM     13  C   UNL     1      45.983   1.991   8.498  0.00  0.00    +0.000 A 
BRANCH  12  14
ATOM     14  C   UNL     1      47.166   0.229   7.130  0.00  0.00    +0.000 C 
BRANCH  14  15
ATOM     15  O   UNL     1      46.496  -0.666   8.011  0.00  0.00    +0.000 OA
ATOM     16  H   UNL     1      46.154  -1.377   7.438  0.00  0.00    +0.000 HD
ENDBRANCH  14  15
ENDBRANCH  12  14
ENDBRANCH   6   8
ENDBRANCH   1   2
BRANCH   1  17
ATOM     17  N   UNL     1      44.838   7.087  12.896  0.00  0.00    +0.000 N 
ATOM     18  H   UNL     1      44.667   6.372  13.595  0.00  0.00    +0.000 HD
BRANCH  17  25
ATOM     19  C   UNL     1      46.777   4.964  13.561  0.00  0.00    +0.000 C 
ATOM     20  C   UNL     1      47.148   6.324  13.042  0.00  0.00    +0.000 A 
ATOM     21  C   UNL     1      48.515   6.645  12.952  0.00  0.00    +0.000 A 
ATOM     22  C   UNL     1      48.926   7.892  12.491  0.00  0.00    +0.000 A 
ATOM     23  C   UNL     1      47.929   8.766  12.109  0.00  0.00    +0.000 A 
ATOM     24  N   UNL     1      46.601   8.490  12.177  0.00  0.00    +0.000 NA
ATOM     25  C   UNL     1      46.202   7.285  12.651  0.00  0.00    +0.000 A 
BRANCH  22  26
ATOM     26  C   UNL     1      50.378   8.201  12.455  0.00  0.00    +0.000 C 
ATOM     27  N   UNL     1      51.172   7.798  13.490  0.00  0.00    +0.000 N 
ATOM     28  O   UNL     1      50.873   8.808  11.512  0.00  0.00    +0.000 OA
ATOM     29  H   UNL     1      50.875   7.293  14.309  0.00  0.00    +0.000 HD
ATOM     30  H   UNL     1      52.154   8.032  13.416  0.00  0.00    +0.000 HD
ENDBRANCH  22  26
ENDBRANCH  17  25
ENDBRANCH   1  17
TORSDOF 7
ENDMDL
MODEL 4
REMARK VINA RESULT:    -7.542      1.346      7.872
REMARK INTER + INTRA:         -10.595
REMARK INTER:                 -10.171
REMARK INTRA:                  -0.424
REMARK UNBOUND:                -0.186
REMARK  Name = 
REMARK  8 active torsions:
REMARK  status: ('A' for Active; 'I' for Inactive)
REMARK    1  A    between atoms: C_1  and  C_2
REMARK    2  A    between atoms: C_4  and  C_5
REMARK    3  A    between atoms: C_10  and  N_11
REMARK    4  A    between atoms: N_11  and  C_12
REMARK    5  A    between atoms: C_12  and  C_13
REMARK    6  A    between atoms: C_17  and  C_18
REMARK    7  A    between atoms: CA_22  and  C_23
REMARK    8  A    between atoms: C_23  and  O_24
REMARK                            x       y       z     vdW  Elec       q    Type
REMARK                         _______ _______ _______ _____ _____    ______ ____
ROOT
ATOM      1  C   UNL     1      46.712   7.605  11.945  0.00  0.00    +0.000 C 
ENDROOT
BRANCH   1   2
ATOM      2  C   UNL     1      45.604   6.699  11.429  0.00  0.00    +0.000 A 
ATOM      3  C   UNL     1      44.287   6.981  11.797  0.00  0.00    +0.000 A 
ATOM      4  C   UNL     1      43.266   6.179  11.311  0.00  0.00    +0.000 A 
ATOM      5  C   UNL     1      43.583   5.108  10.486  0.00  0.00    +0.000 A 
ATOM      6  C   UNL     1      44.915   4.855  10.160  0.00  0.00    +0.000 A 
ATOM      7  N   UNL     1      45.924   5.647  10.623  0.00  0.00    +0.000 NA
BRANCH   6   8
ATOM      8  C   UNL     1      45.316   3.734   9.279  0.00  0.00    +0.000 A 
ATOM      9  C   UNL     1      44.957   2.407   9.561  0.00  0.00    +0.000 A 
ATOM     10  C   UNL     1      45.344   1.399   8.688  0.00  0.00    +0.000 A 
ATOM     11  N   UNL     1      46.062   1.608   7.562  0.00  0.00    +0.000 NA
ATOM     12  CA  UNL     1      46.424   2.886   7.294  0.00  0.00    +0.000 A 
ATOM     13  C   UNL     1      46.065   3.955   8.120  0.00  0.00    +0.000 A 
BRANCH  12  14
ATOM     14  C   UNL     1      47.270   3.123   6.063  0.00  0.00    +0.000 C 
BRANCH  14  15
ATOM     15  O   UNL     1      48.594   2.630   6.237  0.00  0.00    +0.000 OA
ATOM     16  H   UNL     1      49.128   3.414   6.462  0.00  0.00    +0.000 HD
ENDBRANCH  14  15
ENDBRANCH  12  14
ENDBRANCH   6   8
ENDBRANCH   1   2
BRANCH   1  17
ATOM     17  N   UNL     1      47.850   6.807  12.420  0.00  0.00    +0.000 N 
ATOM     18  H   UNL     1      48.698   7.362  12.428  0.00  0.00    +0.000 HD
BRANCH  17  25
ATOM     19  C   UNL     1      49.055   7.814  14.918  0.00  0.00    +0.000 C 
ATOM     20  C   UNL     1      48.286   6.530  14.802  0.00  0.00    +0.000 A 
ATOM     21  C   UNL     1      48.211   5.702  15.937  0.00  0.00    +0.000 A 
ATOM     22  C   UNL     1      47.524   4.492  15.894  0.00  0.00    +0.000 A 
ATOM     23  C   UNL     1      46.911   4.175  14.699  0.00  0.00    +0.000 A 
ATOM     24  N   UNL     1      46.958   4.951  13.584  0.00  0.00    +0.000 NA
ATOM     25  C   UNL     1      47.649   6.115  13.621  0.00  0.00    +0.000 A 
BRANCH  22  26
ATOM     26  C   UNL     1      47.509   3.631  17.104  0.00  0.00    +0.000 C 
ATOM     27  N   UNL     1      48.608   3.599  17.913  0.00  0.00    +0.000 N 
ATOM     28  O   UNL     1      46.527   2.954  17.386  0.00  0.00    +0.000 OA
ATOM     29  H   UNL     1      49.462   4.115  17.781  0.00  0.00    +0.000 HD
ATOM     30  H   UNL     1      48.545   2.998  18.726  0.00  0.00    +0.000 HD
ENDBRANCH  22  26
ENDBRANCH  17  25
ENDBRANCH   1  17
TORSDOF 7
ENDMDL
MODEL 5
REMARK VINA RESULT:    -7.341      2.832      7.852
REMARK INTER + INTRA:         -10.316
REMARK INTER:                  -9.405
REMARK INTRA:                  -0.911
REMARK UNBOUND:                -0.186
REMARK  Name = 
REMARK  8 active torsions:
REMARK  status: ('A' for Active; 'I' for Inactive)
REMARK    1  A    between atoms: C_1  and  C_2
REMARK    2  A    between atoms: C_4  and  C_5
REMARK    3  A    between atoms: C_10  and  N_11
REMARK    4  A    between atoms: N_11  and  C_12
REMARK    5  A    between atoms: C_12  and  C_13
REMARK    6  A    between atoms: C_17  and  C_18
REMARK    7  A    between atoms: CA_22  and  C_23
REMARK    8  A    between atoms: C_23  and  O_24
REMARK                            x       y       z     vdW  Elec       q    Type
REMARK                         _______ _______ _______ _____ _____    ______ ____
ROOT
ATOM      1  C   UNL     1      48.859   7.492  15.871  0.00  0.00    +0.000 C 
ENDROOT
BRANCH   1   2
ATOM      2  C   UNL     1      48.532   7.363  14.390  0.00  0.00    +0.000 A 
ATOM      3  C   UNL     1      49.373   7.985  13.466  0.00  0.00    +0.000 A 
ATOM      4  C   UNL     1      49.102   7.851  12.113  0.00  0.00    +0.000 A 
ATOM      5  C   UNL     1      47.991   7.117  11.716  0.00  0.00    +0.000 A 
ATOM      6  C   UNL     1      47.170   6.529  12.678  0.00  0.00    +0.000 A 
ATOM      7  N   UNL     1      47.438   6.644  14.010  0.00  0.00    +0.000 NA
BRANCH   6   8
ATOM      8  C   UNL     1      45.977   5.728  12.317  0.00  0.00    +0.000 A 
ATOM      9  C   UNL     1      45.100   5.227  13.292  0.00  0.00    +0.000 A 
ATOM     10  C   UNL     1      43.987   4.499  12.894  0.00  0.00    +0.000 A 
ATOM     11  N   UNL     1      43.681   4.229  11.605  0.00  0.00    +0.000 NA
ATOM     12  CA  UNL     1      44.533   4.698  10.661  0.00  0.00    +0.000 A 
ATOM     13  C   UNL     1      45.670   5.445  10.983  0.00  0.00    +0.000 A 
BRANCH  12  14
ATOM     14  C   UNL     1      44.227   4.357   9.220  0.00  0.00    +0.000 C 
BRANCH  14  15
ATOM     15  O   UNL     1      45.246   4.828   8.345  0.00  0.00    +0.000 OA
ATOM     16  H   UNL     1      45.555   5.663   8.743  0.00  0.00    +0.000 HD
ENDBRANCH  14  15
ENDBRANCH  12  14
ENDBRANCH   6   8
ENDBRANCH   1   2
BRANCH   1  17
ATOM     17  N   UNL     1      48.270   6.378  16.626  0.00  0.00    +0.000 N 
ATOM     18  H   UNL     1      47.352   6.146  16.264  0.00  0.00    +0.000 HD
BRANCH  17  25
ATOM     19  C   UNL     1      47.073   3.681  16.624  0.00  0.00    +0.000 C 
ATOM     20  C   UNL     1      48.526   3.967  16.874  0.00  0.00    +0.000 A 
ATOM     21  C   UNL     1      49.359   2.889  17.222  0.00  0.00    +0.000 A 
ATOM     22  C   UNL     1      50.713   3.086  17.479  0.00  0.00    +0.000 A 
ATOM     23  C   UNL     1      51.182   4.377  17.346  0.00  0.00    +0.000 A 
ATOM     24  N   UNL     1      50.408   5.442  17.007  0.00  0.00    +0.000 NA
ATOM     25  C   UNL     1      49.086   5.252  16.784  0.00  0.00    +0.000 A 
BRANCH  22  26
ATOM     26  C   UNL     1      51.544   1.925  17.885  0.00  0.00    +0.000 C 
ATOM     27  N   UNL     1      52.701   2.143  18.576  0.00  0.00    +0.000 N 
ATOM     28  O   UNL     1      51.207   0.779  17.613  0.00  0.00    +0.000 OA
ATOM     29  H   UNL     1      53.071   3.036  18.857  0.00  0.00    +0.000 HD
ATOM     30  H   UNL     1      53.230   1.318  18.831  0.00  0.00    +0.000 HD
ENDBRANCH  22  26
ENDBRANCH  17  25
ENDBRANCH   1  17
TORSDOF 7
ENDMDL
MODEL 6
REMARK VINA RESULT:    -7.314      3.075      8.604
REMARK INTER + INTRA:         -10.280
REMARK INTER:                  -9.571
REMARK INTRA:                  -0.709
REMARK UNBOUND:                -0.186
REMARK  Name = 
REMARK  8 active torsions:
REMARK  status: ('A' for Active; 'I' for Inactive)
REMARK    1  A    between atoms: C_1  and  C_2
REMARK    2  A    between atoms: C_4  and  C_5
REMARK    3  A    between atoms: C_10  and  N_11
REMARK    4  A    between atoms: N_11  and  C_12
REMARK    5  A    between atoms: C_12  and  C_13
REMARK    6  A    between atoms: C_17  and  C_18
REMARK    7  A    between atoms: CA_22  and  C_23
REMARK    8  A    between atoms: C_23  and  O_24
REMARK                            x       y       z     vdW  Elec       q    Type
REMARK                         _______ _______ _______ _____ _____    ______ ____
ROOT
ATOM      1  C   UNL     1      47.779   4.702  16.551  0.00  0.00    +0.000 C 
ENDROOT
BRANCH   1   2
ATOM      2  C   UNL     1      47.516   5.276  15.166  0.00  0.00    +0.000 A 
ATOM      3  C   UNL     1      48.243   6.397  14.760  0.00  0.00    +0.000 A 
ATOM      4  C   UNL     1      48.032   6.912  13.491  0.00  0.00    +0.000 A 
ATOM      5  C   UNL     1      47.092   6.309  12.665  0.00  0.00    +0.000 A 
ATOM      6  C   UNL     1      46.378   5.202  13.121  0.00  0.00    +0.000 A 
ATOM      7  N   UNL     1      46.589   4.680  14.364  0.00  0.00    +0.000 NA
BRANCH   6   8
ATOM      8  C   UNL     1      45.369   4.511  12.285  0.00  0.00    +0.000 A 
ATOM      9  C   UNL     1      44.357   3.719  12.850  0.00  0.00    +0.000 A 
ATOM     10  C   UNL     1      43.426   3.111  12.018  0.00  0.00    +0.000 A 
ATOM     11  N   UNL     1      43.427   3.227  10.671  0.00  0.00    +0.000 NA
ATOM     12  CA  UNL     1      44.411   3.978  10.120  0.00  0.00    +0.000 A 
ATOM     13  C   UNL     1      45.379   4.627  10.892  0.00  0.00    +0.000 A 
BRANCH  12  14
ATOM     14  C   UNL     1      44.451   4.071   8.611  0.00  0.00    +0.000 C 
BRANCH  14  15
ATOM     15  O   UNL     1      45.516   4.904   8.167  0.00  0.00    +0.000 OA
ATOM     16  H   UNL     1      45.945   5.222   8.984  0.00  0.00    +0.000 HD
ENDBRANCH  14  15
ENDBRANCH  12  14
ENDBRANCH   6   8
ENDBRANCH   1   2
BRANCH   1  17
ATOM     17  N   UNL     1      49.070   5.176  17.068  0.00  0.00    +0.000 N 
ATOM     18  H   UNL     1      48.931   5.849  17.814  0.00  0.00    +0.000 HD
BRANCH  17  25
ATOM     19  C   UNL     1      51.642   5.915  18.310  0.00  0.00    +0.000 C 
ATOM     20  C   UNL     1      51.257   4.517  17.917  0.00  0.00    +0.000 A 
ATOM     21  C   UNL     1      52.219   3.502  18.064  0.00  0.00    +0.000 A 
ATOM     22  C   UNL     1      51.932   2.188  17.707  0.00  0.00    +0.000 A 
ATOM     23  C   UNL     1      50.658   1.944  17.235  0.00  0.00    +0.000 A 
ATOM     24  N   UNL     1      49.701   2.898  17.084  0.00  0.00    +0.000 NA
ATOM     25  C   UNL     1      49.993   4.180  17.407  0.00  0.00    +0.000 A 
BRANCH  22  26
ATOM     26  C   UNL     1      52.993   1.159  17.839  0.00  0.00    +0.000 C 
ATOM     27  N   UNL     1      52.642  -0.126  18.144  0.00  0.00    +0.000 N 
ATOM     28  O   UNL     1      54.174   1.443  17.677  0.00  0.00    +0.000 OA
ATOM     29  H   UNL     1      51.708  -0.471  18.292  0.00  0.00    +0.000 HD
ATOM     30  H   UNL     1      53.403  -0.789  18.220  0.00  0.00    +0.000 HD
ENDBRANCH  22  26
ENDBRANCH  17  25
ENDBRANCH   1  17
TORSDOF 7
ENDMDL
MODEL 7
REMARK VINA RESULT:    -7.222      2.567      8.088
REMARK INTER + INTRA:         -10.153
REMARK INTER:                  -9.592
REMARK INTRA:                  -0.561
REMARK UNBOUND:                -0.186
REMARK  Name = 
REMARK  8 active torsions:
REMARK  status: ('A' for Active; 'I' for Inactive)
REMARK    1  A    between atoms: C_1  and  C_2
REMARK    2  A    between atoms: C_4  and  C_5
REMARK    3  A    between atoms: C_10  and  N_11
REMARK    4  A    between atoms: N_11  and  C_12
REMARK    5  A    between atoms: C_12  and  C_13
REMARK    6  A    between atoms: C_17  and  C_18
REMARK    7  A    between atoms: CA_22  and  C_23
REMARK    8  A    between atoms: C_23  and  O_24
REMARK                            x       y       z     vdW  Elec       q    Type
REMARK                         _______ _______ _______ _____ _____    ______ ____
ROOT
ATOM      1  C   UNL     1      48.758   6.980  14.668  0.00  0.00    +0.000 C 
ENDROOT
BRANCH   1   2
ATOM      2  C   UNL     1      47.500   7.269  13.863  0.00  0.00    +0.000 A 
ATOM      3  C   UNL     1      47.108   8.599  13.693  0.00  0.00    +0.000 A 
ATOM      4  C   UNL     1      45.979   8.877  12.939  0.00  0.00    +0.000 A 
ATOM      5  C   UNL     1      45.259   7.825  12.388  0.00  0.00    +0.000 A 
ATOM      6  C   UNL     1      45.679   6.512  12.600  0.00  0.00    +0.000 A 
ATOM      7  N   UNL     1      46.797   6.231  13.329  0.00  0.00    +0.000 NA
BRANCH   6   8
ATOM      8  C   UNL     1      44.958   5.349  12.033  0.00  0.00    +0.000 A 
ATOM      9  C   UNL     1      44.104   4.555  12.813  0.00  0.00    +0.000 A 
ATOM     10  C   UNL     1      43.439   3.488  12.222  0.00  0.00    +0.000 A 
ATOM     11  N   UNL     1      43.561   3.150  10.920  0.00  0.00    +0.000 NA
ATOM     12  CA  UNL     1      44.397   3.904  10.166  0.00  0.00    +0.000 A 
ATOM     13  C   UNL     1      45.094   4.998  10.687  0.00  0.00    +0.000 A 
BRANCH  12  14
ATOM     14  C   UNL     1      44.580   3.502   8.719  0.00  0.00    +0.000 C 
BRANCH  14  15
ATOM     15  O   UNL     1      45.245   4.516   7.975  0.00  0.00    +0.000 OA
ATOM     16  H   UNL     1      44.627   4.750   7.258  0.00  0.00    +0.000 HD
ENDBRANCH  14  15
ENDBRANCH  12  14
ENDBRANCH   6   8
ENDBRANCH   1   2
BRANCH   1  17
ATOM     17  N   UNL     1      48.416   6.655  16.058  0.00  0.00    +0.000 N 
ATOM     18  H   UNL     1      47.411   6.580  16.171  0.00  0.00    +0.000 HD
BRANCH  17  25
ATOM     19  C   UNL     1      51.132   7.032  17.149  0.00  0.00    +0.000 C 
ATOM     20  C   UNL     1      50.427   5.709  17.060  0.00  0.00    +0.000 A 
ATOM     21  C   UNL     1      51.140   4.555  17.434  0.00  0.00    +0.000 A 
ATOM     22  C   UNL     1      50.550   3.297  17.364  0.00  0.00    +0.000 A 
ATOM     23  C   UNL     1      49.238   3.256  16.938  0.00  0.00    +0.000 A 
ATOM     24  N   UNL     1      48.517   4.349  16.572  0.00  0.00    +0.000 NA
ATOM     25  C   UNL     1      49.102   5.569  16.616  0.00  0.00    +0.000 A 
BRANCH  22  26
ATOM     26  C   UNL     1      51.355   2.104  17.729  0.00  0.00    +0.000 C 
ATOM     27  N   UNL     1      52.402   2.246  18.594  0.00  0.00    +0.000 N 
ATOM     28  O   UNL     1      51.093   0.999  17.269  0.00  0.00    +0.000 OA
ATOM     29  H   UNL     1      52.703   3.101  19.033  0.00  0.00    +0.000 HD
ATOM     30  H   UNL     1      52.918   1.402  18.811  0.00  0.00    +0.000 HD
ENDBRANCH  22  26
ENDBRANCH  17  25
ENDBRANCH   1  17
TORSDOF 7
ENDMDL
MODEL 8
REMARK VINA RESULT:    -7.135      3.341      5.625
REMARK INTER + INTRA:         -10.032
REMARK INTER:                  -9.417
REMARK INTRA:                  -0.615
REMARK UNBOUND:                -0.186
REMARK  Name = 
REMARK  8 active torsions:
REMARK  status: ('A' for Active; 'I' for Inactive)
REMARK    1  A    between atoms: C_1  and  C_2
REMARK    2  A    between atoms: C_4  and  C_5
REMARK    3  A    between atoms: C_10  and  N_11
REMARK    4  A    between atoms: N_11  and  C_12
REMARK    5  A    between atoms: C_12  and  C_13
REMARK    6  A    between atoms: C_17  and  C_18
REMARK    7  A    between atoms: CA_22  and  C_23
REMARK    8  A    between atoms: C_23  and  O_24
REMARK                            x       y       z     vdW  Elec       q    Type
REMARK                         _______ _______ _______ _____ _____    ______ ____
ROOT
ATOM      1  C   UNL     1      47.189   3.606  15.637  0.00  0.00    +0.000 C 
ENDROOT
BRANCH   1   2
ATOM      2  C   UNL     1      48.081   4.032  16.795  0.00  0.00    +0.000 A 
ATOM      3  C   UNL     1      47.529   4.817  17.809  0.00  0.00    +0.000 A 
ATOM      4  C   UNL     1      48.324   5.187  18.882  0.00  0.00    +0.000 A 
ATOM      5  C   UNL     1      49.653   4.783  18.909  0.00  0.00    +0.000 A 
ATOM      6  C   UNL     1      50.164   4.014  17.865  0.00  0.00    +0.000 A 
ATOM      7  N   UNL     1      49.385   3.633  16.812  0.00  0.00    +0.000 NA
BRANCH   6   8
ATOM      8  C   UNL     1      51.569   3.545  17.841  0.00  0.00    +0.000 A 
ATOM      9  C   UNL     1      52.649   4.441  17.813  0.00  0.00    +0.000 A 
ATOM     10  C   UNL     1      53.945   3.944  17.812  0.00  0.00    +0.000 A 
ATOM     11  N   UNL     1      54.250   2.627  17.833  0.00  0.00    +0.000 NA
ATOM     12  CA  UNL     1      53.211   1.757  17.845  0.00  0.00    +0.000 A 
ATOM     13  C   UNL     1      51.879   2.182  17.855  0.00  0.00    +0.000 A 
BRANCH  12  14
ATOM     14  C   UNL     1      53.541   0.282  17.817  0.00  0.00    +0.000 C 
BRANCH  14  15
ATOM     15  O   UNL     1      52.549  -0.488  18.485  0.00  0.00    +0.000 OA
ATOM     16  H   UNL     1      52.287  -1.175  17.843  0.00  0.00    +0.000 HD
ENDBRANCH  14  15
ENDBRANCH  12  14
ENDBRANCH   6   8
ENDBRANCH   1   2
BRANCH   1  17
ATOM     17  N   UNL     1      46.507   4.770  15.059  0.00  0.00    +0.000 N 
ATOM     18  H   UNL     1      46.949   5.631  15.363  0.00  0.00    +0.000 HD
BRANCH  17  25
ATOM     19  C   UNL     1      47.326   7.057  13.382  0.00  0.00    +0.000 C 
ATOM     20  C   UNL     1      46.604   5.843  12.872  0.00  0.00    +0.000 A 
ATOM     21  C   UNL     1      46.206   5.830  11.523  0.00  0.00    +0.000 A 
ATOM     22  C   UNL     1      45.522   4.742  10.990  0.00  0.00    +0.000 A 
ATOM     23  C   UNL     1      45.288   3.684  11.845  0.00  0.00    +0.000 A 
ATOM     24  N   UNL     1      45.660   3.659  13.151  0.00  0.00    +0.000 NA
ATOM     25  C   UNL     1      46.302   4.730  13.675  0.00  0.00    +0.000 A 
BRANCH  22  26
ATOM     26  C   UNL     1      45.086   4.793   9.572  0.00  0.00    +0.000 C 
ATOM     27  N   UNL     1      43.812   4.418   9.253  0.00  0.00    +0.000 N 
ATOM     28  O   UNL     1      45.847   5.166   8.688  0.00  0.00    +0.000 OA
ATOM     29  H   UNL     1      43.104   4.101   9.894  0.00  0.00    +0.000 HD
ATOM     30  H   UNL     1      43.564   4.473   8.273  0.00  0.00    +0.000 HD
ENDBRANCH  22  26
ENDBRANCH  17  25
ENDBRANCH   1  17
TORSDOF 7
ENDMDL
MODEL 9
REMARK VINA RESULT:    -7.107      2.514      8.382
REMARK INTER + INTRA:          -9.994
REMARK INTER:                  -9.142
REMARK INTRA:                  -0.852
REMARK UNBOUND:                -0.186
REMARK  Name = 
REMARK  8 active torsions:
REMARK  status: ('A' for Active; 'I' for Inactive)
REMARK    1  A    between atoms: C_1  and  C_2
REMARK    2  A    between atoms: C_4  and  C_5
REMARK    3  A    between atoms: C_10  and  N_11
REMARK    4  A    between atoms: N_11  and  C_12
REMARK    5  A    between atoms: C_12  and  C_13
REMARK    6  A    between atoms: C_17  and  C_18
REMARK    7  A    between atoms: CA_22  and  C_23
REMARK    8  A    between atoms: C_23  and  O_24
REMARK                            x       y       z     vdW  Elec       q    Type
REMARK                         _______ _______ _______ _____ _____    ______ ____
ROOT
ATOM      1  C   UNL     1      49.083   7.092  13.709  0.00  0.00    +0.000 C 
ENDROOT
BRANCH   1   2
ATOM      2  C   UNL     1      47.634   7.238  13.270  0.00  0.00    +0.000 A 
ATOM      3  C   UNL     1      47.058   8.510  13.285  0.00  0.00    +0.000 A 
ATOM      4  C   UNL     1      45.746   8.660  12.861  0.00  0.00    +0.000 A 
ATOM      5  C   UNL     1      45.037   7.539  12.450  0.00  0.00    +0.000 A 
ATOM      6  C   UNL     1      45.650   6.287  12.468  0.00  0.00    +0.000 A 
ATOM      7  N   UNL     1      46.943   6.133  12.871  0.00  0.00    +0.000 NA
BRANCH   6   8
ATOM      8  C   UNL     1      44.949   5.056  12.034  0.00  0.00    +0.000 A 
ATOM      9  C   UNL     1      44.057   4.375  12.877  0.00  0.00    +0.000 A 
ATOM     10  C   UNL     1      43.414   3.237  12.409  0.00  0.00    +0.000 A 
ATOM     11  N   UNL     1      43.591   2.724  11.171  0.00  0.00    +0.000 NA
ATOM     12  CA  UNL     1      44.462   3.370  10.358  0.00  0.00    +0.000 A 
ATOM     13  C   UNL     1      45.142   4.525  10.755  0.00  0.00    +0.000 A 
BRANCH  12  14
ATOM     14  C   UNL     1      44.706   2.774   8.990  0.00  0.00    +0.000 C 
BRANCH  14  15
ATOM     15  O   UNL     1      45.441   1.558   9.073  0.00  0.00    +0.000 OA
ATOM     16  H   UNL     1      46.286   1.743   8.622  0.00  0.00    +0.000 HD
ENDBRANCH  14  15
ENDBRANCH  12  14
ENDBRANCH   6   8
ENDBRANCH   1   2
BRANCH   1  17
ATOM     17  N   UNL     1      49.285   7.704  15.029  0.00  0.00    +0.000 N 
ATOM     18  H   UNL     1      48.818   8.603  15.081  0.00  0.00    +0.000 HD
BRANCH  17  25
ATOM     19  C   UNL     1      48.190   8.887  17.500  0.00  0.00    +0.000 C 
ATOM     20  C   UNL     1      48.563   7.441  17.342  0.00  0.00    +0.000 A 
ATOM     21  C   UNL     1      48.474   6.609  18.473  0.00  0.00    +0.000 A 
ATOM     22  C   UNL     1      48.817   5.262  18.398  0.00  0.00    +0.000 A 
ATOM     23  C   UNL     1      49.216   4.797  17.161  0.00  0.00    +0.000 A 
ATOM     24  N   UNL     1      49.310   5.569  16.046  0.00  0.00    +0.000 NA
ATOM     25  C   UNL     1      49.001   6.885  16.128  0.00  0.00    +0.000 A 
BRANCH  22  26
ATOM     26  C   UNL     1      48.748   4.434  19.628  0.00  0.00    +0.000 C 
ATOM     27  N   UNL     1      48.305   3.145  19.539  0.00  0.00    +0.000 N 
ATOM     28  O   UNL     1      49.083   4.887  20.716  0.00  0.00    +0.000 OA
ATOM     29  H   UNL     1      48.011   2.670  18.702  0.00  0.00    +0.000 HD
ATOM     30  H   UNL     1      48.279   2.622  20.406  0.00  0.00    +0.000 HD
ENDBRANCH  22  26
ENDBRANCH  17  25
ENDBRANCH   1  17
TORSDOF 7
ENDMDL
