MODEL 1
REMARK VINA RESULT:    -8.094      0.000      0.000
REMARK INTER + INTRA:         -11.258
REMARK INTER:                 -10.933
REMARK INTRA:                  -0.325
REMARK UNBOUND:                -0.325
REMARK  Name = 
REMARK  7 active torsions:
REMARK  status: ('A' for Active; 'I' for Inactive)
REMARK    1  A    between atoms: N_1  and  C_2
REMARK    2  A    between atoms: C_2  and  C_3
REMARK    3  A    between atoms: C_3  and  C_4
REMARK    4  A    between atoms: C_7  and  C_8
REMARK    5  A    between atoms: C_8  and  N_9
REMARK    6  A    between atoms: CA_14  and  C_15
REMARK    7  A    between atoms: C_15  and  OXT_17
REMARK                            x       y       z     vdW  Elec       q    Type
REMARK                         _______ _______ _______ _____ _____    ______ ____
ROOT
ATOM      1  N   UNL     1      44.589   5.435  11.301  0.00  0.00    +0.000 N 
ATOM      2  C   UNL     1      44.570   6.785  11.530  0.00  0.00    +0.000 A 
ATOM      3  N   UNL     1      45.258   7.107  12.600  0.00  0.00    +0.000 NA
ATOM      4  C   UNL     1      45.735   5.922  13.100  0.00  0.00    +0.000 A 
ATOM      5  C   UNL     1      46.484   5.692  14.251  0.00  0.00    +0.000 A 
ATOM      6  CA  UNL     1      46.781   4.363  14.496  0.00  0.00    +0.000 A 
ATOM      7  N   UNL     1      46.421   3.301  13.706  0.00  0.00    +0.000 NA
ATOM      8  C   UNL     1      45.697   3.545  12.589  0.00  0.00    +0.000 A 
ATOM      9  C   UNL     1      45.344   4.854  12.295  0.00  0.00    +0.000 A 
ENDROOT
BRANCH   6  10
ATOM     10  C   UNL     1      47.530   3.991  15.734  0.00  0.00    +0.000 C 
ATOM     11  O   UNL     1      48.296   3.048  15.839  0.00  0.00    +0.000 OA
BRANCH  10  12
ATOM     12  OXT UNL     1      47.251   4.866  16.733  0.00  0.00    +0.000 OA
ATOM     13  HXT UNL     1      46.700   5.595  16.360  0.00  0.00    +0.000 HD
ENDBRANCH  10  12
ENDBRANCH   6  10
BRANCH   1  14
ATOM     14  C   UNL     1      43.778   4.749  10.304  0.00  0.00    +0.000 C 
BRANCH  14  18
ATOM     15  C   UNL     1      46.159   2.120   7.818  0.00  0.00    +0.000 A 
ATOM     16  C   UNL     1      45.257   1.589   8.748  0.00  0.00    +0.000 A 
ATOM     17  C   UNL     1      44.475   2.432   9.544  0.00  0.00    +0.000 A 
ATOM     18  C   UNL     1      44.588   3.824   9.433  0.00  0.00    +0.000 A 
ATOM     19  C   UNL     1      45.476   4.352   8.484  0.00  0.00    +0.000 A 
ATOM     20  C   UNL     1      46.246   3.509   7.679  0.00  0.00    +0.000 A 
BRANCH  15  21
ATOM     21  C   UNL     1      47.009   1.207   6.968  0.00  0.00    +0.000 C 
BRANCH  21  22
ATOM     22  C   UNL     1      48.323   1.872   6.548  0.00  0.00    +0.000 C 
BRANCH  22  23
ATOM     23  N   UNL     1      48.365   2.082   5.102  0.00  0.00    +0.000 NA
ATOM     24  H   UNL     1      47.413   2.122   4.739  0.00  0.00    +0.000 HD
ATOM     25  H   UNL     1      48.809   1.283   4.651  0.00  0.00    +0.000 HD
ENDBRANCH  22  23
ENDBRANCH  21  22
ENDBRANCH  15  21
ENDBRANCH  14  18
ENDBRANCH   1  14
TORSDOF 7
ENDMDL
MODEL 2
REMARK VINA RESULT:    -7.879      1.712      2.238
REMARK INTER + INTRA:         -10.968
REMARK INTER:                 -10.436
REMARK INTRA:                  -0.532
REMARK UNBOUND:                -0.325
REMARK  Name = 
REMARK  7 active torsions:
REMARK  status: ('A' for Active; 'I' for Inactive)
REMARK    1  A    between atoms: N_1  and  C_2
REMARK    2  A    between atoms: C_2  and  C_3
REMARK    3  A    between atoms: C_3  and  C_4
REMARK    4  A    between atoms: C_7  and  C_8
REMARK    5  A    between atoms: C_8  and  N_9
REMARK    6  A    between atoms: CA_14  and  C_15
REMARK    7  A    between atoms: C_15  and  OXT_17
REMARK                            x       y       z     vdW  Elec       q    Type
REMARK                         _______ _______ _______ _____ _____    ______ ____
ROOT
ATOM      1  N   UNL     1      44.350   4.855  11.714  0.00  0.00    +0.000 N 
ATOM      2  C   UNL     1      43.957   4.160  12.827  0.00  0.00    +0.000 A 
ATOM      3  N   UNL     1      44.774   4.351  13.835  0.00  0.00    +0.000 NA
ATOM      4  C   UNL     1      45.748   5.194  13.364  0.00  0.00    +0.000 A 
ATOM      5  C   UNL     1      46.882   5.675  14.011  0.00  0.00    +0.000 A 
ATOM      6  CA  UNL     1      47.692   6.490  13.239  0.00  0.00    +0.000 A 
ATOM      7  N   UNL     1      47.453   6.857  11.939  0.00  0.00    +0.000 NA
ATOM      8  C   UNL     1      46.343   6.383  11.328  0.00  0.00    +0.000 A 
ATOM      9  C   UNL     1      45.499   5.541  12.038  0.00  0.00    +0.000 A 
ENDROOT
BRANCH   6  10
ATOM     10  C   UNL     1      48.967   7.017  13.811  0.00  0.00    +0.000 C 
ATOM     11  O   UNL     1      49.658   7.887  13.310  0.00  0.00    +0.000 OA
BRANCH  10  12
ATOM     12  OXT UNL     1      49.246   6.400  14.986  0.00  0.00    +0.000 OA
ATOM     13  HXT UNL     1      50.215   6.217  15.018  0.00  0.00    +0.000 HD
ENDBRANCH  10  12
ENDBRANCH   6  10
BRANCH   1  14
ATOM     14  C   UNL     1      43.760   4.710  10.391  0.00  0.00    +0.000 C 
BRANCH  14  18
ATOM     15  C   UNL     1      46.149   2.186   7.807  0.00  0.00    +0.000 A 
ATOM     16  C   UNL     1      45.334   1.618   8.792  0.00  0.00    +0.000 A 
ATOM     17  C   UNL     1      44.549   2.426   9.622  0.00  0.00    +0.000 A 
ATOM     18  C   UNL     1      44.572   3.821   9.487  0.00  0.00    +0.000 A 
ATOM     19  C   UNL     1      45.373   4.384   8.482  0.00  0.00    +0.000 A 
ATOM     20  C   UNL     1      46.146   3.576   7.646  0.00  0.00    +0.000 A 
BRANCH  15  21
ATOM     21  C   UNL     1      47.002   1.311   6.921  0.00  0.00    +0.000 C 
BRANCH  21  22
ATOM     22  C   UNL     1      48.312   1.999   6.525  0.00  0.00    +0.000 C 
BRANCH  22  23
ATOM     23  N   UNL     1      48.368   2.229   5.082  0.00  0.00    +0.000 NA
ATOM     24  H   UNL     1      49.254   2.675   4.847  0.00  0.00    +0.000 HD
ATOM     25  H   UNL     1      47.637   2.886   4.811  0.00  0.00    +0.000 HD
ENDBRANCH  22  23
ENDBRANCH  21  22
ENDBRANCH  15  21
ENDBRANCH  14  18
ENDBRANCH   1  14
TORSDOF 7
ENDMDL
MODEL 3
REMARK VINA RESULT:    -7.638      1.494      1.637
REMARK INTER + INTRA:         -10.642
REMARK INTER:                 -10.167
REMARK INTRA:                  -0.475
REMARK UNBOUND:                -0.325
REMARK  Name = 
REMARK  7 active torsions:
REMARK  status: ('A' for Active; 'I' for Inactive)
REMARK    1  A    between atoms: N_1  and  C_2
REMARK    2  A    between atoms: C_2  and  C_3
REMARK    3  A    between atoms: C_3  and  C_4
REMARK    4  A    between atoms: C_7  and  C_8
REMARK    5  A    between atoms: C_8  and  N_9
REMARK    6  A    between atoms: CA_14  and  C_15
REMARK    7  A    between atoms: C_15  and  OXT_17
REMARK                            x       y       z     vdW  Elec       q    Type
REMARK                         _______ _______ _______ _____ _____    ______ ____
ROOT
ATOM      1  N   UNL     1      44.888   6.141  11.578  0.00  0.00    +0.000 N 
ATOM      2  C   UNL     1      44.711   7.477  11.336  0.00  0.00    +0.000 A 
ATOM      3  N   UNL     1      45.546   8.214  12.029  0.00  0.00    +0.000 NA
ATOM      4  C   UNL     1      46.293   7.328  12.764  0.00  0.00    +0.000 A 
ATOM      5  C   UNL     1      47.290   7.585  13.702  0.00  0.00    +0.000 A 
ATOM      6  CA  UNL     1      47.832   6.461  14.298  0.00  0.00    +0.000 A 
ATOM      7  N   UNL     1      47.485   5.162  14.026  0.00  0.00    +0.000 NA
ATOM      8  C   UNL     1      46.517   4.932  13.109  0.00  0.00    +0.000 A 
ATOM      9  C   UNL     1      45.914   6.016  12.490  0.00  0.00    +0.000 A 
ENDROOT
BRANCH   6  10
ATOM     10  C   UNL     1      48.869   6.618  15.362  0.00  0.00    +0.000 C 
ATOM     11  O   UNL     1      50.072   6.682  15.171  0.00  0.00    +0.000 OA
BRANCH  10  12
ATOM     12  OXT UNL     1      48.282   6.695  16.582  0.00  0.00    +0.000 OA
ATOM     13  HXT UNL     1      47.648   7.451  16.572  0.00  0.00    +0.000 HD
ENDBRANCH  10  12
ENDBRANCH   6  10
BRANCH   1  14
ATOM     14  C   UNL     1      44.005   5.085  11.105  0.00  0.00    +0.000 C 
BRANCH  14  18
ATOM     15  C   UNL     1      45.910   2.614   8.101  0.00  0.00    +0.000 A 
ATOM     16  C   UNL     1      45.138   2.030   9.111  0.00  0.00    +0.000 A 
ATOM     17  C   UNL     1      44.508   2.822  10.076  0.00  0.00    +0.000 A 
ATOM     18  C   UNL     1      44.648   4.217  10.056  0.00  0.00    +0.000 A 
ATOM     19  C   UNL     1      45.403   4.800   9.027  0.00  0.00    +0.000 A 
ATOM     20  C   UNL     1      46.020   4.008   8.056  0.00  0.00    +0.000 A 
BRANCH  15  21
ATOM     21  C   UNL     1      46.596   1.754   7.067  0.00  0.00    +0.000 C 
BRANCH  21  22
ATOM     22  C   UNL     1      48.037   2.205   6.811  0.00  0.00    +0.000 C 
BRANCH  22  23
ATOM     23  N   UNL     1      48.419   1.976   5.419  0.00  0.00    +0.000 NA
ATOM     24  H   UNL     1      49.416   1.766   5.373  0.00  0.00    +0.000 HD
ATOM     25  H   UNL     1      48.284   2.831   4.880  0.00  0.00    +0.000 HD
ENDBRANCH  22  23
ENDBRANCH  21  22
ENDBRANCH  15  21
ENDBRANCH  14  18
ENDBRANCH   1  14
TORSDOF 7
ENDMDL
MODEL 4
REMARK VINA RESULT:    -7.190      3.680      7.170
REMARK INTER + INTRA:         -10.037
REMARK INTER:                  -9.594
REMARK INTRA:                  -0.443
REMARK UNBOUND:                -0.325
REMARK  Name = 
REMARK  7 active torsions:
REMARK  status: ('A' for Active; 'I' for Inactive)
REMARK    1  A    between atoms: N_1  and  C_2
REMARK    2  A    between atoms: C_2  and  C_3
REMARK    3  A    between atoms: C_3  and  C_4
REMARK    4  A    between atoms: C_7  and  C_8
REMARK    5  A    between atoms: C_8  and  N_9
REMARK    6  A    between atoms: CA_14  and  C_15
REMARK    7  A    between atoms: C_15  and  OXT_17
REMARK                            x       y       z     vdW  Elec       q    Type
REMARK                         _______ _______ _______ _____ _____    ______ ____
ROOT
ATOM      1  N   UNL     1      43.887   4.443  10.754  0.00  0.00    +0.000 N 
ATOM      2  C   UNL     1      43.393   3.267  11.252  0.00  0.00    +0.000 A 
ATOM      3  N   UNL     1      43.873   2.227  10.613  0.00  0.00    +0.000 NA
ATOM      4  C   UNL     1      44.704   2.739   9.649  0.00  0.00    +0.000 A 
ATOM      5  C   UNL     1      45.428   2.070   8.667  0.00  0.00    +0.000 A 
ATOM      6  CA  UNL     1      46.153   2.888   7.819  0.00  0.00    +0.000 A 
ATOM      7  N   UNL     1      46.221   4.256   7.888  0.00  0.00    +0.000 NA
ATOM      8  C   UNL     1      45.514   4.889   8.853  0.00  0.00    +0.000 A 
ATOM      9  C   UNL     1      44.746   4.130   9.723  0.00  0.00    +0.000 A 
ENDROOT
BRANCH   6  10
ATOM     10  C   UNL     1      46.922   2.283   6.689  0.00  0.00    +0.000 C 
ATOM     11  O   UNL     1      47.201   1.102   6.579  0.00  0.00    +0.000 OA
BRANCH  10  12
ATOM     12  OXT UNL     1      47.255   3.237   5.785  0.00  0.00    +0.000 OA
ATOM     13  HXT UNL     1      48.223   3.167   5.604  0.00  0.00    +0.000 HD
ENDBRANCH  10  12
ENDBRANCH   6  10
BRANCH   1  14
ATOM     14  C   UNL     1      43.413   5.769  11.125  0.00  0.00    +0.000 C 
BRANCH  14  18
ATOM     15  C   UNL     1      46.578   8.199  12.810  0.00  0.00    +0.000 A 
ATOM     16  C   UNL     1      45.610   8.776  11.980  0.00  0.00    +0.000 A 
ATOM     17  C   UNL     1      44.576   8.000  11.444  0.00  0.00    +0.000 A 
ATOM     18  C   UNL     1      44.498   6.628  11.719  0.00  0.00    +0.000 A 
ATOM     19  C   UNL     1      45.458   6.059  12.571  0.00  0.00    +0.000 A 
ATOM     20  C   UNL     1      46.481   6.838  13.117  0.00  0.00    +0.000 A 
BRANCH  15  21
ATOM     21  C   UNL     1      47.697   9.038  13.379  0.00  0.00    +0.000 C 
BRANCH  21  22
ATOM     22  C   UNL     1      48.203   8.489  14.715  0.00  0.00    +0.000 C 
BRANCH  22  23
ATOM     23  N   UNL     1      47.558   9.166  15.839  0.00  0.00    +0.000 NA
ATOM     24  H   UNL     1      47.754   8.654  16.698  0.00  0.00    +0.000 HD
ATOM     25  H   UNL     1      46.546   9.145  15.718  0.00  0.00    +0.000 HD
ENDBRANCH  22  23
ENDBRANCH  21  22
ENDBRANCH  15  21
ENDBRANCH  14  18
ENDBRANCH   1  14
TORSDOF 7
ENDMDL
MODEL 5
REMARK VINA RESULT:    -6.899      2.373      3.418
REMARK INTER + INTRA:          -9.644
REMARK INTER:                  -9.087
REMARK INTRA:                  -0.557
REMARK UNBOUND:                -0.325
REMARK  Name = 
REMARK  7 active torsions:
REMARK  status: ('A' for Active; 'I' for Inactive)
REMARK    1  A    between atoms: N_1  and  C_2
REMARK    2  A    between atoms: C_2  and  C_3
REMARK    3  A    between atoms: C_3  and  C_4
REMARK    4  A    between atoms: C_7  and  C_8
REMARK    5  A    between atoms: C_8  and  N_9
REMARK    6  A    between atoms: CA_14  and  C_15
REMARK    7  A    between atoms: C_15  and  OXT_17
REMARK                            x       y       z     vdW  Elec       q    Type
REMARK                         _______ _______ _______ _____ _____    ______ ____
ROOT
ATOM      1  N   UNL     1      45.566   4.939  12.732  0.00  0.00    +0.000 N 
ATOM      2  C   UNL     1      46.365   3.968  13.276  0.00  0.00    +0.000 A 
ATOM      3  N   UNL     1      47.387   4.481  13.918  0.00  0.00    +0.000 NA
ATOM      4  C   UNL     1      47.263   5.840  13.780  0.00  0.00    +0.000 A 
ATOM      5  C   UNL     1      48.109   6.850  14.231  0.00  0.00    +0.000 A 
ATOM      6  CA  UNL     1      47.713   8.133  13.897  0.00  0.00    +0.000 A 
ATOM      7  N   UNL     1      46.580   8.467  13.199  0.00  0.00    +0.000 NA
ATOM      8  C   UNL     1      45.768   7.471  12.773  0.00  0.00    +0.000 A 
ATOM      9  C   UNL     1      46.118   6.159  13.054  0.00  0.00    +0.000 A 
ENDROOT
BRANCH   6  10
ATOM     10  C   UNL     1      48.574   9.293  14.277  0.00  0.00    +0.000 C 
ATOM     11  O   UNL     1      48.581   9.839  15.367  0.00  0.00    +0.000 OA
BRANCH  10  12
ATOM     12  OXT UNL     1      49.369   9.648  13.237  0.00  0.00    +0.000 OA
ATOM     13  HXT UNL     1      49.335   8.929  12.562  0.00  0.00    +0.000 HD
ENDBRANCH  10  12
ENDBRANCH   6  10
BRANCH   1  14
ATOM     14  C   UNL     1      44.463   4.691  11.815  0.00  0.00    +0.000 C 
BRANCH  14  18
ATOM     15  C   UNL     1      45.742   3.329   7.907  0.00  0.00    +0.000 A 
ATOM     16  C   UNL     1      45.950   4.657   8.295  0.00  0.00    +0.000 A 
ATOM     17  C   UNL     1      45.552   5.101   9.561  0.00  0.00    +0.000 A 
ATOM     18  C   UNL     1      44.928   4.225  10.460  0.00  0.00    +0.000 A 
ATOM     19  C   UNL     1      44.743   2.889  10.075  0.00  0.00    +0.000 A 
ATOM     20  C   UNL     1      45.153   2.444   8.816  0.00  0.00    +0.000 A 
BRANCH  15  21
ATOM     21  C   UNL     1      46.163   2.857   6.536  0.00  0.00    +0.000 C 
BRANCH  21  22
ATOM     22  C   UNL     1      47.677   2.643   6.444  0.00  0.00    +0.000 C 
BRANCH  22  23
ATOM     23  N   UNL     1      48.046   1.306   6.905  0.00  0.00    +0.000 NA
ATOM     24  H   UNL     1      48.177   1.323   7.916  0.00  0.00    +0.000 HD
ATOM     25  H   UNL     1      48.946   1.041   6.506  0.00  0.00    +0.000 HD
ENDBRANCH  22  23
ENDBRANCH  21  22
ENDBRANCH  15  21
ENDBRANCH  14  18
ENDBRANCH   1  14
TORSDOF 7
ENDMDL
MODEL 6
REMARK VINA RESULT:    -6.073      2.341      2.661
REMARK INTER + INTRA:          -8.529
REMARK INTER:                  -8.156
REMARK INTRA:                  -0.373
REMARK UNBOUND:                -0.325
REMARK  Name = 
REMARK  7 active torsions:
REMARK  status: ('A' for Active; 'I' for Inactive)
REMARK    1  A    between atoms: N_1  and  C_2
REMARK    2  A    between atoms: C_2  and  C_3
REMARK    3  A    between atoms: C_3  and  C_4
REMARK    4  A    between atoms: C_7  and  C_8
REMARK    5  A    between atoms: C_8  and  N_9
REMARK    6  A    between atoms: CA_14  and  C_15
REMARK    7  A    between atoms: C_15  and  OXT_17
REMARK                            x       y       z     vdW  Elec       q    Type
REMARK                         _______ _______ _______ _____ _____    ______ ____
ROOT
ATOM      1  N   UNL     1      44.039   5.112  11.330  0.00  0.00    +0.000 N 
ATOM      2  C   UNL     1      42.969   5.960  11.219  0.00  0.00    +0.000 A 
ATOM      3  N   UNL     1      43.261   7.170  11.633  0.00  0.00    +0.000 NA
ATOM      4  C   UNL     1      44.569   7.112  12.043  0.00  0.00    +0.000 A 
ATOM      5  C   UNL     1      45.356   8.109  12.613  0.00  0.00    +0.000 A 
ATOM      6  CA  UNL     1      46.640   7.716  12.948  0.00  0.00    +0.000 A 
ATOM      7  N   UNL     1      47.176   6.470  12.747  0.00  0.00    +0.000 NA
ATOM      8  C   UNL     1      46.397   5.515  12.188  0.00  0.00    +0.000 A 
ATOM      9  C   UNL     1      45.090   5.835  11.849  0.00  0.00    +0.000 A 
ENDROOT
BRANCH   6  10
ATOM     10  C   UNL     1      47.556   8.687  13.620  0.00  0.00    +0.000 C 
ATOM     11  O   UNL     1      48.584   9.134  13.141  0.00  0.00    +0.000 OA
BRANCH  10  12
ATOM     12  OXT UNL     1      47.073   9.018  14.843  0.00  0.00    +0.000 OA
ATOM     13  HXT UNL     1      47.827   9.327  15.400  0.00  0.00    +0.000 HD
ENDBRANCH  10  12
ENDBRANCH   6  10
BRANCH   1  14
ATOM     14  C   UNL     1      43.984   3.672  11.125  0.00  0.00    +0.000 C 
BRANCH  14  18
ATOM     15  C   UNL     1      45.683   2.510   7.314  0.00  0.00    +0.000 A 
ATOM     16  C   UNL     1      45.558   1.574   8.347  0.00  0.00    +0.000 A 
ATOM     17  C   UNL     1      44.997   1.938   9.576  0.00  0.00    +0.000 A 
ATOM     18  C   UNL     1      44.560   3.251   9.799  0.00  0.00    +0.000 A 
ATOM     19  C   UNL     1      44.665   4.180   8.752  0.00  0.00    +0.000 A 
ATOM     20  C   UNL     1      45.212   3.811   7.521  0.00  0.00    +0.000 A 
BRANCH  15  21
ATOM     21  C   UNL     1      46.297   2.115   5.993  0.00  0.00    +0.000 C 
BRANCH  21  22
ATOM     22  C   UNL     1      47.660   2.778   5.773  0.00  0.00    +0.000 C 
BRANCH  22  23
ATOM     23  N   UNL     1      48.744   1.807   5.912  0.00  0.00    +0.000 NA
ATOM     24  H   UNL     1      49.122   1.856   6.857  0.00  0.00    +0.000 HD
ATOM     25  H   UNL     1      49.510   2.055   5.286  0.00  0.00    +0.000 HD
ENDBRANCH  22  23
ENDBRANCH  21  22
ENDBRANCH  15  21
ENDBRANCH  14  18
ENDBRANCH   1  14
TORSDOF 7
ENDMDL
MODEL 7
REMARK VINA RESULT:    -5.904      3.329      4.100
REMARK INTER + INTRA:          -8.300
REMARK INTER:                  -7.894
REMARK INTRA:                  -0.406
REMARK UNBOUND:                -0.325
REMARK  Name = 
REMARK  7 active torsions:
REMARK  status: ('A' for Active; 'I' for Inactive)
REMARK    1  A    between atoms: N_1  and  C_2
REMARK    2  A    between atoms: C_2  and  C_3
REMARK    3  A    between atoms: C_3  and  C_4
REMARK    4  A    between atoms: C_7  and  C_8
REMARK    5  A    between atoms: C_8  and  N_9
REMARK    6  A    between atoms: CA_14  and  C_15
REMARK    7  A    between atoms: C_15  and  OXT_17
REMARK                            x       y       z     vdW  Elec       q    Type
REMARK                         _______ _______ _______ _____ _____    ______ ____
ROOT
ATOM      1  N   UNL     1      45.748   7.462  12.394  0.00  0.00    +0.000 N 
ATOM      2  C   UNL     1      45.367   8.735  12.064  0.00  0.00    +0.000 A 
ATOM      3  N   UNL     1      46.397   9.541  11.963  0.00  0.00    +0.000 NA
ATOM      4  C   UNL     1      47.496   8.771  12.250  0.00  0.00    +0.000 A 
ATOM      5  C   UNL     1      48.835   9.144  12.331  0.00  0.00    +0.000 A 
ATOM      6  CA  UNL     1      49.703   8.125  12.677  0.00  0.00    +0.000 A 
ATOM      7  N   UNL     1      49.354   6.820  12.918  0.00  0.00    +0.000 NA
ATOM      8  C   UNL     1      48.049   6.475  12.830  0.00  0.00    +0.000 A 
ATOM      9  C   UNL     1      47.120   7.455  12.509  0.00  0.00    +0.000 A 
ENDROOT
BRANCH   6  10
ATOM     10  C   UNL     1      51.157   8.422  12.851  0.00  0.00    +0.000 C 
ATOM     11  O   UNL     1      51.834   9.099  12.097  0.00  0.00    +0.000 OA
BRANCH  10  12
ATOM     12  OXT UNL     1      51.623   7.842  13.986  0.00  0.00    +0.000 OA
ATOM     13  HXT UNL     1      50.999   8.055  14.720  0.00  0.00    +0.000 HD
ENDBRANCH  10  12
ENDBRANCH   6  10
BRANCH   1  14
ATOM     14  C   UNL     1      44.834   6.388  12.755  0.00  0.00    +0.000 C 
BRANCH  14  18
ATOM     15  C   UNL     1      44.848   3.094   9.942  0.00  0.00    +0.000 A 
ATOM     16  C   UNL     1      45.123   4.396   9.507  0.00  0.00    +0.000 A 
ATOM     17  C   UNL     1      45.134   5.463  10.413  0.00  0.00    +0.000 A 
ATOM     18  C   UNL     1      44.859   5.248  11.770  0.00  0.00    +0.000 A 
ATOM     19  C   UNL     1      44.607   3.938  12.205  0.00  0.00    +0.000 A 
ATOM     20  C   UNL     1      44.610   2.872  11.303  0.00  0.00    +0.000 A 
BRANCH  15  21
ATOM     21  C   UNL     1      44.827   1.948   8.960  0.00  0.00    +0.000 C 
BRANCH  21  22
ATOM     22  C   UNL     1      46.180   1.761   8.268  0.00  0.00    +0.000 C 
BRANCH  22  23
ATOM     23  N   UNL     1      46.429   0.350   7.975  0.00  0.00    +0.000 NA
ATOM     24  H   UNL     1      45.953   0.097   7.109  0.00  0.00    +0.000 HD
ATOM     25  H   UNL     1      46.018  -0.230   8.705  0.00  0.00    +0.000 HD
ENDBRANCH  22  23
ENDBRANCH  21  22
ENDBRANCH  15  21
ENDBRANCH  14  18
ENDBRANCH   1  14
TORSDOF 7
ENDMDL
MODEL 8
REMARK VINA RESULT:    -5.893      3.910      8.346
REMARK INTER + INTRA:          -8.286
REMARK INTER:                  -7.798
REMARK INTRA:                  -0.487
REMARK UNBOUND:                -0.325
REMARK  Name = 
REMARK  7 active torsions:
REMARK  status: ('A' for Active; 'I' for Inactive)
REMARK    1  A    between atoms: N_1  and  C_2
REMARK    2  A    between atoms: C_2  and  C_3
REMARK    3  A    between atoms: C_3  and  C_4
REMARK    4  A    between atoms: C_7  and  C_8
REMARK    5  A    between atoms: C_8  and  N_9
REMARK    6  A    between atoms: CA_14  and  C_15
REMARK    7  A    between atoms: C_15  and  OXT_17
REMARK                            x       y       z     vdW  Elec       q    Type
REMARK                         _______ _______ _______ _____ _____    ______ ____
ROOT
ATOM      1  N   UNL     1      47.369   6.790  13.679  0.00  0.00    +0.000 N 
ATOM      2  C   UNL     1      46.739   7.911  13.206  0.00  0.00    +0.000 A 
ATOM      3  N   UNL     1      45.622   7.616  12.584  0.00  0.00    +0.000 NA
ATOM      4  C   UNL     1      45.520   6.249  12.640  0.00  0.00    +0.000 A 
ATOM      5  C   UNL     1      44.548   5.417  12.091  0.00  0.00    +0.000 A 
ATOM      6  CA  UNL     1      44.754   4.065  12.301  0.00  0.00    +0.000 A 
ATOM      7  N   UNL     1      45.796   3.511  13.000  0.00  0.00    +0.000 NA
ATOM      8  C   UNL     1      46.729   4.336  13.530  0.00  0.00    +0.000 A 
ATOM      9  C   UNL     1      46.596   5.703  13.337  0.00  0.00    +0.000 A 
ENDROOT
BRANCH   6  10
ATOM     10  C   UNL     1      43.806   3.074  11.708  0.00  0.00    +0.000 C 
ATOM     11  O   UNL     1      43.379   3.102  10.566  0.00  0.00    +0.000 OA
BRANCH  10  12
ATOM     12  OXT UNL     1      43.493   2.119  12.619  0.00  0.00    +0.000 OA
ATOM     13  HXT UNL     1      43.184   1.318  12.134  0.00  0.00    +0.000 HD
ENDBRANCH  10  12
ENDBRANCH   6  10
BRANCH   1  14
ATOM     14  C   UNL     1      48.707   6.768  14.251  0.00  0.00    +0.000 C 
BRANCH  14  18
ATOM     15  C   UNL     1      48.727   6.750  18.582  0.00  0.00    +0.000 A 
ATOM     16  C   UNL     1      48.704   7.960  17.880  0.00  0.00    +0.000 A 
ATOM     17  C   UNL     1      48.683   7.974  16.482  0.00  0.00    +0.000 A 
ATOM     18  C   UNL     1      48.696   6.774  15.757  0.00  0.00    +0.000 A 
ATOM     19  C   UNL     1      48.696   5.563  16.465  0.00  0.00    +0.000 A 
ATOM     20  C   UNL     1      48.703   5.551  17.861  0.00  0.00    +0.000 A 
BRANCH  15  21
ATOM     21  C   UNL     1      48.760   6.740  20.091  0.00  0.00    +0.000 C 
BRANCH  21  22
ATOM     22  C   UNL     1      47.605   5.928  20.685  0.00  0.00    +0.000 C 
BRANCH  22  23
ATOM     23  N   UNL     1      48.065   4.617  21.139  0.00  0.00    +0.000 NA
ATOM     24  H   UNL     1      48.582   4.162  20.386  0.00  0.00    +0.000 HD
ATOM     25  H   UNL     1      47.263   4.019  21.335  0.00  0.00    +0.000 HD
ENDBRANCH  22  23
ENDBRANCH  21  22
ENDBRANCH  15  21
ENDBRANCH  14  18
ENDBRANCH   1  14
TORSDOF 7
ENDMDL
MODEL 9
REMARK VINA RESULT:    -5.595      4.553      6.253
REMARK INTER + INTRA:          -7.884
REMARK INTER:                  -7.349
REMARK INTRA:                  -0.534
REMARK UNBOUND:                -0.325
REMARK  Name = 
REMARK  7 active torsions:
REMARK  status: ('A' for Active; 'I' for Inactive)
REMARK    1  A    between atoms: N_1  and  C_2
REMARK    2  A    between atoms: C_2  and  C_3
REMARK    3  A    between atoms: C_3  and  C_4
REMARK    4  A    between atoms: C_7  and  C_8
REMARK    5  A    between atoms: C_8  and  N_9
REMARK    6  A    between atoms: CA_14  and  C_15
REMARK    7  A    between atoms: C_15  and  OXT_17
REMARK                            x       y       z     vdW  Elec       q    Type
REMARK                         _______ _______ _______ _____ _____    ______ ____
ROOT
ATOM      1  N   UNL     1      46.192   7.623  13.005  0.00  0.00    +0.000 N 
ATOM      2  C   UNL     1      45.508   8.431  12.137  0.00  0.00    +0.000 A 
ATOM      3  N   UNL     1      44.632   7.757  11.430  0.00  0.00    +0.000 NA
ATOM      4  C   UNL     1      44.754   6.454  11.841  0.00  0.00    +0.000 A 
ATOM      5  C   UNL     1      44.090   5.320  11.379  0.00  0.00    +0.000 A 
ATOM      6  CA  UNL     1      44.468   4.136  11.986  0.00  0.00    +0.000 A 
ATOM      7  N   UNL     1      45.399   4.008  12.986  0.00  0.00    +0.000 NA
ATOM      8  C   UNL     1      46.030   5.122  13.426  0.00  0.00    +0.000 A 
ATOM      9  C   UNL     1      45.715   6.341  12.843  0.00  0.00    +0.000 A 
ENDROOT
BRANCH   6  10
ATOM     10  C   UNL     1      43.865   2.848  11.529  0.00  0.00    +0.000 C 
ATOM     11  O   UNL     1      43.763   2.490  10.368  0.00  0.00    +0.000 OA
BRANCH  10  12
ATOM     12  OXT UNL     1      43.457   2.116  12.595  0.00  0.00    +0.000 OA
ATOM     13  HXT UNL     1      43.797   1.196  12.487  0.00  0.00    +0.000 HD
ENDBRANCH  10  12
ENDBRANCH   6  10
BRANCH   1  14
ATOM     14  C   UNL     1      47.346   8.034  13.791  0.00  0.00    +0.000 C 
BRANCH  14  18
ATOM     15  C   UNL     1      50.722   9.068  11.282  0.00  0.00    +0.000 A 
ATOM     16  C   UNL     1      50.026  10.064  11.977  0.00  0.00    +0.000 A 
ATOM     17  C   UNL     1      48.944   9.737  12.800  0.00  0.00    +0.000 A 
ATOM     18  C   UNL     1      48.529   8.405  12.936  0.00  0.00    +0.000 A 
ATOM     19  C   UNL     1      49.244   7.407  12.256  0.00  0.00    +0.000 A 
ATOM     20  C   UNL     1      50.333   7.734  11.445  0.00  0.00    +0.000 A 
BRANCH  15  21
ATOM     21  C   UNL     1      51.883   9.428  10.387  0.00  0.00    +0.000 C 
BRANCH  21  22
ATOM     22  C   UNL     1      52.636   8.187   9.898  0.00  0.00    +0.000 C 
BRANCH  22  23
ATOM     23  N   UNL     1      52.966   8.300   8.478  0.00  0.00    +0.000 NA
ATOM     24  H   UNL     1      53.390   7.428   8.161  0.00  0.00    +0.000 HD
ATOM     25  H   UNL     1      53.672   9.023   8.346  0.00  0.00    +0.000 HD
ENDBRANCH  22  23
ENDBRANCH  21  22
ENDBRANCH  15  21
ENDBRANCH  14  18
ENDBRANCH   1  14
TORSDOF 7
ENDMDL
