MODEL 1
REMARK VINA RESULT:    -7.985      0.000      0.000
REMARK INTER + INTRA:         -11.142
REMARK INTER:                 -10.318
REMARK INTRA:                  -0.823
REMARK UNBOUND:                -0.823
REMARK  Name = 
REMARK  5 active torsions:
REMARK  status: ('A' for Active; 'I' for Inactive)
REMARK    1  A    between atoms: C_2  and  C_3
REMARK    2  A    between atoms: C_7  and  N_8
REMARK    3  A    between atoms: N_8  and  C_9
REMARK    4  A    between atoms: C_9  and  C_10
REMARK    5  A    between atoms: C_14  and  C_15
REMARK                            x       y       z     vdW  Elec       q    Type
REMARK                         _______ _______ _______ _____ _____    ______ ____
ROOT
ATOM      1  C   UNL     1      43.805   5.037  11.485  0.00  0.00    +0.000 C 
ATOM      2  C   UNL     1      42.502   5.426  12.191  0.00  0.00    +0.000 C 
ATOM      3  C   UNL     1      42.997   6.247  11.051  0.00  0.00    +0.000 C 
ENDROOT
BRANCH   1   4
ATOM      4  C   UNL     1      45.091   5.292  12.273  0.00  0.00    +0.000 A 
ATOM      5  C   UNL     1      45.634   4.326  13.128  0.00  0.00    +0.000 A 
ATOM      6  C   UNL     1      46.897   4.499  13.695  0.00  0.00    +0.000 A 
ATOM      7  C   UNL     1      47.647   5.639  13.398  0.00  0.00    +0.000 A 
ATOM      8  C   UNL     1      47.135   6.652  12.574  0.00  0.00    +0.000 A 
ATOM      9  C   UNL     1      45.833   6.476  12.077  0.00  0.00    +0.000 A 
BRANCH   8  10
ATOM     10  C   UNL     1      47.954   7.803  12.146  0.00  0.00    +0.000 A 
ATOM     11  C   UNL     1      49.306   7.685  11.788  0.00  0.00    +0.000 A 
ATOM     12  C   UNL     1      50.054   8.815  11.455  0.00  0.00    +0.000 A 
ATOM     13  C   UNL     1      49.429  10.049  11.479  0.00  0.00    +0.000 A 
ATOM     14  N   UNL     1      48.136  10.222  11.816  0.00  0.00    +0.000 NA
ATOM     15  C   UNL     1      47.442   9.104  12.144  0.00  0.00    +0.000 A 
ENDBRANCH   8  10
ENDBRANCH   1   4
BRANCH   1  16
ATOM     16  N   UNL     1      43.790   3.752  10.749  0.00  0.00    +0.000 N 
ATOM     17  H   UNL     1      43.754   2.950  11.374  0.00  0.00    +0.000 HD
BRANCH  16  22
ATOM     18  C   UNL     1      45.969   2.052   8.219  0.00  0.00    +0.000 A 
ATOM     19  C   UNL     1      46.390   3.177   7.532  0.00  0.00    +0.000 A 
ATOM     20  N   UNL     1      45.979   4.434   7.826  0.00  0.00    +0.000 NA
ATOM     21  C   UNL     1      45.123   4.553   8.869  0.00  0.00    +0.000 A 
ATOM     22  C   UNL     1      44.610   3.489   9.626  0.00  0.00    +0.000 A 
ATOM     23  C   UNL     1      45.061   2.219   9.278  0.00  0.00    +0.000 A 
BRANCH  18  25
ATOM     24  N   UNL     1      46.879  -0.288   7.590  0.00  0.00    +0.000 NA
ATOM     25  C   UNL     1      46.472   0.762   7.874  0.00  0.00    +0.000 C 
ENDBRANCH  18  25
ENDBRANCH  16  22
ENDBRANCH   1  16
TORSDOF 5
ENDMDL
MODEL 2
REMARK VINA RESULT:    -7.883      2.209      3.684
REMARK INTER + INTRA:         -11.011
REMARK INTER:                 -10.485
REMARK INTRA:                  -0.526
REMARK UNBOUND:                -0.823
REMARK  Name = 
REMARK  5 active torsions:
REMARK  status: ('A' for Active; 'I' for Inactive)
REMARK    1  A    between atoms: C_2  and  C_3
REMARK    2  A    between atoms: C_7  and  N_8
REMARK    3  A    between atoms: N_8  and  C_9
REMARK    4  A    between atoms: C_9  and  C_10
REMARK    5  A    between atoms: C_14  and  C_15
REMARK                            x       y       z     vdW  Elec       q    Type
REMARK                         _______ _______ _______ _____ _____    ______ ____
ROOT
ATOM      1  C   UNL     1      44.066   4.929  11.856  0.00  0.00    +0.000 C 
ATOM      2  C   UNL     1      42.914   5.178  12.835  0.00  0.00    +0.000 C 
ATOM      3  C   UNL     1      43.042   6.024  11.616  0.00  0.00    +0.000 C 
ENDROOT
BRANCH   1   4
ATOM      4  C   UNL     1      45.454   5.351  12.338  0.00  0.00    +0.000 A 
ATOM      5  C   UNL     1      46.165   6.387  11.720  0.00  0.00    +0.000 A 
ATOM      6  C   UNL     1      47.342   6.882  12.280  0.00  0.00    +0.000 A 
ATOM      7  C   UNL     1      47.819   6.358  13.483  0.00  0.00    +0.000 A 
ATOM      8  C   UNL     1      47.163   5.298  14.126  0.00  0.00    +0.000 A 
ATOM      9  C   UNL     1      46.019   4.778  13.497  0.00  0.00    +0.000 A 
BRANCH   8  10
ATOM     10  C   UNL     1      47.575   4.812  15.458  0.00  0.00    +0.000 A 
ATOM     11  C   UNL     1      47.142   3.588  15.989  0.00  0.00    +0.000 A 
ATOM     12  C   UNL     1      47.506   3.206  17.281  0.00  0.00    +0.000 A 
ATOM     13  C   UNL     1      48.308   4.058  18.018  0.00  0.00    +0.000 A 
ATOM     14  N   UNL     1      48.751   5.245  17.560  0.00  0.00    +0.000 NA
ATOM     15  C   UNL     1      48.369   5.590  16.305  0.00  0.00    +0.000 A 
ENDBRANCH   8  10
ENDBRANCH   1   4
BRANCH   1  16
ATOM     16  N   UNL     1      44.042   3.634  11.137  0.00  0.00    +0.000 N 
ATOM     17  H   UNL     1      44.181   2.843  11.763  0.00  0.00    +0.000 HD
BRANCH  16  22
ATOM     18  C   UNL     1      45.920   2.084   8.290  0.00  0.00    +0.000 A 
ATOM     19  C   UNL     1      46.112   3.227   7.534  0.00  0.00    +0.000 A 
ATOM     20  N   UNL     1      45.638   4.446   7.883  0.00  0.00    +0.000 NA
ATOM     21  C   UNL     1      44.960   4.510   9.055  0.00  0.00    +0.000 A 
ATOM     22  C   UNL     1      44.684   3.421   9.894  0.00  0.00    +0.000 A 
ATOM     23  C   UNL     1      45.190   2.190   9.485  0.00  0.00    +0.000 A 
BRANCH  18  25
ATOM     24  N   UNL     1      46.932  -0.176   7.534  0.00  0.00    +0.000 NA
ATOM     25  C   UNL     1      46.480   0.838   7.874  0.00  0.00    +0.000 C 
ENDBRANCH  18  25
ENDBRANCH  16  22
ENDBRANCH   1  16
TORSDOF 5
ENDMDL
MODEL 3
REMARK VINA RESULT:    -7.368      2.472      6.800
REMARK INTER + INTRA:         -10.346
REMARK INTER:                  -9.466
REMARK INTRA:                  -0.880
REMARK UNBOUND:                -0.823
REMARK  Name = 
REMARK  5 active torsions:
REMARK  status: ('A' for Active; 'I' for Inactive)
REMARK    1  A    between atoms: C_2  and  C_3
REMARK    2  A    between atoms: C_7  and  N_8
REMARK    3  A    between atoms: N_8  and  C_9
REMARK    4  A    between atoms: C_9  and  C_10
REMARK    5  A    between atoms: C_14  and  C_15
REMARK                            x       y       z     vdW  Elec       q    Type
REMARK                         _______ _______ _______ _____ _____    ______ ____
ROOT
ATOM      1  C   UNL     1      45.268   5.806  12.044  0.00  0.00    +0.000 C 
ATOM      2  C   UNL     1      44.466   7.003  11.526  0.00  0.00    +0.000 C 
ATOM      3  C   UNL     1      44.181   6.457  12.881  0.00  0.00    +0.000 C 
ENDROOT
BRANCH   1   4
ATOM      4  C   UNL     1      44.949   4.459  11.396  0.00  0.00    +0.000 A 
ATOM      5  C   UNL     1      43.843   3.695  11.789  0.00  0.00    +0.000 A 
ATOM      6  C   UNL     1      43.460   2.564  11.068  0.00  0.00    +0.000 A 
ATOM      7  C   UNL     1      44.172   2.187   9.927  0.00  0.00    +0.000 A 
ATOM      8  C   UNL     1      45.307   2.898   9.509  0.00  0.00    +0.000 A 
ATOM      9  C   UNL     1      45.703   3.991  10.298  0.00  0.00    +0.000 A 
BRANCH   8  10
ATOM     10  C   UNL     1      45.999   2.596   8.241  0.00  0.00    +0.000 A 
ATOM     11  C   UNL     1      46.130   3.533   7.205  0.00  0.00    +0.000 A 
ATOM     12  C   UNL     1      46.735   3.176   5.998  0.00  0.00    +0.000 A 
ATOM     13  C   UNL     1      47.206   1.883   5.854  0.00  0.00    +0.000 A 
ATOM     14  N   UNL     1      47.104   0.943   6.814  0.00  0.00    +0.000 NA
ATOM     15  C   UNL     1      46.502   1.321   7.969  0.00  0.00    +0.000 A 
ENDBRANCH   8  10
ENDBRANCH   1   4
BRANCH   1  16
ATOM     16  N   UNL     1      46.712   6.040  12.277  0.00  0.00    +0.000 N 
ATOM     17  H   UNL     1      47.286   5.704  11.506  0.00  0.00    +0.000 HD
BRANCH  16  22
ATOM     18  C   UNL     1      47.546   4.752  15.696  0.00  0.00    +0.000 A 
ATOM     19  C   UNL     1      48.549   5.652  16.007  0.00  0.00    +0.000 A 
ATOM     20  N   UNL     1      48.981   6.617  15.161  0.00  0.00    +0.000 NA
ATOM     21  C   UNL     1      48.357   6.681  13.960  0.00  0.00    +0.000 A 
ATOM     22  C   UNL     1      47.346   5.814  13.523  0.00  0.00    +0.000 A 
ATOM     23  C   UNL     1      46.943   4.837  14.430  0.00  0.00    +0.000 A 
BRANCH  18  25
ATOM     24  N   UNL     1      46.771   2.997  17.434  0.00  0.00    +0.000 NA
ATOM     25  C   UNL     1      47.119   3.782  16.653  0.00  0.00    +0.000 C 
ENDBRANCH  18  25
ENDBRANCH  16  22
ENDBRANCH   1  16
TORSDOF 5
ENDMDL
MODEL 4
REMARK VINA RESULT:    -7.177      1.657      2.388
REMARK INTER + INTRA:         -10.098
REMARK INTER:                  -9.983
REMARK INTRA:                  -0.114
REMARK UNBOUND:                -0.823
REMARK  Name = 
REMARK  5 active torsions:
REMARK  status: ('A' for Active; 'I' for Inactive)
REMARK    1  A    between atoms: C_2  and  C_3
REMARK    2  A    between atoms: C_7  and  N_8
REMARK    3  A    between atoms: N_8  and  C_9
REMARK    4  A    between atoms: C_9  and  C_10
REMARK    5  A    between atoms: C_14  and  C_15
REMARK                            x       y       z     vdW  Elec       q    Type
REMARK                         _______ _______ _______ _____ _____    ______ ____
ROOT
ATOM      1  C   UNL     1      44.477   4.498  11.577  0.00  0.00    +0.000 C 
ATOM      2  C   UNL     1      45.172   3.396  12.383  0.00  0.00    +0.000 C 
ATOM      3  C   UNL     1      43.851   3.916  12.832  0.00  0.00    +0.000 C 
ENDROOT
BRANCH   1   4
ATOM      4  C   UNL     1      45.098   5.891  11.677  0.00  0.00    +0.000 A 
ATOM      5  C   UNL     1      44.375   7.045  11.353  0.00  0.00    +0.000 A 
ATOM      6  C   UNL     1      44.890   8.313  11.622  0.00  0.00    +0.000 A 
ATOM      7  C   UNL     1      46.136   8.445  12.240  0.00  0.00    +0.000 A 
ATOM      8  C   UNL     1      46.915   7.322  12.555  0.00  0.00    +0.000 A 
ATOM      9  C   UNL     1      46.395   6.065  12.207  0.00  0.00    +0.000 A 
BRANCH   8  10
ATOM     10  C   UNL     1      48.173   7.430  13.320  0.00  0.00    +0.000 A 
ATOM     11  C   UNL     1      49.270   8.185  12.878  0.00  0.00    +0.000 A 
ATOM     12  C   UNL     1      50.461   8.199  13.605  0.00  0.00    +0.000 A 
ATOM     13  C   UNL     1      50.530   7.459  14.772  0.00  0.00    +0.000 A 
ATOM     14  N   UNL     1      49.509   6.715  15.242  0.00  0.00    +0.000 NA
ATOM     15  C   UNL     1      48.371   6.716  14.505  0.00  0.00    +0.000 A 
ENDBRANCH   8  10
ENDBRANCH   1   4
BRANCH   1  16
ATOM     16  N   UNL     1      44.036   4.127  10.212  0.00  0.00    +0.000 N 
ATOM     17  H   UNL     1      43.189   3.563  10.220  0.00  0.00    +0.000 HD
BRANCH  16  22
ATOM     18  C   UNL     1      46.219   2.027   8.007  0.00  0.00    +0.000 A 
ATOM     19  C   UNL     1      46.851   3.050   7.322  0.00  0.00    +0.000 A 
ATOM     20  N   UNL     1      46.581   4.362   7.516  0.00  0.00    +0.000 NA
ATOM     21  C   UNL     1      45.646   4.646   8.455  0.00  0.00    +0.000 A 
ATOM     22  C   UNL     1      44.924   3.700   9.196  0.00  0.00    +0.000 A 
ATOM     23  C   UNL     1      45.238   2.366   8.954  0.00  0.00    +0.000 A 
BRANCH  18  25
ATOM     24  N   UNL     1      46.874  -0.441   7.583  0.00  0.00    +0.000 NA
ATOM     25  C   UNL     1      46.582   0.666   7.774  0.00  0.00    +0.000 C 
ENDBRANCH  18  25
ENDBRANCH  16  22
ENDBRANCH   1  16
TORSDOF 5
ENDMDL
MODEL 5
REMARK VINA RESULT:    -7.120      2.505      6.791
REMARK INTER + INTRA:         -10.024
REMARK INTER:                  -9.086
REMARK INTRA:                  -0.939
REMARK UNBOUND:                -0.823
REMARK  Name = 
REMARK  5 active torsions:
REMARK  status: ('A' for Active; 'I' for Inactive)
REMARK    1  A    between atoms: C_2  and  C_3
REMARK    2  A    between atoms: C_7  and  N_8
REMARK    3  A    between atoms: N_8  and  C_9
REMARK    4  A    between atoms: C_9  and  C_10
REMARK    5  A    between atoms: C_14  and  C_15
REMARK                            x       y       z     vdW  Elec       q    Type
REMARK                         _______ _______ _______ _____ _____    ______ ____
ROOT
ATOM      1  C   UNL     1      46.256   7.384  12.402  0.00  0.00    +0.000 C 
ATOM      2  C   UNL     1      46.185   8.786  11.788  0.00  0.00    +0.000 C 
ATOM      3  C   UNL     1      45.643   8.551  13.155  0.00  0.00    +0.000 C 
ENDROOT
BRANCH   1   4
ATOM      4  C   UNL     1      45.302   6.347  11.808  0.00  0.00    +0.000 A 
ATOM      5  C   UNL     1      43.924   6.389  12.051  0.00  0.00    +0.000 A 
ATOM      6  C   UNL     1      43.048   5.553  11.359  0.00  0.00    +0.000 A 
ATOM      7  C   UNL     1      43.538   4.670  10.395  0.00  0.00    +0.000 A 
ATOM      8  C   UNL     1      44.913   4.565  10.136  0.00  0.00    +0.000 A 
ATOM      9  C   UNL     1      45.771   5.373  10.901  0.00  0.00    +0.000 A 
BRANCH   8  10
ATOM     10  C   UNL     1      45.443   3.734   9.038  0.00  0.00    +0.000 A 
ATOM     11  C   UNL     1      45.501   2.333   9.103  0.00  0.00    +0.000 A 
ATOM     12  C   UNL     1      46.075   1.598   8.064  0.00  0.00    +0.000 A 
ATOM     13  C   UNL     1      46.574   2.281   6.971  0.00  0.00    +0.000 A 
ATOM     14  N   UNL     1      46.547   3.623   6.856  0.00  0.00    +0.000 NA
ATOM     15  C   UNL     1      45.993   4.307   7.888  0.00  0.00    +0.000 A 
ENDBRANCH   8  10
ENDBRANCH   1   4
BRANCH   1  16
ATOM     16  N   UNL     1      47.614   6.865  12.688  0.00  0.00    +0.000 N 
ATOM     17  H   UNL     1      47.947   6.237  11.959  0.00  0.00    +0.000 HD
BRANCH  16  22
ATOM     18  C   UNL     1      47.821   5.063  15.966  0.00  0.00    +0.000 A 
ATOM     19  C   UNL     1      48.799   5.843  16.559  0.00  0.00    +0.000 A 
ATOM     20  N   UNL     1      49.405   6.885  15.942  0.00  0.00    +0.000 NA
ATOM     21  C   UNL     1      48.989   7.155  14.681  0.00  0.00    +0.000 A 
ATOM     22  C   UNL     1      48.025   6.427  13.969  0.00  0.00    +0.000 A 
ATOM     23  C   UNL     1      47.438   5.363  14.649  0.00  0.00    +0.000 A 
BRANCH  18  25
ATOM     24  N   UNL     1      46.696   3.138  17.281  0.00  0.00    +0.000 NA
ATOM     25  C   UNL     1      47.202   4.001  16.692  0.00  0.00    +0.000 C 
ENDBRANCH  18  25
ENDBRANCH  16  22
ENDBRANCH   1  16
TORSDOF 5
ENDMDL
MODEL 6
REMARK VINA RESULT:    -6.425      2.801      7.232
REMARK INTER + INTRA:          -9.126
REMARK INTER:                  -8.122
REMARK INTRA:                  -1.005
REMARK UNBOUND:                -0.823
REMARK  Name = 
REMARK  5 active torsions:
REMARK  status: ('A' for Active; 'I' for Inactive)
REMARK    1  A    between atoms: C_2  and  C_3
REMARK    2  A    between atoms: C_7  and  N_8
REMARK    3  A    between atoms: N_8  and  C_9
REMARK    4  A    between atoms: C_9  and  C_10
REMARK    5  A    between atoms: C_14  and  C_15
REMARK                            x       y       z     vdW  Elec       q    Type
REMARK                         _______ _______ _______ _____ _____    ______ ____
ROOT
ATOM      1  C   UNL     1      48.689   8.158  12.785  0.00  0.00    +0.000 C 
ATOM      2  C   UNL     1      49.487   8.884  11.697  0.00  0.00    +0.000 C 
ATOM      3  C   UNL     1      49.078   9.619  12.927  0.00  0.00    +0.000 C 
ENDROOT
BRANCH   1   4
ATOM      4  C   UNL     1      47.231   7.846  12.445  0.00  0.00    +0.000 A 
ATOM      5  C   UNL     1      46.218   8.801  12.594  0.00  0.00    +0.000 A 
ATOM      6  C   UNL     1      44.932   8.564  12.110  0.00  0.00    +0.000 A 
ATOM      7  C   UNL     1      44.642   7.367  11.451  0.00  0.00    +0.000 A 
ATOM      8  C   UNL     1      45.611   6.364  11.305  0.00  0.00    +0.000 A 
ATOM      9  C   UNL     1      46.876   6.609  11.865  0.00  0.00    +0.000 A 
BRANCH   8  10
ATOM     10  C   UNL     1      45.366   5.147  10.504  0.00  0.00    +0.000 A 
ATOM     11  C   UNL     1      45.728   5.040   9.153  0.00  0.00    +0.000 A 
ATOM     12  C   UNL     1      45.414   3.893   8.423  0.00  0.00    +0.000 A 
ATOM     13  C   UNL     1      44.746   2.866   9.066  0.00  0.00    +0.000 A 
ATOM     14  N   UNL     1      44.373   2.915  10.359  0.00  0.00    +0.000 NA
ATOM     15  C   UNL     1      44.685   4.049  11.035  0.00  0.00    +0.000 A 
ENDBRANCH   8  10
ENDBRANCH   1   4
BRANCH   1  16
ATOM     16  N   UNL     1      49.395   7.065  13.491  0.00  0.00    +0.000 N 
ATOM     17  H   UNL     1      49.509   6.239  12.907  0.00  0.00    +0.000 HD
BRANCH  16  22
ATOM     18  C   UNL     1      48.067   5.365  16.555  0.00  0.00    +0.000 A 
ATOM     19  C   UNL     1      48.512   6.276  17.496  0.00  0.00    +0.000 A 
ATOM     20  N   UNL     1      49.239   7.377  17.189  0.00  0.00    +0.000 NA
ATOM     21  C   UNL     1      49.507   7.568  15.875  0.00  0.00    +0.000 A 
ATOM     22  C   UNL     1      49.130   6.707  14.835  0.00  0.00    +0.000 A 
ATOM     23  C   UNL     1      48.389   5.589  15.206  0.00  0.00    +0.000 A 
BRANCH  18  25
ATOM     24  N   UNL     1      46.634   3.332  17.272  0.00  0.00    +0.000 NA
ATOM     25  C   UNL     1      47.275   4.244  16.950  0.00  0.00    +0.000 C 
ENDBRANCH  18  25
ENDBRANCH  16  22
ENDBRANCH   1  16
TORSDOF 5
ENDMDL
MODEL 7
REMARK VINA RESULT:    -6.413      2.484      4.522
REMARK INTER + INTRA:          -9.110
REMARK INTER:                  -8.276
REMARK INTRA:                  -0.835
REMARK UNBOUND:                -0.823
REMARK  Name = 
REMARK  5 active torsions:
REMARK  status: ('A' for Active; 'I' for Inactive)
REMARK    1  A    between atoms: C_2  and  C_3
REMARK    2  A    between atoms: C_7  and  N_8
REMARK    3  A    between atoms: N_8  and  C_9
REMARK    4  A    between atoms: C_9  and  C_10
REMARK    5  A    between atoms: C_14  and  C_15
REMARK                            x       y       z     vdW  Elec       q    Type
REMARK                         _______ _______ _______ _____ _____    ______ ____
ROOT
ATOM      1  C   UNL     1      45.225   7.829  12.111  0.00  0.00    +0.000 C 
ATOM      2  C   UNL     1      44.754   9.219  12.550  0.00  0.00    +0.000 C 
ATOM      3  C   UNL     1      45.144   8.987  11.132  0.00  0.00    +0.000 C 
ENDROOT
BRANCH   1   4
ATOM      4  C   UNL     1      46.613   7.410  12.597  0.00  0.00    +0.000 A 
ATOM      5  C   UNL     1      47.777   8.023  12.118  0.00  0.00    +0.000 A 
ATOM      6  C   UNL     1      49.016   7.761  12.700  0.00  0.00    +0.000 A 
ATOM      7  C   UNL     1      49.108   6.891  13.789  0.00  0.00    +0.000 A 
ATOM      8  C   UNL     1      47.978   6.226  14.286  0.00  0.00    +0.000 A 
ATOM      9  C   UNL     1      46.758   6.461  13.631  0.00  0.00    +0.000 A 
BRANCH   8  10
ATOM     10  C   UNL     1      48.028   5.402  15.510  0.00  0.00    +0.000 A 
ATOM     11  C   UNL     1      48.934   5.643  16.553  0.00  0.00    +0.000 A 
ATOM     12  C   UNL     1      48.985   4.793  17.660  0.00  0.00    +0.000 A 
ATOM     13  C   UNL     1      48.118   3.716  17.703  0.00  0.00    +0.000 A 
ATOM     14  N   UNL     1      47.230   3.436  16.730  0.00  0.00    +0.000 NA
ATOM     15  C   UNL     1      47.214   4.275  15.665  0.00  0.00    +0.000 A 
ENDBRANCH   8  10
ENDBRANCH   1   4
BRANCH   1  16
ATOM     16  N   UNL     1      44.211   6.750  12.167  0.00  0.00    +0.000 N 
ATOM     17  H   UNL     1      43.920   6.544  13.120  0.00  0.00    +0.000 HD
BRANCH  16  22
ATOM     18  C   UNL     1      44.992   4.288   9.452  0.00  0.00    +0.000 A 
ATOM     19  C   UNL     1      44.149   3.269   9.861  0.00  0.00    +0.000 A 
ATOM     20  N   UNL     1      43.381   3.332  10.974  0.00  0.00    +0.000 NA
ATOM     21  C   UNL     1      43.459   4.480  11.689  0.00  0.00    +0.000 A 
ATOM     22  C   UNL     1      44.288   5.570  11.389  0.00  0.00    +0.000 A 
ATOM     23  C   UNL     1      45.060   5.452  10.237  0.00  0.00    +0.000 A 
BRANCH  18  25
ATOM     24  N   UNL     1      46.360   4.069   7.266  0.00  0.00    +0.000 NA
ATOM     25  C   UNL     1      45.746   4.165   8.246  0.00  0.00    +0.000 C 
ENDBRANCH  18  25
ENDBRANCH  16  22
ENDBRANCH   1  16
TORSDOF 5
ENDMDL
MODEL 8
REMARK VINA RESULT:    -6.351      1.728      7.063
REMARK INTER + INTRA:          -9.031
REMARK INTER:                  -8.264
REMARK INTRA:                  -0.767
REMARK UNBOUND:                -0.823
REMARK  Name = 
REMARK  5 active torsions:
REMARK  status: ('A' for Active; 'I' for Inactive)
REMARK    1  A    between atoms: C_2  and  C_3
REMARK    2  A    between atoms: C_7  and  N_8
REMARK    3  A    between atoms: N_8  and  C_9
REMARK    4  A    between atoms: C_9  and  C_10
REMARK    5  A    between atoms: C_14  and  C_15
REMARK                            x       y       z     vdW  Elec       q    Type
REMARK                         _______ _______ _______ _____ _____    ______ ____
ROOT
ATOM      1  C   UNL     1      46.219   6.282  12.965  0.00  0.00    +0.000 C 
ATOM      2  C   UNL     1      46.857   5.440  14.074  0.00  0.00    +0.000 C 
ATOM      3  C   UNL     1      47.690   5.909  12.932  0.00  0.00    +0.000 C 
ENDROOT
BRANCH   1   4
ATOM      4  C   UNL     1      45.278   5.536  12.019  0.00  0.00    +0.000 A 
ATOM      5  C   UNL     1      43.900   5.783  12.003  0.00  0.00    +0.000 A 
ATOM      6  C   UNL     1      43.084   5.233  11.015  0.00  0.00    +0.000 A 
ATOM      7  C   UNL     1      43.641   4.436  10.012  0.00  0.00    +0.000 A 
ATOM      8  C   UNL     1      45.009   4.131  10.000  0.00  0.00    +0.000 A 
ATOM      9  C   UNL     1      45.789   4.646  11.050  0.00  0.00    +0.000 A 
BRANCH   8  10
ATOM     10  C   UNL     1      45.641   3.398   8.885  0.00  0.00    +0.000 A 
ATOM     11  C   UNL     1      46.111   4.035   7.726  0.00  0.00    +0.000 A 
ATOM     12  C   UNL     1      46.639   3.289   6.671  0.00  0.00    +0.000 A 
ATOM     13  C   UNL     1      46.694   1.913   6.800  0.00  0.00    +0.000 A 
ATOM     14  N   UNL     1      46.255   1.249   7.888  0.00  0.00    +0.000 NA
ATOM     15  C   UNL     1      45.739   2.004   8.889  0.00  0.00    +0.000 A 
ENDBRANCH   8  10
ENDBRANCH   1   4
BRANCH   1  16
ATOM     16  N   UNL     1      45.738   7.626  13.362  0.00  0.00    +0.000 N 
ATOM     17  H   UNL     1      44.779   7.608  13.703  0.00  0.00    +0.000 HD
BRANCH  16  22
ATOM     18  C   UNL     1      47.442  10.461  11.600  0.00  0.00    +0.000 A 
ATOM     19  C   UNL     1      46.322  11.224  11.324  0.00  0.00    +0.000 A 
ATOM     20  N   UNL     1      45.061  10.851  11.647  0.00  0.00    +0.000 NA
ATOM     21  C   UNL     1      44.936   9.666  12.291  0.00  0.00    +0.000 A 
ATOM     22  C   UNL     1      45.990   8.797  12.607  0.00  0.00    +0.000 A 
ATOM     23  C   UNL     1      47.264   9.227  12.248  0.00  0.00    +0.000 A 
BRANCH  18  25
ATOM     24  N   UNL     1      49.803  11.321  10.980  0.00  0.00    +0.000 NA
ATOM     25  C   UNL     1      48.745  10.935  11.260  0.00  0.00    +0.000 C 
ENDBRANCH  18  25
ENDBRANCH  16  22
ENDBRANCH   1  16
TORSDOF 5
ENDMDL
