MODEL 1
REMARK VINA RESULT:    -7.739      0.000      0.000
REMARK INTER + INTRA:         -12.005
REMARK INTER:                 -11.132
REMARK INTRA:                  -0.873
REMARK UNBOUND:                -0.873
REMARK  Name = 
REMARK  10 active torsions:
REMARK  status: ('A' for Active; 'I' for Inactive)
REMARK    1  A    between atoms: C_1  and  O_2
REMARK    2  A    between atoms: O_2  and  C_3
REMARK    3  A    between atoms: C_10  and  C_11
REMARK    4  A    between atoms: N_13  and  C_14
REMARK    5  A    between atoms: C_14  and  C_15
REMARK    6  A    between atoms: C_18  and  C_19
REMARK    7  A    between atoms: C_19  and  S_20
REMARK    8  A    between atoms: S_20  and  C_21
REMARK    9  A    between atoms: C_21  and  C_22
REMARK   10  A    between atoms: C_21  and  N_23
REMARK                            x       y       z     vdW  Elec       q    Type
REMARK                         _______ _______ _______ _____ _____    ______ ____
ROOT
ATOM      1  C   UNL     1      46.504   5.007  14.039  0.00  0.00    +0.000 C 
ATOM      2  O   UNL     1      46.470   3.780  14.106  0.00  0.00    +0.000 OA
ATOM      3  N   UNL     1      45.465   5.714  13.497  0.00  0.00    +0.000 N 
ATOM      4  H   UNL     1      45.476   6.725  13.497  0.00  0.00    +0.000 HD
ENDROOT
BRANCH   1  12
ATOM      5  C   UNL     1      48.102   5.218  17.087  0.00  0.00    +0.000 A 
ATOM      6  N   UNL     1      48.852   5.554  18.156  0.00  0.00    +0.000 NA
ATOM      7  C   UNL     1      49.804   6.477  17.994  0.00  0.00    +0.000 A 
ATOM      8  N   UNL     1      50.120   7.114  16.872  0.00  0.00    +0.000 NA
ATOM      9  C   UNL     1      49.342   6.761  15.833  0.00  0.00    +0.000 A 
ATOM     10  S   UNL     1      49.613   7.468  14.313  0.00  0.00    +0.000 S 
ATOM     11  C   UNL     1      48.327   6.597  13.628  0.00  0.00    +0.000 A 
ATOM     12  C   UNL     1      47.669   5.763  14.523  0.00  0.00    +0.000 A 
ATOM     13  C   UNL     1      48.300   5.839  15.839  0.00  0.00    +0.000 A 
BRANCH   5  15
ATOM     14  C   UNL     1      47.701   2.922  17.405  0.00  0.00    +0.000 C 
ATOM     15  O   UNL     1      47.152   4.228  17.238  0.00  0.00    +0.000 OA
ENDBRANCH   5  15
ENDBRANCH   1  12
BRANCH   3  16
ATOM     16  C   UNL     1      44.307   5.049  12.958  0.00  0.00    +0.000 C 
BRANCH  16  17
ATOM     17  C   UNL     1      44.548   4.564  11.553  0.00  0.00    +0.000 A 
ATOM     18  C   UNL     1      45.179   5.389  10.612  0.00  0.00    +0.000 A 
ATOM     19  C   UNL     1      45.437   4.925   9.319  0.00  0.00    +0.000 A 
ATOM     20  C   UNL     1      45.069   3.627   8.937  0.00  0.00    +0.000 A 
ATOM     21  C   UNL     1      44.391   2.823   9.864  0.00  0.00    +0.000 A 
ATOM     22  C   UNL     1      44.132   3.288  11.157  0.00  0.00    +0.000 A 
BRANCH  20  23
ATOM     23  C   UNL     1      45.361   3.110   7.551  0.00  0.00    +0.000 C 
BRANCH  23  24
ATOM     24  S   UNL     1      46.987   3.579   6.880  0.00  0.00    +0.000 S 
BRANCH  24  25
ATOM     25  C   UNL     1      47.904   2.007   7.001  0.00  0.00    +0.000 C 
ATOM     26  C   UNL     1      47.012   0.847   7.436  0.00  0.00    +0.000 C 
BRANCH  25  27
ATOM     27  N   UNL     1      48.441   1.738   5.675  0.00  0.00    +0.000 NA
ATOM     28  H   UNL     1      47.766   2.069   4.989  0.00  0.00    +0.000 HD
ATOM     29  H   UNL     1      48.542   0.736   5.532  0.00  0.00    +0.000 HD
ENDBRANCH  25  27
ENDBRANCH  24  25
ENDBRANCH  23  24
ENDBRANCH  20  23
ENDBRANCH  16  17
ENDBRANCH   3  16
TORSDOF 8
ENDMDL
MODEL 2
REMARK VINA RESULT:    -7.394      1.644      2.780
REMARK INTER + INTRA:         -11.509
REMARK INTER:                 -10.509
REMARK INTRA:                  -1.000
REMARK UNBOUND:                -0.873
REMARK  Name = 
REMARK  10 active torsions:
REMARK  status: ('A' for Active; 'I' for Inactive)
REMARK    1  A    between atoms: C_1  and  O_2
REMARK    2  A    between atoms: O_2  and  C_3
REMARK    3  A    between atoms: C_10  and  C_11
REMARK    4  A    between atoms: N_13  and  C_14
REMARK    5  A    between atoms: C_14  and  C_15
REMARK    6  A    between atoms: C_18  and  C_19
REMARK    7  A    between atoms: C_19  and  S_20
REMARK    8  A    between atoms: S_20  and  C_21
REMARK    9  A    between atoms: C_21  and  C_22
REMARK   10  A    between atoms: C_21  and  N_23
REMARK                            x       y       z     vdW  Elec       q    Type
REMARK                         _______ _______ _______ _____ _____    ______ ____
ROOT
ATOM      1  C   UNL     1      46.059   4.464  13.828  0.00  0.00    +0.000 C 
ATOM      2  O   UNL     1      46.175   3.264  13.587  0.00  0.00    +0.000 OA
ATOM      3  N   UNL     1      44.935   5.152  13.458  0.00  0.00    +0.000 N 
ATOM      4  H   UNL     1      44.822   6.124  13.709  0.00  0.00    +0.000 HD
ENDROOT
BRANCH   1  12
ATOM      5  C   UNL     1      47.852   7.298  13.030  0.00  0.00    +0.000 A 
ATOM      6  N   UNL     1      48.744   8.306  12.940  0.00  0.00    +0.000 NA
ATOM      7  C   UNL     1      49.640   8.445  13.920  0.00  0.00    +0.000 A 
ATOM      8  N   UNL     1      49.756   7.698  15.012  0.00  0.00    +0.000 NA
ATOM      9  C   UNL     1      48.859   6.697  15.059  0.00  0.00    +0.000 A 
ATOM     10  S   UNL     1      48.855   5.647  16.393  0.00  0.00    +0.000 S 
ATOM     11  C   UNL     1      47.575   4.745  15.736  0.00  0.00    +0.000 A 
ATOM     12  C   UNL     1      47.128   5.211  14.506  0.00  0.00    +0.000 A 
ATOM     13  C   UNL     1      47.880   6.403  14.116  0.00  0.00    +0.000 A 
BRANCH   5  15
ATOM     14  C   UNL     1      45.916   8.222  12.066  0.00  0.00    +0.000 C 
ATOM     15  O   UNL     1      46.892   7.182  12.046  0.00  0.00    +0.000 OA
ENDBRANCH   5  15
ENDBRANCH   1  12
BRANCH   3  16
ATOM     16  C   UNL     1      43.860   4.506  12.750  0.00  0.00    +0.000 C 
BRANCH  16  17
ATOM     17  C   UNL     1      44.253   4.163  11.337  0.00  0.00    +0.000 A 
ATOM     18  C   UNL     1      44.849   5.123  10.509  0.00  0.00    +0.000 A 
ATOM     19  C   UNL     1      45.248   4.793   9.210  0.00  0.00    +0.000 A 
ATOM     20  C   UNL     1      45.059   3.497   8.711  0.00  0.00    +0.000 A 
ATOM     21  C   UNL     1      44.415   2.553   9.524  0.00  0.00    +0.000 A 
ATOM     22  C   UNL     1      44.015   2.884  10.822  0.00  0.00    +0.000 A 
BRANCH  20  23
ATOM     23  C   UNL     1      45.505   3.126   7.319  0.00  0.00    +0.000 C 
BRANCH  23  24
ATOM     24  S   UNL     1      47.192   3.652   6.884  0.00  0.00    +0.000 S 
BRANCH  24  25
ATOM     25  C   UNL     1      48.068   2.055   6.800  0.00  0.00    +0.000 C 
ATOM     26  C   UNL     1      47.197   0.891   7.264  0.00  0.00    +0.000 C 
BRANCH  25  27
ATOM     27  N   UNL     1      48.440   1.859   5.406  0.00  0.00    +0.000 NA
ATOM     28  H   UNL     1      47.598   1.619   4.886  0.00  0.00    +0.000 HD
ATOM     29  H   UNL     1      49.077   1.071   5.318  0.00  0.00    +0.000 HD
ENDBRANCH  25  27
ENDBRANCH  24  25
ENDBRANCH  23  24
ENDBRANCH  20  23
ENDBRANCH  16  17
ENDBRANCH   3  16
TORSDOF 8
ENDMDL
MODEL 3
REMARK VINA RESULT:    -6.978      1.792      2.486
REMARK INTER + INTRA:         -10.910
REMARK INTER:                  -9.762
REMARK INTRA:                  -1.148
REMARK UNBOUND:                -0.873
REMARK  Name = 
REMARK  10 active torsions:
REMARK  status: ('A' for Active; 'I' for Inactive)
REMARK    1  A    between atoms: C_1  and  O_2
REMARK    2  A    between atoms: O_2  and  C_3
REMARK    3  A    between atoms: C_10  and  C_11
REMARK    4  A    between atoms: N_13  and  C_14
REMARK    5  A    between atoms: C_14  and  C_15
REMARK    6  A    between atoms: C_18  and  C_19
REMARK    7  A    between atoms: C_19  and  S_20
REMARK    8  A    between atoms: S_20  and  C_21
REMARK    9  A    between atoms: C_21  and  C_22
REMARK   10  A    between atoms: C_21  and  N_23
REMARK                            x       y       z     vdW  Elec       q    Type
REMARK                         _______ _______ _______ _____ _____    ______ ____
ROOT
ATOM      1  C   UNL     1      47.963   6.900  13.841  0.00  0.00    +0.000 C 
ATOM      2  O   UNL     1      48.713   7.412  13.011  0.00  0.00    +0.000 OA
ATOM      3  N   UNL     1      46.610   6.862  13.641  0.00  0.00    +0.000 N 
ATOM      4  H   UNL     1      46.006   6.390  14.300  0.00  0.00    +0.000 HD
ENDROOT
BRANCH   1  12
ATOM      5  C   UNL     1      47.049   4.206  15.787  0.00  0.00    +0.000 A 
ATOM      6  N   UNL     1      46.868   3.290  16.761  0.00  0.00    +0.000 NA
ATOM      7  C   UNL     1      47.681   3.326  17.820  0.00  0.00    +0.000 A 
ATOM      8  N   UNL     1      48.683   4.171  18.032  0.00  0.00    +0.000 NA
ATOM      9  C   UNL     1      48.823   5.076  17.047  0.00  0.00    +0.000 A 
ATOM     10  S   UNL     1      50.064   6.230  17.147  0.00  0.00    +0.000 S 
ATOM     11  C   UNL     1      49.587   6.938  15.680  0.00  0.00    +0.000 A 
ATOM     12  C   UNL     1      48.488   6.326  15.088  0.00  0.00    +0.000 A 
ATOM     13  C   UNL     1      48.051   5.189  15.896  0.00  0.00    +0.000 A 
BRANCH   5  15
ATOM     14  C   UNL     1      46.789   3.351  13.612  0.00  0.00    +0.000 C 
ATOM     15  O   UNL     1      46.244   4.140  14.668  0.00  0.00    +0.000 OA
ENDBRANCH   5  15
ENDBRANCH   1  12
BRANCH   3  16
ATOM     16  C   UNL     1      46.010   7.443  12.467  0.00  0.00    +0.000 C 
BRANCH  16  17
ATOM     17  C   UNL     1      45.645   6.393  11.452  0.00  0.00    +0.000 A 
ATOM     18  C   UNL     1      46.297   6.341  10.212  0.00  0.00    +0.000 A 
ATOM     19  C   UNL     1      45.984   5.343   9.285  0.00  0.00    +0.000 A 
ATOM     20  C   UNL     1      45.012   4.375   9.576  0.00  0.00    +0.000 A 
ATOM     21  C   UNL     1      44.325   4.461  10.795  0.00  0.00    +0.000 A 
ATOM     22  C   UNL     1      44.636   5.461  11.721  0.00  0.00    +0.000 A 
BRANCH  20  23
ATOM     23  C   UNL     1      44.682   3.282   8.590  0.00  0.00    +0.000 C 
BRANCH  23  24
ATOM     24  S   UNL     1      45.827   1.867   8.597  0.00  0.00    +0.000 S 
BRANCH  24  25
ATOM     25  C   UNL     1      46.554   1.972   6.928  0.00  0.00    +0.000 C 
ATOM     26  C   UNL     1      46.666   3.411   6.433  0.00  0.00    +0.000 C 
BRANCH  25  27
ATOM     27  N   UNL     1      47.883   1.383   7.017  0.00  0.00    +0.000 NA
ATOM     28  H   UNL     1      47.824   0.563   7.618  0.00  0.00    +0.000 HD
ATOM     29  H   UNL     1      48.527   2.031   7.462  0.00  0.00    +0.000 HD
ENDBRANCH  25  27
ENDBRANCH  24  25
ENDBRANCH  23  24
ENDBRANCH  20  23
ENDBRANCH  16  17
ENDBRANCH   3  16
TORSDOF 8
ENDMDL
MODEL 4
REMARK VINA RESULT:    -6.572      3.785      8.552
REMARK INTER + INTRA:         -10.326
REMARK INTER:                  -9.543
REMARK INTRA:                  -0.782
REMARK UNBOUND:                -0.873
REMARK  Name = 
REMARK  10 active torsions:
REMARK  status: ('A' for Active; 'I' for Inactive)
REMARK    1  A    between atoms: C_1  and  O_2
REMARK    2  A    between atoms: O_2  and  C_3
REMARK    3  A    between atoms: C_10  and  C_11
REMARK    4  A    between atoms: N_13  and  C_14
REMARK    5  A    between atoms: C_14  and  C_15
REMARK    6  A    between atoms: C_18  and  C_19
REMARK    7  A    between atoms: C_19  and  S_20
REMARK    8  A    between atoms: S_20  and  C_21
REMARK    9  A    between atoms: C_21  and  C_22
REMARK   10  A    between atoms: C_21  and  N_23
REMARK                            x       y       z     vdW  Elec       q    Type
REMARK                         _______ _______ _______ _____ _____    ______ ____
ROOT
ATOM      1  C   UNL     1      47.062   4.272  14.663  0.00  0.00    +0.000 C 
ATOM      2  O   UNL     1      47.271   3.163  14.175  0.00  0.00    +0.000 OA
ATOM      3  N   UNL     1      47.118   4.469  16.017  0.00  0.00    +0.000 N 
ATOM      4  H   UNL     1      47.001   5.394  16.406  0.00  0.00    +0.000 HD
ENDROOT
BRANCH   1  12
ATOM      5  C   UNL     1      44.344   5.068  12.697  0.00  0.00    +0.000 A 
ATOM      6  N   UNL     1      43.474   5.588  11.807  0.00  0.00    +0.000 NA
ATOM      7  C   UNL     1      43.791   6.741  11.214  0.00  0.00    +0.000 A 
ATOM      8  N   UNL     1      44.886   7.468  11.409  0.00  0.00    +0.000 NA
ATOM      9  C   UNL     1      45.733   6.911  12.293  0.00  0.00    +0.000 A 
ATOM     10  S   UNL     1      47.183   7.710  12.673  0.00  0.00    +0.000 S 
ATOM     11  C   UNL     1      47.646   6.465  13.730  0.00  0.00    +0.000 A 
ATOM     12  C   UNL     1      46.727   5.426  13.816  0.00  0.00    +0.000 A 
ATOM     13  C   UNL     1      45.564   5.711  12.976  0.00  0.00    +0.000 A 
BRANCH   5  15
ATOM     14  C   UNL     1      43.646   2.833  12.473  0.00  0.00    +0.000 C 
ATOM     15  O   UNL     1      43.997   3.902  13.350  0.00  0.00    +0.000 OA
ENDBRANCH   5  15
ENDBRANCH   1  12
BRANCH   3  16
ATOM     16  C   UNL     1      47.394   3.382  16.921  0.00  0.00    +0.000 C 
BRANCH  16  17
ATOM     17  C   UNL     1      48.871   3.235  17.177  0.00  0.00    +0.000 A 
ATOM     18  C   UNL     1      49.622   4.312  17.666  0.00  0.00    +0.000 A 
ATOM     19  C   UNL     1      50.984   4.163  17.940  0.00  0.00    +0.000 A 
ATOM     20  C   UNL     1      51.627   2.934  17.730  0.00  0.00    +0.000 A 
ATOM     21  C   UNL     1      50.884   1.874  17.191  0.00  0.00    +0.000 A 
ATOM     22  C   UNL     1      49.522   2.024  16.915  0.00  0.00    +0.000 A 
BRANCH  20  23
ATOM     23  C   UNL     1      53.092   2.758  18.041  0.00  0.00    +0.000 C 
BRANCH  23  24
ATOM     24  S   UNL     1      53.779   1.126  17.621  0.00  0.00    +0.000 S 
BRANCH  24  25
ATOM     25  C   UNL     1      54.968   0.865  18.977  0.00  0.00    +0.000 C 
ATOM     26  C   UNL     1      54.920   1.983  20.015  0.00  0.00    +0.000 C 
BRANCH  25  27
ATOM     27  N   UNL     1      54.609  -0.398  19.607  0.00  0.00    +0.000 NA
ATOM     28  H   UNL     1      54.409  -1.071  18.869  0.00  0.00    +0.000 HD
ATOM     29  H   UNL     1      53.756  -0.292  20.150  0.00  0.00    +0.000 HD
ENDBRANCH  25  27
ENDBRANCH  24  25
ENDBRANCH  23  24
ENDBRANCH  20  23
ENDBRANCH  16  17
ENDBRANCH   3  16
TORSDOF 8
ENDMDL
MODEL 5
REMARK VINA RESULT:    -6.331      3.774      8.311
REMARK INTER + INTRA:          -9.979
REMARK INTER:                  -9.019
REMARK INTRA:                  -0.960
REMARK UNBOUND:                -0.873
REMARK  Name = 
REMARK  10 active torsions:
REMARK  status: ('A' for Active; 'I' for Inactive)
REMARK    1  A    between atoms: C_1  and  O_2
REMARK    2  A    between atoms: O_2  and  C_3
REMARK    3  A    between atoms: C_10  and  C_11
REMARK    4  A    between atoms: N_13  and  C_14
REMARK    5  A    between atoms: C_14  and  C_15
REMARK    6  A    between atoms: C_18  and  C_19
REMARK    7  A    between atoms: C_19  and  S_20
REMARK    8  A    between atoms: S_20  and  C_21
REMARK    9  A    between atoms: C_21  and  C_22
REMARK   10  A    between atoms: C_21  and  N_23
REMARK                            x       y       z     vdW  Elec       q    Type
REMARK                         _______ _______ _______ _____ _____    ______ ____
ROOT
ATOM      1  C   UNL     1      46.985   4.262  14.565  0.00  0.00    +0.000 C 
ATOM      2  O   UNL     1      47.244   3.172  14.057  0.00  0.00    +0.000 OA
ATOM      3  N   UNL     1      46.971   4.422  15.924  0.00  0.00    +0.000 N 
ATOM      4  H   UNL     1      46.812   5.333  16.333  0.00  0.00    +0.000 HD
ENDROOT
BRANCH   1  12
ATOM      5  C   UNL     1      44.225   5.173  12.711  0.00  0.00    +0.000 A 
ATOM      6  N   UNL     1      43.341   5.731  11.857  0.00  0.00    +0.000 NA
ATOM      7  C   UNL     1      43.681   6.872  11.254  0.00  0.00    +0.000 A 
ATOM      8  N   UNL     1      44.812   7.554  11.406  0.00  0.00    +0.000 NA
ATOM      9  C   UNL     1      45.670   6.960  12.254  0.00  0.00    +0.000 A 
ATOM     10  S   UNL     1      47.164   7.699  12.577  0.00  0.00    +0.000 S 
ATOM     11  C   UNL     1      47.619   6.432  13.612  0.00  0.00    +0.000 A 
ATOM     12  C   UNL     1      46.662   5.431  13.734  0.00  0.00    +0.000 A 
ATOM     13  C   UNL     1      45.480   5.766  12.942  0.00  0.00    +0.000 A 
BRANCH   5  15
ATOM     14  C   UNL     1      43.698   2.889  12.521  0.00  0.00    +0.000 C 
ATOM     15  O   UNL     1      43.857   4.020  13.375  0.00  0.00    +0.000 OA
ENDBRANCH   5  15
ENDBRANCH   1  12
BRANCH   3  16
ATOM     16  C   UNL     1      47.230   3.317  16.811  0.00  0.00    +0.000 C 
BRANCH  16  17
ATOM     17  C   UNL     1      48.693   3.207  17.150  0.00  0.00    +0.000 A 
ATOM     18  C   UNL     1      49.414   2.050  16.829  0.00  0.00    +0.000 A 
ATOM     19  C   UNL     1      50.781   1.963  17.109  0.00  0.00    +0.000 A 
ATOM     20  C   UNL     1      51.456   3.031  17.718  0.00  0.00    +0.000 A 
ATOM     21  C   UNL     1      50.720   4.167  18.085  0.00  0.00    +0.000 A 
ATOM     22  C   UNL     1      49.353   4.252  17.806  0.00  0.00    +0.000 A 
BRANCH  20  23
ATOM     23  C   UNL     1      52.935   2.956  18.005  0.00  0.00    +0.000 C 
BRANCH  23  24
ATOM     24  S   UNL     1      53.658   4.463  18.726  0.00  0.00    +0.000 S 
BRANCH  24  25
ATOM     25  C   UNL     1      54.408   5.249  17.262  0.00  0.00    +0.000 C 
ATOM     26  C   UNL     1      53.417   6.129  16.504  0.00  0.00    +0.000 C 
BRANCH  25  27
ATOM     27  N   UNL     1      55.510   6.067  17.750  0.00  0.00    +0.000 NA
ATOM     28  H   UNL     1      55.346   7.026  17.450  0.00  0.00    +0.000 HD
ATOM     29  H   UNL     1      56.385   5.769  17.326  0.00  0.00    +0.000 HD
ENDBRANCH  25  27
ENDBRANCH  24  25
ENDBRANCH  23  24
ENDBRANCH  20  23
ENDBRANCH  16  17
ENDBRANCH   3  16
TORSDOF 8
ENDMDL
MODEL 6
REMARK VINA RESULT:    -6.270      2.595      3.705
REMARK INTER + INTRA:          -9.892
REMARK INTER:                  -9.107
REMARK INTRA:                  -0.785
REMARK UNBOUND:                -0.873
REMARK  Name = 
REMARK  10 active torsions:
REMARK  status: ('A' for Active; 'I' for Inactive)
REMARK    1  A    between atoms: C_1  and  O_2
REMARK    2  A    between atoms: O_2  and  C_3
REMARK    3  A    between atoms: C_10  and  C_11
REMARK    4  A    between atoms: N_13  and  C_14
REMARK    5  A    between atoms: C_14  and  C_15
REMARK    6  A    between atoms: C_18  and  C_19
REMARK    7  A    between atoms: C_19  and  S_20
REMARK    8  A    between atoms: S_20  and  C_21
REMARK    9  A    between atoms: C_21  and  C_22
REMARK   10  A    between atoms: C_21  and  N_23
REMARK                            x       y       z     vdW  Elec       q    Type
REMARK                         _______ _______ _______ _____ _____    ______ ____
ROOT
ATOM      1  C   UNL     1      47.066   7.186  13.667  0.00  0.00    +0.000 C 
ATOM      2  O   UNL     1      46.435   8.158  13.256  0.00  0.00    +0.000 OA
ATOM      3  N   UNL     1      46.526   5.928  13.635  0.00  0.00    +0.000 N 
ATOM      4  H   UNL     1      47.071   5.127  13.921  0.00  0.00    +0.000 HD
ENDROOT
BRANCH   1  12
ATOM      5  C   UNL     1      49.971   8.628  12.500  0.00  0.00    +0.000 A 
ATOM      6  N   UNL     1      51.239   9.028  12.270  0.00  0.00    +0.000 NA
ATOM      7  C   UNL     1      52.160   8.773  13.202  0.00  0.00    +0.000 A 
ATOM      8  N   UNL     1      51.973   8.167  14.370  0.00  0.00    +0.000 NA
ATOM      9  C   UNL     1      50.701   7.773  14.556  0.00  0.00    +0.000 A 
ATOM     10  S   UNL     1      50.276   6.989  16.002  0.00  0.00    +0.000 S 
ATOM     11  C   UNL     1      48.667   6.815  15.489  0.00  0.00    +0.000 A 
ATOM     12  C   UNL     1      48.418   7.337  14.225  0.00  0.00    +0.000 A 
ATOM     13  C   UNL     1      49.633   7.940  13.680  0.00  0.00    +0.000 A 
BRANCH   5  15
ATOM     14  C   UNL     1      48.931  10.323  11.245  0.00  0.00    +0.000 C 
ATOM     15  O   UNL     1      49.007   8.934  11.562  0.00  0.00    +0.000 OA
ENDBRANCH   5  15
ENDBRANCH   1  12
BRANCH   3  16
ATOM     16  C   UNL     1      45.190   5.699  13.147  0.00  0.00    +0.000 C 
BRANCH  16  17
ATOM     17  C   UNL     1      45.198   5.047  11.789  0.00  0.00    +0.000 A 
ATOM     18  C   UNL     1      45.581   5.771  10.652  0.00  0.00    +0.000 A 
ATOM     19  C   UNL     1      45.625   5.154   9.398  0.00  0.00    +0.000 A 
ATOM     20  C   UNL     1      45.286   3.801   9.253  0.00  0.00    +0.000 A 
ATOM     21  C   UNL     1      44.853   3.094  10.384  0.00  0.00    +0.000 A 
ATOM     22  C   UNL     1      44.808   3.712  11.638  0.00  0.00    +0.000 A 
BRANCH  20  23
ATOM     23  C   UNL     1      45.350   3.122   7.909  0.00  0.00    +0.000 C 
BRANCH  23  24
ATOM     24  S   UNL     1      46.389   1.629   7.848  0.00  0.00    +0.000 S 
BRANCH  24  25
ATOM     25  C   UNL     1      47.196   1.806   6.223  0.00  0.00    +0.000 C 
ATOM     26  C   UNL     1      46.729   3.052   5.475  0.00  0.00    +0.000 C 
BRANCH  25  27
ATOM     27  N   UNL     1      48.627   1.901   6.479  0.00  0.00    +0.000 NA
ATOM     28  H   UNL     1      49.003   0.955   6.515  0.00  0.00    +0.000 HD
ATOM     29  H   UNL     1      48.795   2.322   7.389  0.00  0.00    +0.000 HD
ENDBRANCH  25  27
ENDBRANCH  24  25
ENDBRANCH  23  24
ENDBRANCH  20  23
ENDBRANCH  16  17
ENDBRANCH   3  16
TORSDOF 8
ENDMDL
MODEL 7
REMARK VINA RESULT:    -6.193      1.972      2.720
REMARK INTER + INTRA:          -9.781
REMARK INTER:                  -9.129
REMARK INTRA:                  -0.652
REMARK UNBOUND:                -0.873
REMARK  Name = 
REMARK  10 active torsions:
REMARK  status: ('A' for Active; 'I' for Inactive)
REMARK    1  A    between atoms: C_1  and  O_2
REMARK    2  A    between atoms: O_2  and  C_3
REMARK    3  A    between atoms: C_10  and  C_11
REMARK    4  A    between atoms: N_13  and  C_14
REMARK    5  A    between atoms: C_14  and  C_15
REMARK    6  A    between atoms: C_18  and  C_19
REMARK    7  A    between atoms: C_19  and  S_20
REMARK    8  A    between atoms: S_20  and  C_21
REMARK    9  A    between atoms: C_21  and  C_22
REMARK   10  A    between atoms: C_21  and  N_23
REMARK                            x       y       z     vdW  Elec       q    Type
REMARK                         _______ _______ _______ _____ _____    ______ ____
ROOT
ATOM      1  C   UNL     1      47.503   5.638  14.254  0.00  0.00    +0.000 C 
ATOM      2  O   UNL     1      48.370   5.937  13.434  0.00  0.00    +0.000 OA
ATOM      3  N   UNL     1      46.180   5.887  14.005  0.00  0.00    +0.000 N 
ATOM      4  H   UNL     1      45.469   5.588  14.658  0.00  0.00    +0.000 HD
ENDROOT
BRANCH   1  12
ATOM      5  C   UNL     1      49.359   6.677  16.967  0.00  0.00    +0.000 A 
ATOM      6  N   UNL     1      50.082   6.783  18.101  0.00  0.00    +0.000 NA
ATOM      7  C   UNL     1      50.107   5.739  18.933  0.00  0.00    +0.000 A 
ATOM      8  N   UNL     1      49.476   4.579  18.783  0.00  0.00    +0.000 NA
ATOM      9  C   UNL     1      48.778   4.507  17.637  0.00  0.00    +0.000 A 
ATOM     10  S   UNL     1      47.899   3.098  17.285  0.00  0.00    +0.000 S 
ATOM     11  C   UNL     1      47.378   3.738  15.801  0.00  0.00    +0.000 A 
ATOM     12  C   UNL     1      47.853   5.018  15.540  0.00  0.00    +0.000 A 
ATOM     13  C   UNL     1      48.668   5.490  16.658  0.00  0.00    +0.000 A 
BRANCH   5  15
ATOM     14  C   UNL     1      48.466   8.825  16.623  0.00  0.00    +0.000 C 
ATOM     15  O   UNL     1      49.290   7.771  16.129  0.00  0.00    +0.000 OA
ENDBRANCH   5  15
ENDBRANCH   1  12
BRANCH   3  16
ATOM     16  C   UNL     1      45.756   6.534  12.790  0.00  0.00    +0.000 C 
BRANCH  16  17
ATOM     17  C   UNL     1      45.522   5.540  11.683  0.00  0.00    +0.000 A 
ATOM     18  C   UNL     1      45.052   4.251  11.970  0.00  0.00    +0.000 A 
ATOM     19  C   UNL     1      44.799   3.341  10.939  0.00  0.00    +0.000 A 
ATOM     20  C   UNL     1      45.012   3.699   9.600  0.00  0.00    +0.000 A 
ATOM     21  C   UNL     1      45.532   4.970   9.321  0.00  0.00    +0.000 A 
ATOM     22  C   UNL     1      45.787   5.880  10.352  0.00  0.00    +0.000 A 
BRANCH  20  23
ATOM     23  C   UNL     1      44.723   2.731   8.480  0.00  0.00    +0.000 C 
BRANCH  23  24
ATOM     24  S   UNL     1      46.109   1.645   8.021  0.00  0.00    +0.000 S 
BRANCH  24  25
ATOM     25  C   UNL     1      47.240   2.816   7.200  0.00  0.00    +0.000 C 
ATOM     26  C   UNL     1      48.343   2.107   6.419  0.00  0.00    +0.000 C 
BRANCH  25  27
ATOM     27  N   UNL     1      46.426   3.605   6.285  0.00  0.00    +0.000 NA
ATOM     28  H   UNL     1      46.994   4.380   5.948  0.00  0.00    +0.000 HD
ATOM     29  H   UNL     1      45.634   4.010   6.777  0.00  0.00    +0.000 HD
ENDBRANCH  25  27
ENDBRANCH  24  25
ENDBRANCH  23  24
ENDBRANCH  20  23
ENDBRANCH  16  17
ENDBRANCH   3  16
TORSDOF 8
ENDMDL
MODEL 8
REMARK VINA RESULT:    -6.174      2.609      3.817
REMARK INTER + INTRA:          -9.754
REMARK INTER:                  -8.953
REMARK INTRA:                  -0.800
REMARK UNBOUND:                -0.873
REMARK  Name = 
REMARK  10 active torsions:
REMARK  status: ('A' for Active; 'I' for Inactive)
REMARK    1  A    between atoms: C_1  and  O_2
REMARK    2  A    between atoms: O_2  and  C_3
REMARK    3  A    between atoms: C_10  and  C_11
REMARK    4  A    between atoms: N_13  and  C_14
REMARK    5  A    between atoms: C_14  and  C_15
REMARK    6  A    between atoms: C_18  and  C_19
REMARK    7  A    between atoms: C_19  and  S_20
REMARK    8  A    between atoms: S_20  and  C_21
REMARK    9  A    between atoms: C_21  and  C_22
REMARK   10  A    between atoms: C_21  and  N_23
REMARK                            x       y       z     vdW  Elec       q    Type
REMARK                         _______ _______ _______ _____ _____    ______ ____
ROOT
ATOM      1  C   UNL     1      48.902   7.212  15.613  0.00  0.00    +0.000 C 
ATOM      2  O   UNL     1      49.784   6.650  14.967  0.00  0.00    +0.000 OA
ATOM      3  N   UNL     1      47.886   7.882  14.987  0.00  0.00    +0.000 N 
ATOM      4  H   UNL     1      47.134   8.293  15.523  0.00  0.00    +0.000 HD
ENDROOT
BRANCH   1  12
ATOM      5  C   UNL     1      48.872   4.701  17.975  0.00  0.00    +0.000 A 
ATOM      6  N   UNL     1      48.782   3.948  19.091  0.00  0.00    +0.000 NA
ATOM      7  C   UNL     1      48.717   4.572  20.270  0.00  0.00    +0.000 A 
ATOM      8  N   UNL     1      48.746   5.882  20.486  0.00  0.00    +0.000 NA
ATOM      9  C   UNL     1      48.824   6.598  19.351  0.00  0.00    +0.000 A 
ATOM     10  S   UNL     1      48.882   8.293  19.438  0.00  0.00    +0.000 S 
ATOM     11  C   UNL     1      48.939   8.424  17.746  0.00  0.00    +0.000 A 
ATOM     12  C   UNL     1      48.913   7.203  17.084  0.00  0.00    +0.000 A 
ATOM     13  C   UNL     1      48.875   6.107  18.050  0.00  0.00    +0.000 A 
BRANCH   5  15
ATOM     14  C   UNL     1      48.251   2.843  16.675  0.00  0.00    +0.000 C 
ATOM     15  O   UNL     1      48.990   4.060  16.759  0.00  0.00    +0.000 OA
ENDBRANCH   5  15
ENDBRANCH   1  12
BRANCH   3  16
ATOM     16  C   UNL     1      47.826   7.978  13.551  0.00  0.00    +0.000 C 
BRANCH  16  17
ATOM     17  C   UNL     1      46.703   7.151  12.984  0.00  0.00    +0.000 A 
ATOM     18  C   UNL     1      46.663   5.765  13.190  0.00  0.00    +0.000 A 
ATOM     19  C   UNL     1      45.600   5.003  12.697  0.00  0.00    +0.000 A 
ATOM     20  C   UNL     1      44.554   5.609  11.985  0.00  0.00    +0.000 A 
ATOM     21  C   UNL     1      44.624   6.987  11.736  0.00  0.00    +0.000 A 
ATOM     22  C   UNL     1      45.688   7.749  12.229  0.00  0.00    +0.000 A 
BRANCH  20  23
ATOM     23  C   UNL     1      43.393   4.799  11.467  0.00  0.00    +0.000 C 
BRANCH  23  24
ATOM     24  S   UNL     1      43.784   3.070  11.051  0.00  0.00    +0.000 S 
BRANCH  24  25
ATOM     25  C   UNL     1      44.859   3.274   9.593  0.00  0.00    +0.000 C 
ATOM     26  C   UNL     1      45.135   1.950   8.886  0.00  0.00    +0.000 C 
BRANCH  25  27
ATOM     27  N   UNL     1      44.160   4.174   8.686  0.00  0.00    +0.000 NA
ATOM     28  H   UNL     1      43.784   4.945   9.235  0.00  0.00    +0.000 HD
ATOM     29  H   UNL     1      43.369   3.700   8.259  0.00  0.00    +0.000 HD
ENDBRANCH  25  27
ENDBRANCH  24  25
ENDBRANCH  23  24
ENDBRANCH  20  23
ENDBRANCH  16  17
ENDBRANCH   3  16
TORSDOF 8
ENDMDL
MODEL 9
REMARK VINA RESULT:    -6.159      3.038      4.399
REMARK INTER + INTRA:          -9.732
REMARK INTER:                  -8.658
REMARK INTRA:                  -1.074
REMARK UNBOUND:                -0.873
REMARK  Name = 
REMARK  10 active torsions:
REMARK  status: ('A' for Active; 'I' for Inactive)
REMARK    1  A    between atoms: C_1  and  O_2
REMARK    2  A    between atoms: O_2  and  C_3
REMARK    3  A    between atoms: C_10  and  C_11
REMARK    4  A    between atoms: N_13  and  C_14
REMARK    5  A    between atoms: C_14  and  C_15
REMARK    6  A    between atoms: C_18  and  C_19
REMARK    7  A    between atoms: C_19  and  S_20
REMARK    8  A    between atoms: S_20  and  C_21
REMARK    9  A    between atoms: C_21  and  C_22
REMARK   10  A    between atoms: C_21  and  N_23
REMARK                            x       y       z     vdW  Elec       q    Type
REMARK                         _______ _______ _______ _____ _____    ______ ____
ROOT
ATOM      1  C   UNL     1      48.982   6.185  16.550  0.00  0.00    +0.000 C 
ATOM      2  O   UNL     1      50.007   5.563  16.277  0.00  0.00    +0.000 OA
ATOM      3  N   UNL     1      48.206   6.735  15.566  0.00  0.00    +0.000 N 
ATOM      4  H   UNL     1      47.336   7.195  15.794  0.00  0.00    +0.000 HD
ENDROOT
BRANCH   1  12
ATOM      5  C   UNL     1      47.747   8.880  18.310  0.00  0.00    +0.000 A 
ATOM      6  N   UNL     1      47.339   9.763  19.245  0.00  0.00    +0.000 NA
ATOM      7  C   UNL     1      47.217   9.337  20.505  0.00  0.00    +0.000 A 
ATOM      8  N   UNL     1      47.443   8.110  20.961  0.00  0.00    +0.000 NA
ATOM      9  C   UNL     1      47.860   7.264  20.004  0.00  0.00    +0.000 A 
ATOM     10  S   UNL     1      48.186   5.647  20.407  0.00  0.00    +0.000 S 
ATOM     11  C   UNL     1      48.639   5.292  18.810  0.00  0.00    +0.000 A 
ATOM     12  C   UNL     1      48.557   6.377  17.945  0.00  0.00    +0.000 A 
ATOM     13  C   UNL     1      48.059   7.552  18.657  0.00  0.00    +0.000 A 
BRANCH   5  15
ATOM     14  C   UNL     1      48.975  10.098  16.717  0.00  0.00    +0.000 C 
ATOM     15  O   UNL     1      47.825   9.302  16.999  0.00  0.00    +0.000 OA
ENDBRANCH   5  15
ENDBRANCH   1  12
BRANCH   3  16
ATOM     16  C   UNL     1      48.575   6.633  14.177  0.00  0.00    +0.000 C 
BRANCH  16  17
ATOM     17  C   UNL     1      47.420   6.174  13.327  0.00  0.00    +0.000 A 
ATOM     18  C   UNL     1      47.184   6.751  12.072  0.00  0.00    +0.000 A 
ATOM     19  C   UNL     1      46.134   6.299  11.267  0.00  0.00    +0.000 A 
ATOM     20  C   UNL     1      45.296   5.261  11.701  0.00  0.00    +0.000 A 
ATOM     21  C   UNL     1      45.502   4.722  12.978  0.00  0.00    +0.000 A 
ATOM     22  C   UNL     1      46.551   5.176  13.784  0.00  0.00    +0.000 A 
BRANCH  20  23
ATOM     23  C   UNL     1      44.173   4.752  10.831  0.00  0.00    +0.000 C 
BRANCH  23  24
ATOM     24  S   UNL     1      44.048   2.940  10.716  0.00  0.00    +0.000 S 
BRANCH  24  25
ATOM     25  C   UNL     1      44.526   2.645   8.982  0.00  0.00    +0.000 C 
ATOM     26  C   UNL     1      45.218   3.854   8.357  0.00  0.00    +0.000 C 
BRANCH  25  27
ATOM     27  N   UNL     1      45.441   1.512   8.991  0.00  0.00    +0.000 NA
ATOM     28  H   UNL     1      44.953   0.718   9.402  0.00  0.00    +0.000 HD
ATOM     29  H   UNL     1      46.241   1.709   9.587  0.00  0.00    +0.000 HD
ENDBRANCH  25  27
ENDBRANCH  24  25
ENDBRANCH  23  24
ENDBRANCH  20  23
ENDBRANCH  16  17
ENDBRANCH   3  16
TORSDOF 8
ENDMDL
