MODEL 1
REMARK VINA RESULT:    -6.913      0.000      0.000
REMARK INTER + INTRA:         -10.943
REMARK INTER:                  -9.742
REMARK INTRA:                  -1.201
REMARK UNBOUND:                -1.201
REMARK  Name = 
REMARK  10 active torsions:
REMARK  status: ('A' for Active; 'I' for Inactive)
REMARK    1  A    between atoms: C_1  and  O_2
REMARK    2  A    between atoms: O_2  and  C_3
REMARK    3  A    between atoms: C_3  and  C_5
REMARK    4  A    between atoms: C_8  and  O_9
REMARK    5  A    between atoms: O_9  and  C_10
REMARK    6  A    between atoms: C_10  and  C_11
REMARK    7  A    between atoms: C_11  and  C_12
REMARK    8  A    between atoms: C_11  and  C_13
REMARK    9  A    between atoms: C_11  and  C_14
REMARK   10  A    between atoms: C_18  and  C_19
REMARK                            x       y       z     vdW  Elec       q    Type
REMARK                         _______ _______ _______ _____ _____    ______ ____
ROOT
ATOM      1  C   UNL     1      48.295   7.245  14.948  0.00  0.00    +0.000 C 
ENDROOT
BRANCH   1   2
ATOM      2  C   UNL     1      49.041   6.955  16.283  0.00  0.00    +0.000 C 
ATOM      3  C   UNL     1      50.568   7.028  16.070  0.00  0.00    +0.000 C 
ATOM      4  C   UNL     1      48.657   8.033  17.318  0.00  0.00    +0.000 C 
BRANCH   2   5
ATOM      5  C   UNL     1      48.654   5.546  16.764  0.00  0.00    +0.000 A 
ATOM      6  C   UNL     1      47.400   5.328  17.351  0.00  0.00    +0.000 A 
ATOM      7  N   UNL     1      47.000   4.135  17.840  0.00  0.00    +0.000 NA
ATOM      8  C   UNL     1      47.905   3.131  17.722  0.00  0.00    +0.000 A 
ATOM      9  C   UNL     1      49.156   3.309  17.134  0.00  0.00    +0.000 A 
ATOM     10  N   UNL     1      49.550   4.524  16.644  0.00  0.00    +0.000 NA
BRANCH   9  11
ATOM     11  C   UNL     1      50.118   2.162  17.026  0.00  0.00    +0.000 C 
ATOM     12  N   UNL     1      51.014   1.952  18.046  0.00  0.00    +0.000 N 
ATOM     13  O   UNL     1      50.129   1.411  16.054  0.00  0.00    +0.000 OA
ATOM     14  H   UNL     1      51.095   2.531  18.870  0.00  0.00    +0.000 HD
ATOM     15  H   UNL     1      51.659   1.180  17.934  0.00  0.00    +0.000 HD
ENDBRANCH   9  11
ENDBRANCH   2   5
ENDBRANCH   1   2
BRANCH   1  16
ATOM     16  O   UNL     1      48.566   6.253  13.944  0.00  0.00    +0.000 OA
BRANCH  16  20
ATOM     17  C   UNL     1      45.346   5.176  11.470  0.00  0.00    +0.000 A 
ATOM     18  C   UNL     1      46.100   6.336  11.247  0.00  0.00    +0.000 A 
ATOM     19  C   UNL     1      47.168   6.655  12.105  0.00  0.00    +0.000 A 
ATOM     20  C   UNL     1      47.499   5.827  13.188  0.00  0.00    +0.000 A 
ATOM     21  C   UNL     1      46.731   4.678  13.397  0.00  0.00    +0.000 A 
ATOM     22  F   UNL     1      46.989   3.842  14.414  0.00  0.00    +0.000 F 
ATOM     23  C   UNL     1      45.669   4.360  12.552  0.00  0.00    +0.000 A 
ATOM     24  F   UNL     1      44.975   3.239  12.798  0.00  0.00    +0.000 F 
BRANCH  17  25
ATOM     25  C   UNL     1      44.183   4.815  10.634  0.00  0.00    +0.000 C 
ATOM     26  O   UNL     1      43.019   4.950  11.007  0.00  0.00    +0.000 OA
BRANCH  25  28
ATOM     27  C   UNL     1      44.507   2.878   9.371  0.00  0.00    +0.000 C 
ATOM     28  O   UNL     1      44.568   4.310   9.438  0.00  0.00    +0.000 OA
ENDBRANCH  25  28
ENDBRANCH  17  25
ENDBRANCH  16  20
ENDBRANCH   1  16
TORSDOF 7
ENDMDL
MODEL 2
REMARK VINA RESULT:    -6.833      2.008      2.470
REMARK INTER + INTRA:         -10.830
REMARK INTER:                  -9.922
REMARK INTRA:                  -0.908
REMARK UNBOUND:                -1.201
REMARK  Name = 
REMARK  10 active torsions:
REMARK  status: ('A' for Active; 'I' for Inactive)
REMARK    1  A    between atoms: C_1  and  O_2
REMARK    2  A    between atoms: O_2  and  C_3
REMARK    3  A    between atoms: C_3  and  C_5
REMARK    4  A    between atoms: C_8  and  O_9
REMARK    5  A    between atoms: O_9  and  C_10
REMARK    6  A    between atoms: C_10  and  C_11
REMARK    7  A    between atoms: C_11  and  C_12
REMARK    8  A    between atoms: C_11  and  C_13
REMARK    9  A    between atoms: C_11  and  C_14
REMARK   10  A    between atoms: C_18  and  C_19
REMARK                            x       y       z     vdW  Elec       q    Type
REMARK                         _______ _______ _______ _____ _____    ______ ____
ROOT
ATOM      1  C   UNL     1      48.239   6.713  13.505  0.00  0.00    +0.000 C 
ENDROOT
BRANCH   1   2
ATOM      2  C   UNL     1      48.864   7.457  14.721  0.00  0.00    +0.000 C 
ATOM      3  C   UNL     1      50.359   7.739  14.465  0.00  0.00    +0.000 C 
ATOM      4  C   UNL     1      48.151   8.815  14.899  0.00  0.00    +0.000 C 
BRANCH   2   5
ATOM      5  C   UNL     1      48.712   6.571  15.969  0.00  0.00    +0.000 A 
ATOM      6  C   UNL     1      48.934   7.113  17.242  0.00  0.00    +0.000 A 
ATOM      7  N   UNL     1      48.865   6.394  18.383  0.00  0.00    +0.000 NA
ATOM      8  C   UNL     1      48.556   5.084  18.222  0.00  0.00    +0.000 A 
ATOM      9  C   UNL     1      48.317   4.515  16.973  0.00  0.00    +0.000 A 
ATOM     10  N   UNL     1      48.391   5.253  15.823  0.00  0.00    +0.000 NA
BRANCH   9  11
ATOM     11  C   UNL     1      47.973   3.059  16.851  0.00  0.00    +0.000 C 
ATOM     12  N   UNL     1      47.007   2.535  17.677  0.00  0.00    +0.000 N 
ATOM     13  O   UNL     1      48.531   2.324  16.040  0.00  0.00    +0.000 OA
ATOM     14  H   UNL     1      46.514   3.057  18.389  0.00  0.00    +0.000 HD
ATOM     15  H   UNL     1      46.811   1.547  17.579  0.00  0.00    +0.000 HD
ENDBRANCH   9  11
ENDBRANCH   2   5
ENDBRANCH   1   2
BRANCH   1  16
ATOM     16  O   UNL     1      46.876   7.103  13.267  0.00  0.00    +0.000 OA
BRANCH  16  20
ATOM     17  C   UNL     1      44.505   4.026  11.667  0.00  0.00    +0.000 A 
ATOM     18  C   UNL     1      45.596   3.764  12.508  0.00  0.00    +0.000 A 
ATOM     19  C   UNL     1      46.361   4.830  13.017  0.00  0.00    +0.000 A 
ATOM     20  C   UNL     1      46.051   6.160  12.699  0.00  0.00    +0.000 A 
ATOM     21  C   UNL     1      44.964   6.400  11.855  0.00  0.00    +0.000 A 
ATOM     22  F   UNL     1      44.611   7.647  11.508  0.00  0.00    +0.000 F 
ATOM     23  C   UNL     1      44.205   5.347  11.344  0.00  0.00    +0.000 A 
ATOM     24  F   UNL     1      43.168   5.642  10.546  0.00  0.00    +0.000 F 
BRANCH  17  25
ATOM     25  C   UNL     1      43.696   2.949  11.062  0.00  0.00    +0.000 C 
ATOM     26  O   UNL     1      42.990   2.186  11.721  0.00  0.00    +0.000 OA
BRANCH  25  28
ATOM     27  C   UNL     1      44.986   2.144   9.291  0.00  0.00    +0.000 C 
ATOM     28  O   UNL     1      43.849   2.908   9.718  0.00  0.00    +0.000 OA
ENDBRANCH  25  28
ENDBRANCH  17  25
ENDBRANCH  16  20
ENDBRANCH   1  16
TORSDOF 7
ENDMDL
MODEL 3
REMARK VINA RESULT:    -6.820      4.333      7.307
REMARK INTER + INTRA:         -10.811
REMARK INTER:                  -9.783
REMARK INTRA:                  -1.029
REMARK UNBOUND:                -1.201
REMARK  Name = 
REMARK  10 active torsions:
REMARK  status: ('A' for Active; 'I' for Inactive)
REMARK    1  A    between atoms: C_1  and  O_2
REMARK    2  A    between atoms: O_2  and  C_3
REMARK    3  A    between atoms: C_3  and  C_5
REMARK    4  A    between atoms: C_8  and  O_9
REMARK    5  A    between atoms: O_9  and  C_10
REMARK    6  A    between atoms: C_10  and  C_11
REMARK    7  A    between atoms: C_11  and  C_12
REMARK    8  A    between atoms: C_11  and  C_13
REMARK    9  A    between atoms: C_11  and  C_14
REMARK   10  A    between atoms: C_18  and  C_19
REMARK                            x       y       z     vdW  Elec       q    Type
REMARK                         _______ _______ _______ _____ _____    ______ ____
ROOT
ATOM      1  C   UNL     1      45.096   3.476  12.503  0.00  0.00    +0.000 C 
ENDROOT
BRANCH   1   2
ATOM      2  C   UNL     1      44.105   3.309  11.314  0.00  0.00    +0.000 C 
ATOM      3  C   UNL     1      43.388   1.945  11.402  0.00  0.00    +0.000 C 
ATOM      4  C   UNL     1      43.030   4.414  11.396  0.00  0.00    +0.000 C 
BRANCH   2   5
ATOM      5  C   UNL     1      44.899   3.391   9.999  0.00  0.00    +0.000 A 
ATOM      6  C   UNL     1      44.992   4.610   9.313  0.00  0.00    +0.000 A 
ATOM      7  N   UNL     1      45.632   4.757   8.133  0.00  0.00    +0.000 NA
ATOM      8  C   UNL     1      46.196   3.628   7.638  0.00  0.00    +0.000 A 
ATOM      9  C   UNL     1      46.133   2.402   8.298  0.00  0.00    +0.000 A 
ATOM     10  N   UNL     1      45.481   2.265   9.493  0.00  0.00    +0.000 NA
BRANCH   9  11
ATOM     11  C   UNL     1      46.779   1.183   7.707  0.00  0.00    +0.000 C 
ATOM     12  N   UNL     1      47.824   1.348   6.829  0.00  0.00    +0.000 N 
ATOM     13  O   UNL     1      46.401   0.047   7.982  0.00  0.00    +0.000 OA
ATOM     14  H   UNL     1      48.185   2.242   6.526  0.00  0.00    +0.000 HD
ATOM     15  H   UNL     1      48.227   0.506   6.438  0.00  0.00    +0.000 HD
ENDBRANCH   9  11
ENDBRANCH   2   5
ENDBRANCH   1   2
BRANCH   1  16
ATOM     16  O   UNL     1      44.880   4.699  13.226  0.00  0.00    +0.000 OA
BRANCH  16  20
ATOM     17  C   UNL     1      47.804   7.698  12.901  0.00  0.00    +0.000 A 
ATOM     18  C   UNL     1      46.614   7.735  12.161  0.00  0.00    +0.000 A 
ATOM     19  C   UNL     1      45.666   6.705  12.303  0.00  0.00    +0.000 A 
ATOM     20  C   UNL     1      45.888   5.633  13.180  0.00  0.00    +0.000 A 
ATOM     21  C   UNL     1      47.083   5.612  13.905  0.00  0.00    +0.000 A 
ATOM     22  F   UNL     1      47.361   4.617  14.760  0.00  0.00    +0.000 F 
ATOM     23  C   UNL     1      48.027   6.627  13.763  0.00  0.00    +0.000 A 
ATOM     24  F   UNL     1      49.150   6.555  14.493  0.00  0.00    +0.000 F 
BRANCH  17  25
ATOM     25  C   UNL     1      48.857   8.722  12.757  0.00  0.00    +0.000 C 
ATOM     26  O   UNL     1      49.175   9.492  13.663  0.00  0.00    +0.000 OA
BRANCH  25  28
ATOM     27  C   UNL     1      50.483   7.777  11.373  0.00  0.00    +0.000 C 
ATOM     28  O   UNL     1      49.399   8.707  11.517  0.00  0.00    +0.000 OA
ENDBRANCH  25  28
ENDBRANCH  17  25
ENDBRANCH  16  20
ENDBRANCH   1  16
TORSDOF 7
ENDMDL
MODEL 4
REMARK VINA RESULT:    -6.772      3.205      5.851
REMARK INTER + INTRA:         -10.744
REMARK INTER:                  -9.893
REMARK INTRA:                  -0.851
REMARK UNBOUND:                -1.201
REMARK  Name = 
REMARK  10 active torsions:
REMARK  status: ('A' for Active; 'I' for Inactive)
REMARK    1  A    between atoms: C_1  and  O_2
REMARK    2  A    between atoms: O_2  and  C_3
REMARK    3  A    between atoms: C_3  and  C_5
REMARK    4  A    between atoms: C_8  and  O_9
REMARK    5  A    between atoms: O_9  and  C_10
REMARK    6  A    between atoms: C_10  and  C_11
REMARK    7  A    between atoms: C_11  and  C_12
REMARK    8  A    between atoms: C_11  and  C_13
REMARK    9  A    between atoms: C_11  and  C_14
REMARK   10  A    between atoms: C_18  and  C_19
REMARK                            x       y       z     vdW  Elec       q    Type
REMARK                         _______ _______ _______ _____ _____    ______ ____
ROOT
ATOM      1  C   UNL     1      43.779   3.731  11.402  0.00  0.00    +0.000 C 
ENDROOT
BRANCH   1   2
ATOM      2  C   UNL     1      43.778   5.133  12.078  0.00  0.00    +0.000 C 
ATOM      3  C   UNL     1      43.283   6.206  11.086  0.00  0.00    +0.000 C 
ATOM      4  C   UNL     1      42.805   5.113  13.277  0.00  0.00    +0.000 C 
BRANCH   2   5
ATOM      5  C   UNL     1      45.214   5.464  12.522  0.00  0.00    +0.000 A 
ATOM      6  C   UNL     1      46.034   6.252  11.704  0.00  0.00    +0.000 A 
ATOM      7  N   UNL     1      47.317   6.551  11.999  0.00  0.00    +0.000 NA
ATOM      8  C   UNL     1      47.777   6.033  13.165  0.00  0.00    +0.000 A 
ATOM      9  C   UNL     1      46.986   5.255  14.007  0.00  0.00    +0.000 A 
ATOM     10  N   UNL     1      45.687   4.958  13.697  0.00  0.00    +0.000 NA
BRANCH   9  11
ATOM     11  C   UNL     1      47.545   4.710  15.289  0.00  0.00    +0.000 C 
ATOM     12  N   UNL     1      46.918   3.641  15.883  0.00  0.00    +0.000 N 
ATOM     13  O   UNL     1      48.541   5.192  15.823  0.00  0.00    +0.000 OA
ATOM     14  H   UNL     1      46.081   3.196  15.531  0.00  0.00    +0.000 HD
ATOM     15  H   UNL     1      47.311   3.308  16.754  0.00  0.00    +0.000 HD
ENDBRANCH   9  11
ENDBRANCH   2   5
ENDBRANCH   1   2
BRANCH   1  16
ATOM     16  O   UNL     1      43.591   3.811   9.979  0.00  0.00    +0.000 OA
BRANCH  16  20
ATOM     17  C   UNL     1      46.782   2.615   7.521  0.00  0.00    +0.000 A 
ATOM     18  C   UNL     1      46.477   3.966   7.741  0.00  0.00    +0.000 A 
ATOM     19  C   UNL     1      45.396   4.316   8.571  0.00  0.00    +0.000 A 
ATOM     20  C   UNL     1      44.611   3.333   9.191  0.00  0.00    +0.000 A 
ATOM     21  C   UNL     1      44.927   1.992   8.955  0.00  0.00    +0.000 A 
ATOM     22  F   UNL     1      44.219   0.999   9.513  0.00  0.00    +0.000 F 
ATOM     23  C   UNL     1      45.994   1.640   8.130  0.00  0.00    +0.000 A 
ATOM     24  F   UNL     1      46.254   0.336   7.949  0.00  0.00    +0.000 F 
BRANCH  17  25
ATOM     25  C   UNL     1      47.871   2.185   6.622  0.00  0.00    +0.000 C 
ATOM     26  O   UNL     1      49.059   2.220   6.940  0.00  0.00    +0.000 OA
BRANCH  25  28
ATOM     27  C   UNL     1      46.717   2.807   4.690  0.00  0.00    +0.000 C 
ATOM     28  O   UNL     1      47.393   1.775   5.424  0.00  0.00    +0.000 OA
ENDBRANCH  25  28
ENDBRANCH  17  25
ENDBRANCH  16  20
ENDBRANCH   1  16
TORSDOF 7
ENDMDL
MODEL 5
REMARK VINA RESULT:    -6.614      1.473      1.818
REMARK INTER + INTRA:         -10.521
REMARK INTER:                  -9.779
REMARK INTRA:                  -0.741
REMARK UNBOUND:                -1.201
REMARK  Name = 
REMARK  10 active torsions:
REMARK  status: ('A' for Active; 'I' for Inactive)
REMARK    1  A    between atoms: C_1  and  O_2
REMARK    2  A    between atoms: O_2  and  C_3
REMARK    3  A    between atoms: C_3  and  C_5
REMARK    4  A    between atoms: C_8  and  O_9
REMARK    5  A    between atoms: O_9  and  C_10
REMARK    6  A    between atoms: C_10  and  C_11
REMARK    7  A    between atoms: C_11  and  C_12
REMARK    8  A    between atoms: C_11  and  C_13
REMARK    9  A    between atoms: C_11  and  C_14
REMARK   10  A    between atoms: C_18  and  C_19
REMARK                            x       y       z     vdW  Elec       q    Type
REMARK                         _______ _______ _______ _____ _____    ______ ____
ROOT
ATOM      1  C   UNL     1      48.614   6.811  13.529  0.00  0.00    +0.000 C 
ENDROOT
BRANCH   1   2
ATOM      2  C   UNL     1      49.147   7.526  14.805  0.00  0.00    +0.000 C 
ATOM      3  C   UNL     1      50.672   7.738  14.702  0.00  0.00    +0.000 C 
ATOM      4  C   UNL     1      48.483   8.915  14.917  0.00  0.00    +0.000 C 
BRANCH   2   5
ATOM      5  C   UNL     1      48.829   6.648  16.028  0.00  0.00    +0.000 A 
ATOM      6  C   UNL     1      48.866   7.202  17.314  0.00  0.00    +0.000 A 
ATOM      7  N   UNL     1      48.644   6.491  18.441  0.00  0.00    +0.000 NA
ATOM      8  C   UNL     1      48.373   5.176  18.249  0.00  0.00    +0.000 A 
ATOM      9  C   UNL     1      48.317   4.595  16.984  0.00  0.00    +0.000 A 
ATOM     10  N   UNL     1      48.545   5.325  15.850  0.00  0.00    +0.000 NA
BRANCH   9  11
ATOM     11  C   UNL     1      48.008   3.135  16.829  0.00  0.00    +0.000 C 
ATOM     12  N   UNL     1      47.048   2.571  17.635  0.00  0.00    +0.000 N 
ATOM     13  O   UNL     1      48.588   2.430  16.006  0.00  0.00    +0.000 OA
ATOM     14  H   UNL     1      46.538   3.066  18.355  0.00  0.00    +0.000 HD
ATOM     15  H   UNL     1      46.875   1.582  17.515  0.00  0.00    +0.000 HD
ENDBRANCH   9  11
ENDBRANCH   2   5
ENDBRANCH   1   2
BRANCH   1  16
ATOM     16  O   UNL     1      47.236   7.123  13.262  0.00  0.00    +0.000 OA
BRANCH  16  20
ATOM     17  C   UNL     1      45.012   4.334  11.044  0.00  0.00    +0.000 A 
ATOM     18  C   UNL     1      45.545   5.493  10.462  0.00  0.00    +0.000 A 
ATOM     19  C   UNL     1      46.282   6.398  11.248  0.00  0.00    +0.000 A 
ATOM     20  C   UNL     1      46.497   6.162  12.614  0.00  0.00    +0.000 A 
ATOM     21  C   UNL     1      45.952   5.005  13.176  0.00  0.00    +0.000 A 
ATOM     22  F   UNL     1      46.117   4.716  14.476  0.00  0.00    +0.000 F 
ATOM     23  C   UNL     1      45.218   4.107  12.403  0.00  0.00    +0.000 A 
ATOM     24  F   UNL     1      44.728   3.009  12.998  0.00  0.00    +0.000 F 
BRANCH  17  25
ATOM     25  C   UNL     1      44.189   3.374  10.283  0.00  0.00    +0.000 C 
ATOM     26  O   UNL     1      43.210   2.800  10.760  0.00  0.00    +0.000 OA
BRANCH  25  28
ATOM     27  C   UNL     1      45.406   1.990   8.849  0.00  0.00    +0.000 C 
ATOM     28  O   UNL     1      44.659   3.203   9.025  0.00  0.00    +0.000 OA
ENDBRANCH  25  28
ENDBRANCH  17  25
ENDBRANCH  16  20
ENDBRANCH   1  16
TORSDOF 7
ENDMDL
MODEL 6
REMARK VINA RESULT:    -6.323      1.555      2.043
REMARK INTER + INTRA:         -10.111
REMARK INTER:                  -9.264
REMARK INTRA:                  -0.848
REMARK UNBOUND:                -1.201
REMARK  Name = 
REMARK  10 active torsions:
REMARK  status: ('A' for Active; 'I' for Inactive)
REMARK    1  A    between atoms: C_1  and  O_2
REMARK    2  A    between atoms: O_2  and  C_3
REMARK    3  A    between atoms: C_3  and  C_5
REMARK    4  A    between atoms: C_8  and  O_9
REMARK    5  A    between atoms: O_9  and  C_10
REMARK    6  A    between atoms: C_10  and  C_11
REMARK    7  A    between atoms: C_11  and  C_12
REMARK    8  A    between atoms: C_11  and  C_13
REMARK    9  A    between atoms: C_11  and  C_14
REMARK   10  A    between atoms: C_18  and  C_19
REMARK                            x       y       z     vdW  Elec       q    Type
REMARK                         _______ _______ _______ _____ _____    ______ ____
ROOT
ATOM      1  C   UNL     1      48.300   7.007  14.904  0.00  0.00    +0.000 C 
ENDROOT
BRANCH   1   2
ATOM      2  C   UNL     1      49.255   6.962  16.132  0.00  0.00    +0.000 C 
ATOM      3  C   UNL     1      50.718   7.152  15.680  0.00  0.00    +0.000 C 
ATOM      4  C   UNL     1      48.900   8.121  17.088  0.00  0.00    +0.000 C 
BRANCH   2   5
ATOM      5  C   UNL     1      49.101   5.595  16.822  0.00  0.00    +0.000 A 
ATOM      6  C   UNL     1      47.899   5.265  17.461  0.00  0.00    +0.000 A 
ATOM      7  N   UNL     1      47.698   4.108  18.126  0.00  0.00    +0.000 NA
ATOM      8  C   UNL     1      48.755   3.258  18.136  0.00  0.00    +0.000 A 
ATOM      9  C   UNL     1      49.961   3.548  17.502  0.00  0.00    +0.000 A 
ATOM     10  N   UNL     1      50.153   4.726  16.833  0.00  0.00    +0.000 NA
BRANCH   9  11
ATOM     11  C   UNL     1      51.098   2.569  17.542  0.00  0.00    +0.000 C 
ATOM     12  N   UNL     1      50.906   1.310  17.026  0.00  0.00    +0.000 N 
ATOM     13  O   UNL     1      52.191   2.860  18.022  0.00  0.00    +0.000 OA
ATOM     14  H   UNL     1      50.037   0.975  16.634  0.00  0.00    +0.000 HD
ATOM     15  H   UNL     1      51.688   0.670  17.082  0.00  0.00    +0.000 HD
ENDBRANCH   9  11
ENDBRANCH   2   5
ENDBRANCH   1   2
BRANCH   1  16
ATOM     16  O   UNL     1      48.452   5.860  14.051  0.00  0.00    +0.000 OA
BRANCH  16  20
ATOM     17  C   UNL     1      45.139   4.650  11.768  0.00  0.00    +0.000 A 
ATOM     18  C   UNL     1      45.590   3.916  12.873  0.00  0.00    +0.000 A 
ATOM     19  C   UNL     1      46.706   4.361  13.605  0.00  0.00    +0.000 A 
ATOM     20  C   UNL     1      47.382   5.537  13.249  0.00  0.00    +0.000 A 
ATOM     21  C   UNL     1      46.921   6.253  12.140  0.00  0.00    +0.000 A 
ATOM     22  F   UNL     1      47.520   7.385  11.743  0.00  0.00    +0.000 F 
ATOM     23  C   UNL     1      45.819   5.813  11.410  0.00  0.00    +0.000 A 
ATOM     24  F   UNL     1      45.418   6.548  10.361  0.00  0.00    +0.000 F 
BRANCH  17  25
ATOM     25  C   UNL     1      44.006   4.208  10.931  0.00  0.00    +0.000 C 
ATOM     26  O   UNL     1      44.129   3.871   9.754  0.00  0.00    +0.000 OA
BRANCH  25  28
ATOM     27  C   UNL     1      42.303   5.562  11.779  0.00  0.00    +0.000 C 
ATOM     28  O   UNL     1      42.840   4.240  11.618  0.00  0.00    +0.000 OA
ENDBRANCH  25  28
ENDBRANCH  17  25
ENDBRANCH  16  20
ENDBRANCH   1  16
TORSDOF 7
ENDMDL
MODEL 7
REMARK VINA RESULT:    -6.271      3.851      7.710
REMARK INTER + INTRA:         -10.037
REMARK INTER:                  -9.108
REMARK INTRA:                  -0.929
REMARK UNBOUND:                -1.201
REMARK  Name = 
REMARK  10 active torsions:
REMARK  status: ('A' for Active; 'I' for Inactive)
REMARK    1  A    between atoms: C_1  and  O_2
REMARK    2  A    between atoms: O_2  and  C_3
REMARK    3  A    between atoms: C_3  and  C_5
REMARK    4  A    between atoms: C_8  and  O_9
REMARK    5  A    between atoms: O_9  and  C_10
REMARK    6  A    between atoms: C_10  and  C_11
REMARK    7  A    between atoms: C_11  and  C_12
REMARK    8  A    between atoms: C_11  and  C_13
REMARK    9  A    between atoms: C_11  and  C_14
REMARK   10  A    between atoms: C_18  and  C_19
REMARK                            x       y       z     vdW  Elec       q    Type
REMARK                         _______ _______ _______ _____ _____    ______ ____
ROOT
ATOM      1  C   UNL     1      44.768   5.258  12.932  0.00  0.00    +0.000 C 
ENDROOT
BRANCH   1   2
ATOM      2  C   UNL     1      44.341   5.647  11.486  0.00  0.00    +0.000 C 
ATOM      3  C   UNL     1      42.880   6.144  11.475  0.00  0.00    +0.000 C 
ATOM      4  C   UNL     1      45.238   6.802  10.991  0.00  0.00    +0.000 C 
BRANCH   2   5
ATOM      5  C   UNL     1      44.471   4.406  10.586  0.00  0.00    +0.000 A 
ATOM      6  C   UNL     1      43.777   3.233  10.909  0.00  0.00    +0.000 A 
ATOM      7  N   UNL     1      43.871   2.088  10.199  0.00  0.00    +0.000 NA
ATOM      8  C   UNL     1      44.695   2.144   9.123  0.00  0.00    +0.000 A 
ATOM      9  C   UNL     1      45.391   3.296   8.765  0.00  0.00    +0.000 A 
ATOM     10  N   UNL     1      45.289   4.449   9.495  0.00  0.00    +0.000 NA
BRANCH   9  11
ATOM     11  C   UNL     1      46.287   3.304   7.561  0.00  0.00    +0.000 C 
ATOM     12  N   UNL     1      46.962   2.153   7.231  0.00  0.00    +0.000 N 
ATOM     13  O   UNL     1      46.436   4.307   6.867  0.00  0.00    +0.000 OA
ATOM     14  H   UNL     1      46.920   1.291   7.756  0.00  0.00    +0.000 HD
ATOM     15  H   UNL     1      47.569   2.197   6.422  0.00  0.00    +0.000 HD
ENDBRANCH   9  11
ENDBRANCH   2   5
ENDBRANCH   1   2
BRANCH   1  16
ATOM     16  O   UNL     1      46.072   4.654  12.973  0.00  0.00    +0.000 OA
BRANCH  16  20
ATOM     17  C   UNL     1      48.505   5.527  16.284  0.00  0.00    +0.000 A 
ATOM     18  C   UNL     1      47.721   4.366  16.222  0.00  0.00    +0.000 A 
ATOM     19  C   UNL     1      46.921   4.120  15.091  0.00  0.00    +0.000 A 
ATOM     20  C   UNL     1      46.892   5.018  14.015  0.00  0.00    +0.000 A 
ATOM     21  C   UNL     1      47.676   6.172  14.098  0.00  0.00    +0.000 A 
ATOM     22  F   UNL     1      47.696   7.075  13.107  0.00  0.00    +0.000 F 
ATOM     23  C   UNL     1      48.467   6.423  15.218  0.00  0.00    +0.000 A 
ATOM     24  F   UNL     1      49.205   7.543  15.236  0.00  0.00    +0.000 F 
BRANCH  17  25
ATOM     25  C   UNL     1      49.326   5.865  17.464  0.00  0.00    +0.000 C 
ATOM     26  O   UNL     1      50.472   5.450  17.627  0.00  0.00    +0.000 OA
BRANCH  25  28
ATOM     27  C   UNL     1      48.273   6.002  19.543  0.00  0.00    +0.000 C 
ATOM     28  O   UNL     1      48.652   6.662  18.326  0.00  0.00    +0.000 OA
ENDBRANCH  25  28
ENDBRANCH  17  25
ENDBRANCH  16  20
ENDBRANCH   1  16
TORSDOF 7
ENDMDL
MODEL 8
REMARK VINA RESULT:    -6.222      3.887      6.430
REMARK INTER + INTRA:          -9.969
REMARK INTER:                  -9.383
REMARK INTRA:                  -0.585
REMARK UNBOUND:                -1.201
REMARK  Name = 
REMARK  10 active torsions:
REMARK  status: ('A' for Active; 'I' for Inactive)
REMARK    1  A    between atoms: C_1  and  O_2
REMARK    2  A    between atoms: O_2  and  C_3
REMARK    3  A    between atoms: C_3  and  C_5
REMARK    4  A    between atoms: C_8  and  O_9
REMARK    5  A    between atoms: O_9  and  C_10
REMARK    6  A    between atoms: C_10  and  C_11
REMARK    7  A    between atoms: C_11  and  C_12
REMARK    8  A    between atoms: C_11  and  C_13
REMARK    9  A    between atoms: C_11  and  C_14
REMARK   10  A    between atoms: C_18  and  C_19
REMARK                            x       y       z     vdW  Elec       q    Type
REMARK                         _______ _______ _______ _____ _____    ______ ____
ROOT
ATOM      1  C   UNL     1      43.685   3.575  11.762  0.00  0.00    +0.000 C 
ENDROOT
BRANCH   1   2
ATOM      2  C   UNL     1      43.660   5.007  12.372  0.00  0.00    +0.000 C 
ATOM      3  C   UNL     1      43.040   6.004  11.371  0.00  0.00    +0.000 C 
ATOM      4  C   UNL     1      42.776   4.998  13.638  0.00  0.00    +0.000 C 
BRANCH   2   5
ATOM      5  C   UNL     1      45.104   5.427  12.694  0.00  0.00    +0.000 A 
ATOM      6  C   UNL     1      46.029   4.472  13.134  0.00  0.00    +0.000 A 
ATOM      7  N   UNL     1      47.301   4.765  13.480  0.00  0.00    +0.000 NA
ATOM      8  C   UNL     1      47.641   6.073  13.369  0.00  0.00    +0.000 A 
ATOM      9  C   UNL     1      46.751   7.048  12.924  0.00  0.00    +0.000 A 
ATOM     10  N   UNL     1      45.464   6.739  12.579  0.00  0.00    +0.000 NA
BRANCH   9  11
ATOM     11  C   UNL     1      47.181   8.482  12.817  0.00  0.00    +0.000 C 
ATOM     12  N   UNL     1      46.277   9.470  13.126  0.00  0.00    +0.000 N 
ATOM     13  O   UNL     1      48.314   8.797  12.458  0.00  0.00    +0.000 OA
ATOM     14  H   UNL     1      45.319   9.307  13.405  0.00  0.00    +0.000 HD
ATOM     15  H   UNL     1      46.595  10.425  13.028  0.00  0.00    +0.000 HD
ENDBRANCH   9  11
ENDBRANCH   2   5
ENDBRANCH   1   2
BRANCH   1  16
ATOM     16  O   UNL     1      43.389   3.575  10.356  0.00  0.00    +0.000 OA
BRANCH  16  20
ATOM     17  C   UNL     1      46.457   2.295   7.786  0.00  0.00    +0.000 A 
ATOM     18  C   UNL     1      45.576   1.394   8.401  0.00  0.00    +0.000 A 
ATOM     19  C   UNL     1      44.566   1.872   9.256  0.00  0.00    +0.000 A 
ATOM     20  C   UNL     1      44.419   3.244   9.506  0.00  0.00    +0.000 A 
ATOM     21  C   UNL     1      45.310   4.126   8.888  0.00  0.00    +0.000 A 
ATOM     22  F   UNL     1      45.228   5.450   9.083  0.00  0.00    +0.000 F 
ATOM     23  C   UNL     1      46.315   3.656   8.044  0.00  0.00    +0.000 A 
ATOM     24  F   UNL     1      47.134   4.553   7.472  0.00  0.00    +0.000 F 
BRANCH  17  25
ATOM     25  C   UNL     1      47.566   1.851   6.920  0.00  0.00    +0.000 C 
ATOM     26  O   UNL     1      48.095   0.744   7.017  0.00  0.00    +0.000 OA
BRANCH  25  28
ATOM     27  C   UNL     1      47.478   2.559   4.697  0.00  0.00    +0.000 C 
ATOM     28  O   UNL     1      47.924   2.813   6.037  0.00  0.00    +0.000 OA
ENDBRANCH  25  28
ENDBRANCH  17  25
ENDBRANCH  16  20
ENDBRANCH   1  16
TORSDOF 7
ENDMDL
MODEL 9
REMARK VINA RESULT:    -6.057      3.854      7.731
REMARK INTER + INTRA:          -9.736
REMARK INTER:                  -8.985
REMARK INTRA:                  -0.751
REMARK UNBOUND:                -1.201
REMARK  Name = 
REMARK  10 active torsions:
REMARK  status: ('A' for Active; 'I' for Inactive)
REMARK    1  A    between atoms: C_1  and  O_2
REMARK    2  A    between atoms: O_2  and  C_3
REMARK    3  A    between atoms: C_3  and  C_5
REMARK    4  A    between atoms: C_8  and  O_9
REMARK    5  A    between atoms: O_9  and  C_10
REMARK    6  A    between atoms: C_10  and  C_11
REMARK    7  A    between atoms: C_11  and  C_12
REMARK    8  A    between atoms: C_11  and  C_13
REMARK    9  A    between atoms: C_11  and  C_14
REMARK   10  A    between atoms: C_18  and  C_19
REMARK                            x       y       z     vdW  Elec       q    Type
REMARK                         _______ _______ _______ _____ _____    ______ ____
ROOT
ATOM      1  C   UNL     1      44.822   4.770  12.670  0.00  0.00    +0.000 C 
ENDROOT
BRANCH   1   2
ATOM      2  C   UNL     1      44.045   3.969  11.585  0.00  0.00    +0.000 C 
ATOM      3  C   UNL     1      43.783   2.528  12.069  0.00  0.00    +0.000 C 
ATOM      4  C   UNL     1      42.678   4.644  11.345  0.00  0.00    +0.000 C 
BRANCH   2   5
ATOM      5  C   UNL     1      44.891   3.936  10.300  0.00  0.00    +0.000 A 
ATOM      6  C   UNL     1      45.267   5.135   9.680  0.00  0.00    +0.000 A 
ATOM      7  N   UNL     1      45.970   5.193   8.528  0.00  0.00    +0.000 NA
ATOM      8  C   UNL     1      46.303   3.991   7.995  0.00  0.00    +0.000 A 
ATOM      9  C   UNL     1      45.957   2.780   8.591  0.00  0.00    +0.000 A 
ATOM     10  N   UNL     1      45.243   2.735   9.757  0.00  0.00    +0.000 NA
BRANCH   9  11
ATOM     11  C   UNL     1      46.355   1.478   7.960  0.00  0.00    +0.000 C 
ATOM     12  N   UNL     1      47.247   1.494   6.914  0.00  0.00    +0.000 N 
ATOM     13  O   UNL     1      45.907   0.402   8.349  0.00  0.00    +0.000 OA
ATOM     14  H   UNL     1      47.647   2.331   6.512  0.00  0.00    +0.000 HD
ATOM     15  H   UNL     1      47.483   0.601   6.503  0.00  0.00    +0.000 HD
ENDBRANCH   9  11
ENDBRANCH   2   5
ENDBRANCH   1   2
BRANCH   1  16
ATOM     16  O   UNL     1      45.870   3.995  13.276  0.00  0.00    +0.000 OA
BRANCH  16  20
ATOM     17  C   UNL     1      48.573   5.879  15.882  0.00  0.00    +0.000 A 
ATOM     18  C   UNL     1      47.864   4.727  16.250  0.00  0.00    +0.000 A 
ATOM     19  C   UNL     1      46.968   4.134  15.342  0.00  0.00    +0.000 A 
ATOM     20  C   UNL     1      46.769   4.675  14.064  0.00  0.00    +0.000 A 
ATOM     21  C   UNL     1      47.480   5.827  13.718  0.00  0.00    +0.000 A 
ATOM     22  F   UNL     1      47.338   6.400  12.513  0.00  0.00    +0.000 F 
ATOM     23  C   UNL     1      48.366   6.421  14.616  0.00  0.00    +0.000 A 
ATOM     24  F   UNL     1      49.027   7.521  14.222  0.00  0.00    +0.000 F 
BRANCH  17  25
ATOM     25  C   UNL     1      49.488   6.575  16.808  0.00  0.00    +0.000 C 
ATOM     26  O   UNL     1      50.704   6.639  16.631  0.00  0.00    +0.000 OA
BRANCH  25  28
ATOM     27  C   UNL     1      48.494   8.492  17.695  0.00  0.00    +0.000 C 
ATOM     28  O   UNL     1      48.822   7.105  17.861  0.00  0.00    +0.000 OA
ENDBRANCH  25  28
ENDBRANCH  17  25
ENDBRANCH  16  20
ENDBRANCH   1  16
TORSDOF 7
ENDMDL
