MODEL 1
REMARK VINA RESULT:    -6.403      0.000      0.000
REMARK INTER + INTRA:          -9.598
REMARK INTER:                  -8.836
REMARK INTRA:                  -0.762
REMARK UNBOUND:                -0.762
REMARK  Name = 
REMARK  8 active torsions:
REMARK  status: ('A' for Active; 'I' for Inactive)
REMARK    1  A    between atoms: C_1  and  O_2
REMARK    2  A    between atoms: O_2  and  C_3
REMARK    3  A    between atoms: C_3  and  C_4
REMARK    4  A    between atoms: C_4  and  N_5
REMARK    5  A    between atoms: C_4  and  C_15
REMARK    6  A    between atoms: N_5  and  C_6
REMARK    7  A    between atoms: C_9  and  C_10
REMARK    8  A    between atoms: C_10  and  N_11
REMARK                            x       y       z     vdW  Elec       q    Type
REMARK                         _______ _______ _______ _____ _____    ______ ____
ROOT
ATOM      1  N   UNL     1      44.383   5.475  10.128  0.00  0.00    +0.000 N 
ATOM      2  H   UNL     1      43.744   5.044  10.789  0.00  0.00    +0.000 HD
ENDROOT
BRANCH   1   3
ATOM      3  C   UNL     1      45.046   4.455   9.429  0.00  0.00    +0.000 A 
ATOM      4  N   UNL     1      45.823   4.767   8.371  0.00  0.00    +0.000 NA
ATOM      5  C   UNL     1      46.372   3.734   7.687  0.00  0.00    +0.000 A 
ATOM      6  C   UNL     1      46.166   2.402   8.029  0.00  0.00    +0.000 A 
ATOM      7  N   UNL     1      45.417   2.066   9.106  0.00  0.00    +0.000 NA
ATOM      8  C   UNL     1      44.872   3.100   9.795  0.00  0.00    +0.000 A 
ATOM      9 BR   UNL     1      43.780   2.637  11.289  0.00  0.00    +0.000 Br
BRANCH   6  10
ATOM     10  C   UNL     1      46.762   1.287   7.206  0.00  0.00    +0.000 C 
BRANCH  10  11
ATOM     11  N   UNL     1      48.108   1.596   6.713  0.00  0.00    +0.000 NA
ATOM     12  H   UNL     1      48.776   1.389   7.457  0.00  0.00    +0.000 HD
ATOM     13  H   UNL     1      48.175   2.601   6.558  0.00  0.00    +0.000 HD
ENDBRANCH  10  11
ENDBRANCH   6  10
ENDBRANCH   1   3
BRANCH   1  14
ATOM     14  C   UNL     1      45.171   6.589  10.687  0.00  0.00    +0.000 C 
BRANCH  14  15
ATOM     15  C   UNL     1      46.304   6.006  11.603  0.00  0.00    +0.000 C 
ATOM     16  C   UNL     1      45.727   5.503  12.949  0.00  0.00    +0.000 C 
ATOM     17  C   UNL     1      46.797   5.055  13.944  0.00  0.00    +0.000 C 
ATOM     18  C   UNL     1      47.849   6.134  14.155  0.00  0.00    +0.000 C 
ATOM     19  C   UNL     1      48.501   6.503  12.833  0.00  0.00    +0.000 C 
ATOM     20  C   UNL     1      47.468   7.000  11.826  0.00  0.00    +0.000 C 
ENDBRANCH  14  15
BRANCH  14  21
ATOM     21  C   UNL     1      44.237   7.549  11.477  0.00  0.00    +0.000 C 
BRANCH  21  23
ATOM     22  C   UNL     1      44.888   9.701  12.178  0.00  0.00    +0.000 C 
ATOM     23  O   UNL     1      44.432   8.909  11.082  0.00  0.00    +0.000 OA
ENDBRANCH  21  23
ENDBRANCH  14  21
ENDBRANCH   1  14
TORSDOF 7
ENDMDL
MODEL 2
REMARK VINA RESULT:    -6.399      3.102      6.204
REMARK INTER + INTRA:          -9.593
REMARK INTER:                  -8.918
REMARK INTRA:                  -0.674
REMARK UNBOUND:                -0.762
REMARK  Name = 
REMARK  8 active torsions:
REMARK  status: ('A' for Active; 'I' for Inactive)
REMARK    1  A    between atoms: C_1  and  O_2
REMARK    2  A    between atoms: O_2  and  C_3
REMARK    3  A    between atoms: C_3  and  C_4
REMARK    4  A    between atoms: C_4  and  N_5
REMARK    5  A    between atoms: C_4  and  C_15
REMARK    6  A    between atoms: N_5  and  C_6
REMARK    7  A    between atoms: C_9  and  C_10
REMARK    8  A    between atoms: C_10  and  N_11
REMARK                            x       y       z     vdW  Elec       q    Type
REMARK                         _______ _______ _______ _____ _____    ______ ____
ROOT
ATOM      1  N   UNL     1      45.095   6.419  10.669  0.00  0.00    +0.000 N 
ATOM      2  H   UNL     1      45.583   6.433   9.778  0.00  0.00    +0.000 HD
ENDROOT
BRANCH   1   3
ATOM      3  C   UNL     1      45.966   6.905  11.654  0.00  0.00    +0.000 A 
ATOM      4  N   UNL     1      46.896   6.084  12.187  0.00  0.00    +0.000 NA
ATOM      5  C   UNL     1      47.654   6.586  13.192  0.00  0.00    +0.000 A 
ATOM      6  C   UNL     1      47.510   7.880  13.678  0.00  0.00    +0.000 A 
ATOM      7  N   UNL     1      46.607   8.732  13.138  0.00  0.00    +0.000 NA
ATOM      8  C   UNL     1      45.851   8.233  12.127  0.00  0.00    +0.000 A 
ATOM      9 BR   UNL     1      44.547   9.411  11.387  0.00  0.00    +0.000 Br
BRANCH   6  10
ATOM     10  C   UNL     1      48.348   8.376  14.830  0.00  0.00    +0.000 C 
BRANCH  10  11
ATOM     11  N   UNL     1      47.581   9.164  15.799  0.00  0.00    +0.000 NA
ATOM     12  H   UNL     1      48.094   9.171  16.682  0.00  0.00    +0.000 HD
ATOM     13  H   UNL     1      46.707   8.678  15.994  0.00  0.00    +0.000 HD
ENDBRANCH  10  11
ENDBRANCH   6  10
ENDBRANCH   1   3
BRANCH   1  14
ATOM     14  C   UNL     1      44.342   5.177  10.927  0.00  0.00    +0.000 C 
BRANCH  14  15
ATOM     15  C   UNL     1      44.460   4.238   9.675  0.00  0.00    +0.000 C 
ATOM     16  C   UNL     1      44.524   2.750  10.099  0.00  0.00    +0.000 C 
ATOM     17  C   UNL     1      44.784   1.794   8.936  0.00  0.00    +0.000 C 
ATOM     18  C   UNL     1      46.015   2.203   8.140  0.00  0.00    +0.000 C 
ATOM     19  C   UNL     1      45.858   3.619   7.613  0.00  0.00    +0.000 C 
ATOM     20  C   UNL     1      45.643   4.613   8.751  0.00  0.00    +0.000 C 
ENDBRANCH  14  15
BRANCH  14  21
ATOM     21  C   UNL     1      42.859   5.518  11.245  0.00  0.00    +0.000 C 
BRANCH  21  23
ATOM     22  C   UNL     1      43.446   4.348  13.201  0.00  0.00    +0.000 C 
ATOM     23  O   UNL     1      42.559   5.306  12.626  0.00  0.00    +0.000 OA
ENDBRANCH  21  23
ENDBRANCH  14  21
ENDBRANCH   1  14
TORSDOF 7
ENDMDL
MODEL 3
REMARK VINA RESULT:    -6.260      3.187      6.055
REMARK INTER + INTRA:          -9.401
REMARK INTER:                  -8.812
REMARK INTRA:                  -0.589
REMARK UNBOUND:                -0.762
REMARK  Name = 
REMARK  8 active torsions:
REMARK  status: ('A' for Active; 'I' for Inactive)
REMARK    1  A    between atoms: C_1  and  O_2
REMARK    2  A    between atoms: O_2  and  C_3
REMARK    3  A    between atoms: C_3  and  C_4
REMARK    4  A    between atoms: C_4  and  N_5
REMARK    5  A    between atoms: C_4  and  C_15
REMARK    6  A    between atoms: N_5  and  C_6
REMARK    7  A    between atoms: C_9  and  C_10
REMARK    8  A    between atoms: C_10  and  N_11
REMARK                            x       y       z     vdW  Elec       q    Type
REMARK                         _______ _______ _______ _____ _____    ______ ____
ROOT
ATOM      1  N   UNL     1      45.852   5.493  11.391  0.00  0.00    +0.000 N 
ATOM      2  H   UNL     1      46.555   5.325  10.678  0.00  0.00    +0.000 HD
ENDROOT
BRANCH   1   3
ATOM      3  C   UNL     1      46.436   5.267  12.646  0.00  0.00    +0.000 A 
ATOM      4  N   UNL     1      46.005   4.240  13.408  0.00  0.00    +0.000 NA
ATOM      5  C   UNL     1      46.550   4.121  14.643  0.00  0.00    +0.000 A 
ATOM      6  C   UNL     1      47.509   4.998  15.137  0.00  0.00    +0.000 A 
ATOM      7  N   UNL     1      47.981   6.016  14.379  0.00  0.00    +0.000 NA
ATOM      8  C   UNL     1      47.440   6.133  13.139  0.00  0.00    +0.000 A 
ATOM      9 BR   UNL     1      48.066   7.589  12.079  0.00  0.00    +0.000 Br
BRANCH   6  10
ATOM     10  C   UNL     1      48.050   4.850  16.537  0.00  0.00    +0.000 C 
BRANCH  10  11
ATOM     11  N   UNL     1      46.997   4.774  17.554  0.00  0.00    +0.000 NA
ATOM     12  H   UNL     1      47.298   4.121  18.279  0.00  0.00    +0.000 HD
ATOM     13  H   UNL     1      46.170   4.352  17.134  0.00  0.00    +0.000 HD
ENDBRANCH  10  11
ENDBRANCH   6  10
ENDBRANCH   1   3
BRANCH   1  14
ATOM     14  C   UNL     1      44.536   4.895  11.095  0.00  0.00    +0.000 C 
BRANCH  14  15
ATOM     15  C   UNL     1      44.636   4.074   9.762  0.00  0.00    +0.000 C 
ATOM     16  C   UNL     1      44.868   2.570  10.051  0.00  0.00    +0.000 C 
ATOM     17  C   UNL     1      45.118   1.738   8.794  0.00  0.00    +0.000 C 
ATOM     18  C   UNL     1      46.238   2.325   7.948  0.00  0.00    +0.000 C 
ATOM     19  C   UNL     1      45.912   3.757   7.558  0.00  0.00    +0.000 C 
ATOM     20  C   UNL     1      45.702   4.632   8.790  0.00  0.00    +0.000 C 
ENDBRANCH  14  15
BRANCH  14  21
ATOM     21  C   UNL     1      43.461   6.015  10.995  0.00  0.00    +0.000 C 
BRANCH  21  23
ATOM     22  C   UNL     1      42.744   5.002  12.996  0.00  0.00    +0.000 C 
ATOM     23  O   UNL     1      42.344   5.742  11.844  0.00  0.00    +0.000 OA
ENDBRANCH  21  23
ENDBRANCH  14  21
ENDBRANCH   1  14
TORSDOF 7
ENDMDL
MODEL 4
REMARK VINA RESULT:    -6.102      3.683      6.505
REMARK INTER + INTRA:          -9.183
REMARK INTER:                  -8.448
REMARK INTRA:                  -0.735
REMARK UNBOUND:                -0.762
REMARK  Name = 
REMARK  8 active torsions:
REMARK  status: ('A' for Active; 'I' for Inactive)
REMARK    1  A    between atoms: C_1  and  O_2
REMARK    2  A    between atoms: O_2  and  C_3
REMARK    3  A    between atoms: C_3  and  C_4
REMARK    4  A    between atoms: C_4  and  N_5
REMARK    5  A    between atoms: C_4  and  C_15
REMARK    6  A    between atoms: N_5  and  C_6
REMARK    7  A    between atoms: C_9  and  C_10
REMARK    8  A    between atoms: C_10  and  N_11
REMARK                            x       y       z     vdW  Elec       q    Type
REMARK                         _______ _______ _______ _____ _____    ______ ____
ROOT
ATOM      1  N   UNL     1      45.543   5.019  12.952  0.00  0.00    +0.000 N 
ATOM      2  H   UNL     1      45.887   5.602  12.195  0.00  0.00    +0.000 HD
ENDROOT
BRANCH   1   3
ATOM      3  C   UNL     1      46.500   5.018  13.976  0.00  0.00    +0.000 A 
ATOM      4  N   UNL     1      46.379   4.150  15.003  0.00  0.00    +0.000 NA
ATOM      5  C   UNL     1      47.288   4.251  16.003  0.00  0.00    +0.000 A 
ATOM      6  C   UNL     1      48.312   5.192  16.006  0.00  0.00    +0.000 A 
ATOM      7  N   UNL     1      48.473   6.052  14.972  0.00  0.00    +0.000 NA
ATOM      8  C   UNL     1      47.566   5.948  13.967  0.00  0.00    +0.000 A 
ATOM      9 BR   UNL     1      47.758   7.181  12.526  0.00  0.00    +0.000 Br
BRANCH   6  10
ATOM     10  C   UNL     1      49.270   5.294  17.166  0.00  0.00    +0.000 C 
BRANCH  10  11
ATOM     11  N   UNL     1      50.656   5.525  16.746  0.00  0.00    +0.000 NA
ATOM     12  H   UNL     1      51.186   4.668  16.909  0.00  0.00    +0.000 HD
ATOM     13  H   UNL     1      51.070   6.223  17.361  0.00  0.00    +0.000 HD
ENDBRANCH  10  11
ENDBRANCH   6  10
ENDBRANCH   1   3
BRANCH   1  14
ATOM     14  C   UNL     1      44.963   3.736  12.511  0.00  0.00    +0.000 C 
BRANCH  14  15
ATOM     15  C   UNL     1      45.332   3.499  11.005  0.00  0.00    +0.000 C 
ATOM     16  C   UNL     1      45.490   4.843  10.252  0.00  0.00    +0.000 C 
ATOM     17  C   UNL     1      45.707   4.679   8.748  0.00  0.00    +0.000 C 
ATOM     18  C   UNL     1      44.629   3.808   8.119  0.00  0.00    +0.000 C 
ATOM     19  C   UNL     1      44.598   2.442   8.783  0.00  0.00    +0.000 C 
ATOM     20  C   UNL     1      44.336   2.561  10.282  0.00  0.00    +0.000 C 
ENDBRANCH  14  15
BRANCH  14  21
ATOM     21  C   UNL     1      43.423   3.754  12.724  0.00  0.00    +0.000 C 
BRANCH  21  23
ATOM     22  C   UNL     1      42.291   5.599  11.798  0.00  0.00    +0.000 C 
ATOM     23  O   UNL     1      42.944   5.081  12.955  0.00  0.00    +0.000 OA
ENDBRANCH  21  23
ENDBRANCH  14  21
ENDBRANCH   1  14
TORSDOF 7
ENDMDL
MODEL 5
REMARK VINA RESULT:    -5.963      3.190      5.974
REMARK INTER + INTRA:          -8.991
REMARK INTER:                  -8.314
REMARK INTRA:                  -0.677
REMARK UNBOUND:                -0.762
REMARK  Name = 
REMARK  8 active torsions:
REMARK  status: ('A' for Active; 'I' for Inactive)
REMARK    1  A    between atoms: C_1  and  O_2
REMARK    2  A    between atoms: O_2  and  C_3
REMARK    3  A    between atoms: C_3  and  C_4
REMARK    4  A    between atoms: C_4  and  N_5
REMARK    5  A    between atoms: C_4  and  C_15
REMARK    6  A    between atoms: N_5  and  C_6
REMARK    7  A    between atoms: C_9  and  C_10
REMARK    8  A    between atoms: C_10  and  N_11
REMARK                            x       y       z     vdW  Elec       q    Type
REMARK                         _______ _______ _______ _____ _____    ______ ____
ROOT
ATOM      1  N   UNL     1      46.152   5.507  11.748  0.00  0.00    +0.000 N 
ATOM      2  H   UNL     1      46.777   5.097  11.061  0.00  0.00    +0.000 HD
ENDROOT
BRANCH   1   3
ATOM      3  C   UNL     1      46.652   5.218  13.026  0.00  0.00    +0.000 A 
ATOM      4  N   UNL     1      46.084   4.239  13.761  0.00  0.00    +0.000 NA
ATOM      5  C   UNL     1      46.558   4.062  15.018  0.00  0.00    +0.000 A 
ATOM      6  C   UNL     1      47.580   4.833  15.560  0.00  0.00    +0.000 A 
ATOM      7  N   UNL     1      48.187   5.799  14.831  0.00  0.00    +0.000 NA
ATOM      8  C   UNL     1      47.717   5.974  13.570  0.00  0.00    +0.000 A 
ATOM      9 BR   UNL     1      48.537   7.360  12.548  0.00  0.00    +0.000 Br
BRANCH   6  10
ATOM     10  C   UNL     1      48.039   4.625  16.982  0.00  0.00    +0.000 C 
BRANCH  10  11
ATOM     11  N   UNL     1      47.012   4.017  17.833  0.00  0.00    +0.000 NA
ATOM     12  H   UNL     1      47.178   4.314  18.796  0.00  0.00    +0.000 HD
ATOM     13  H   UNL     1      47.146   3.007  17.832  0.00  0.00    +0.000 HD
ENDBRANCH  10  11
ENDBRANCH   6  10
ENDBRANCH   1   3
BRANCH   1  14
ATOM     14  C   UNL     1      44.720   5.282  11.472  0.00  0.00    +0.000 C 
BRANCH  14  15
ATOM     15  C   UNL     1      44.579   4.438  10.156  0.00  0.00    +0.000 C 
ATOM     16  C   UNL     1      44.591   2.921  10.464  0.00  0.00    +0.000 C 
ATOM     17  C   UNL     1      44.602   2.043   9.213  0.00  0.00    +0.000 C 
ATOM     18  C   UNL     1      45.730   2.432   8.268  0.00  0.00    +0.000 C 
ATOM     19  C   UNL     1      45.606   3.893   7.868  0.00  0.00    +0.000 C 
ATOM     20  C   UNL     1      45.639   4.806   9.090  0.00  0.00    +0.000 C 
ENDBRANCH  14  15
BRANCH  14  21
ATOM     21  C   UNL     1      43.987   6.648  11.353  0.00  0.00    +0.000 C 
BRANCH  21  23
ATOM     22  C   UNL     1      44.240   8.980  11.139  0.00  0.00    +0.000 C 
ATOM     23  O   UNL     1      44.914   7.737  11.330  0.00  0.00    +0.000 OA
ENDBRANCH  21  23
ENDBRANCH  14  21
ENDBRANCH   1  14
TORSDOF 7
ENDMDL
MODEL 6
REMARK VINA RESULT:    -5.542      3.021      4.578
REMARK INTER + INTRA:          -8.410
REMARK INTER:                  -7.732
REMARK INTRA:                  -0.678
REMARK UNBOUND:                -0.762
REMARK  Name = 
REMARK  8 active torsions:
REMARK  status: ('A' for Active; 'I' for Inactive)
REMARK    1  A    between atoms: C_1  and  O_2
REMARK    2  A    between atoms: O_2  and  C_3
REMARK    3  A    between atoms: C_3  and  C_4
REMARK    4  A    between atoms: C_4  and  N_5
REMARK    5  A    between atoms: C_4  and  C_15
REMARK    6  A    between atoms: N_5  and  C_6
REMARK    7  A    between atoms: C_9  and  C_10
REMARK    8  A    between atoms: C_10  and  N_11
REMARK                            x       y       z     vdW  Elec       q    Type
REMARK                         _______ _______ _______ _____ _____    ______ ____
ROOT
ATOM      1  N   UNL     1      46.037   5.355  14.085  0.00  0.00    +0.000 N 
ATOM      2  H   UNL     1      45.372   5.141  14.823  0.00  0.00    +0.000 HD
ENDROOT
BRANCH   1   3
ATOM      3  C   UNL     1      45.580   4.766  12.898  0.00  0.00    +0.000 A 
ATOM      4  N   UNL     1      45.498   3.422  12.808  0.00  0.00    +0.000 NA
ATOM      5  C   UNL     1      45.128   2.908  11.609  0.00  0.00    +0.000 A 
ATOM      6  C   UNL     1      44.840   3.697  10.502  0.00  0.00    +0.000 A 
ATOM      7  N   UNL     1      44.884   5.048  10.577  0.00  0.00    +0.000 NA
ATOM      8  C   UNL     1      45.248   5.564  11.779  0.00  0.00    +0.000 A 
ATOM      9 BR   UNL     1      45.355   7.465  11.884  0.00  0.00    +0.000 Br
BRANCH   6  10
ATOM     10  C   UNL     1      44.478   3.074   9.177  0.00  0.00    +0.000 C 
BRANCH  10  11
ATOM     11  N   UNL     1      44.591   1.613   9.181  0.00  0.00    +0.000 NA
ATOM     12  H   UNL     1      43.674   1.222   9.405  0.00  0.00    +0.000 HD
ATOM     13  H   UNL     1      45.200   1.336   9.949  0.00  0.00    +0.000 HD
ENDBRANCH  10  11
ENDBRANCH   6  10
ENDBRANCH   1   3
BRANCH   1  14
ATOM     14  C   UNL     1      47.449   5.181  14.475  0.00  0.00    +0.000 C 
BRANCH  14  15
ATOM     15  C   UNL     1      47.515   4.773  15.989  0.00  0.00    +0.000 C 
ATOM     16  C   UNL     1      48.644   5.538  16.723  0.00  0.00    +0.000 C 
ATOM     17  C   UNL     1      48.855   5.081  18.165  0.00  0.00    +0.000 C 
ATOM     18  C   UNL     1      49.053   3.574  18.250  0.00  0.00    +0.000 C 
ATOM     19  C   UNL     1      47.858   2.849  17.653  0.00  0.00    +0.000 C 
ATOM     20  C   UNL     1      47.643   3.245  16.195  0.00  0.00    +0.000 C 
ENDBRANCH  14  15
BRANCH  14  21
ATOM     21  C   UNL     1      48.234   6.496  14.205  0.00  0.00    +0.000 C 
BRANCH  21  23
ATOM     22  C   UNL     1      49.318   7.753  12.534  0.00  0.00    +0.000 C 
ATOM     23  O   UNL     1      48.912   6.449  12.947  0.00  0.00    +0.000 OA
ENDBRANCH  21  23
ENDBRANCH  14  21
ENDBRANCH   1  14
TORSDOF 7
ENDMDL
MODEL 7
REMARK VINA RESULT:    -5.306      3.901      6.427
REMARK INTER + INTRA:          -8.085
REMARK INTER:                  -7.513
REMARK INTRA:                  -0.572
REMARK UNBOUND:                -0.762
REMARK  Name = 
REMARK  8 active torsions:
REMARK  status: ('A' for Active; 'I' for Inactive)
REMARK    1  A    between atoms: C_1  and  O_2
REMARK    2  A    between atoms: O_2  and  C_3
REMARK    3  A    between atoms: C_3  and  C_4
REMARK    4  A    between atoms: C_4  and  N_5
REMARK    5  A    between atoms: C_4  and  C_15
REMARK    6  A    between atoms: N_5  and  C_6
REMARK    7  A    between atoms: C_9  and  C_10
REMARK    8  A    between atoms: C_10  and  N_11
REMARK                            x       y       z     vdW  Elec       q    Type
REMARK                         _______ _______ _______ _____ _____    ______ ____
ROOT
ATOM      1  N   UNL     1      46.654   5.495  12.980  0.00  0.00    +0.000 N 
ATOM      2  H   UNL     1      46.947   4.791  12.309  0.00  0.00    +0.000 HD
ENDROOT
BRANCH   1   3
ATOM      3  C   UNL     1      47.206   5.169  14.227  0.00  0.00    +0.000 A 
ATOM      4  N   UNL     1      46.674   4.161  14.950  0.00  0.00    +0.000 NA
ATOM      5  C   UNL     1      47.196   3.946  16.182  0.00  0.00    +0.000 A 
ATOM      6  C   UNL     1      48.232   4.707  16.710  0.00  0.00    +0.000 A 
ATOM      7  N   UNL     1      48.804   5.702  15.991  0.00  0.00    +0.000 NA
ATOM      8  C   UNL     1      48.285   5.915  14.755  0.00  0.00    +0.000 A 
ATOM      9 BR   UNL     1      49.055   7.341  13.750  0.00  0.00    +0.000 Br
BRANCH   6  10
ATOM     10  C   UNL     1      48.748   4.457  18.105  0.00  0.00    +0.000 C 
BRANCH  10  11
ATOM     11  N   UNL     1      48.097   3.319  18.761  0.00  0.00    +0.000 NA
ATOM     12  H   UNL     1      48.689   3.015  19.535  0.00  0.00    +0.000 HD
ATOM     13  H   UNL     1      48.078   2.536  18.109  0.00  0.00    +0.000 HD
ENDBRANCH  10  11
ENDBRANCH   6  10
ENDBRANCH   1   3
BRANCH   1  14
ATOM     14  C   UNL     1      45.225   5.850  12.899  0.00  0.00    +0.000 C 
BRANCH  14  15
ATOM     15  C   UNL     1      44.568   5.061  11.712  0.00  0.00    +0.000 C 
ATOM     16  C   UNL     1      44.301   3.587  12.102  0.00  0.00    +0.000 C 
ATOM     17  C   UNL     1      43.796   2.729  10.943  0.00  0.00    +0.000 C 
ATOM     18  C   UNL     1      44.712   2.831   9.732  0.00  0.00    +0.000 C 
ATOM     19  C   UNL     1      44.838   4.277   9.283  0.00  0.00    +0.000 C 
ATOM     20  C   UNL     1      45.385   5.158  10.401  0.00  0.00    +0.000 C 
ENDBRANCH  14  15
BRANCH  14  21
ATOM     21  C   UNL     1      45.074   7.386  12.714  0.00  0.00    +0.000 C 
BRANCH  21  23
ATOM     22  C   UNL     1      46.191   9.368  12.104  0.00  0.00    +0.000 C 
ATOM     23  O   UNL     1      46.204   7.943  12.038  0.00  0.00    +0.000 OA
ENDBRANCH  21  23
ENDBRANCH  14  21
ENDBRANCH   1  14
TORSDOF 7
ENDMDL
MODEL 8
REMARK VINA RESULT:    -5.295      4.587      6.686
REMARK INTER + INTRA:          -8.070
REMARK INTER:                  -7.098
REMARK INTRA:                  -0.972
REMARK UNBOUND:                -0.762
REMARK  Name = 
REMARK  8 active torsions:
REMARK  status: ('A' for Active; 'I' for Inactive)
REMARK    1  A    between atoms: C_1  and  O_2
REMARK    2  A    between atoms: O_2  and  C_3
REMARK    3  A    between atoms: C_3  and  C_4
REMARK    4  A    between atoms: C_4  and  N_5
REMARK    5  A    between atoms: C_4  and  C_15
REMARK    6  A    between atoms: N_5  and  C_6
REMARK    7  A    between atoms: C_9  and  C_10
REMARK    8  A    between atoms: C_10  and  N_11
REMARK                            x       y       z     vdW  Elec       q    Type
REMARK                         _______ _______ _______ _____ _____    ______ ____
ROOT
ATOM      1  N   UNL     1      46.583   5.450  14.421  0.00  0.00    +0.000 N 
ATOM      2  H   UNL     1      46.531   6.427  14.692  0.00  0.00    +0.000 HD
ENDROOT
BRANCH   1   3
ATOM      3  C   UNL     1      47.481   4.802  15.281  0.00  0.00    +0.000 A 
ATOM      4  N   UNL     1      47.384   3.469  15.469  0.00  0.00    +0.000 NA
ATOM      5  C   UNL     1      48.226   2.912  16.372  0.00  0.00    +0.000 A 
ATOM      6  C   UNL     1      49.161   3.648  17.091  0.00  0.00    +0.000 A 
ATOM      7  N   UNL     1      49.301   4.981  16.896  0.00  0.00    +0.000 NA
ATOM      8  C   UNL     1      48.461   5.538  15.987  0.00  0.00    +0.000 A 
ATOM      9 BR   UNL     1      48.620   7.422  15.735  0.00  0.00    +0.000 Br
BRANCH   6  10
ATOM     10  C   UNL     1      50.045   2.987  18.120  0.00  0.00    +0.000 C 
BRANCH  10  11
ATOM     11  N   UNL     1      50.701   1.776  17.618  0.00  0.00    +0.000 NA
ATOM     12  H   UNL     1      50.685   1.803  16.598  0.00  0.00    +0.000 HD
ATOM     13  H   UNL     1      50.137   0.969  17.879  0.00  0.00    +0.000 HD
ENDBRANCH  10  11
ENDBRANCH   6  10
ENDBRANCH   1   3
BRANCH   1  14
ATOM     14  C   UNL     1      46.699   5.231  12.967  0.00  0.00    +0.000 C 
BRANCH  14  15
ATOM     15  C   UNL     1      46.802   6.622  12.248  0.00  0.00    +0.000 C 
ATOM     16  C   UNL     1      48.270   7.109  12.184  0.00  0.00    +0.000 C 
ATOM     17  C   UNL     1      48.423   8.523  11.624  0.00  0.00    +0.000 C 
ATOM     18  C   UNL     1      47.535   9.514  12.363  0.00  0.00    +0.000 C 
ATOM     19  C   UNL     1      46.080   9.085  12.282  0.00  0.00    +0.000 C 
ATOM     20  C   UNL     1      45.879   7.694  12.875  0.00  0.00    +0.000 C 
ENDBRANCH  14  15
BRANCH  14  21
ATOM     21  C   UNL     1      45.475   4.417  12.459  0.00  0.00    +0.000 C 
BRANCH  21  23
ATOM     22  C   UNL     1      43.231   4.864  13.014  0.00  0.00    +0.000 C 
ATOM     23  O   UNL     1      44.465   4.310  13.466  0.00  0.00    +0.000 OA
ENDBRANCH  21  23
ENDBRANCH  14  21
ENDBRANCH   1  14
TORSDOF 7
ENDMDL
MODEL 9
REMARK VINA RESULT:    -5.007      2.957      4.207
REMARK INTER + INTRA:          -7.672
REMARK INTER:                  -7.052
REMARK INTRA:                  -0.620
REMARK UNBOUND:                -0.762
REMARK  Name = 
REMARK  8 active torsions:
REMARK  status: ('A' for Active; 'I' for Inactive)
REMARK    1  A    between atoms: C_1  and  O_2
REMARK    2  A    between atoms: O_2  and  C_3
REMARK    3  A    between atoms: C_3  and  C_4
REMARK    4  A    between atoms: C_4  and  N_5
REMARK    5  A    between atoms: C_4  and  C_15
REMARK    6  A    between atoms: N_5  and  C_6
REMARK    7  A    between atoms: C_9  and  C_10
REMARK    8  A    between atoms: C_10  and  N_11
REMARK                            x       y       z     vdW  Elec       q    Type
REMARK                         _______ _______ _______ _____ _____    ______ ____
ROOT
ATOM      1  N   UNL     1      46.969   6.892  12.967  0.00  0.00    +0.000 N 
ATOM      2  H   UNL     1      47.859   6.531  13.297  0.00  0.00    +0.000 HD
ENDROOT
BRANCH   1   3
ATOM      3  C   UNL     1      46.260   5.838  12.373  0.00  0.00    +0.000 A 
ATOM      4  N   UNL     1      45.712   6.007  11.151  0.00  0.00    +0.000 NA
ATOM      5  C   UNL     1      44.971   4.983  10.663  0.00  0.00    +0.000 A 
ATOM      6  C   UNL     1      44.762   3.798  11.360  0.00  0.00    +0.000 A 
ATOM      7  N   UNL     1      45.329   3.592  12.572  0.00  0.00    +0.000 NA
ATOM      8  C   UNL     1      46.077   4.616  13.060  0.00  0.00    +0.000 A 
ATOM      9 BR   UNL     1      46.845   4.353  14.785  0.00  0.00    +0.000 Br
BRANCH   6  10
ATOM     10  C   UNL     1      43.890   2.706  10.792  0.00  0.00    +0.000 C 
BRANCH  10  11
ATOM     11  N   UNL     1      43.019   2.089  11.797  0.00  0.00    +0.000 NA
ATOM     12  H   UNL     1      43.447   2.219  12.715  0.00  0.00    +0.000 HD
ATOM     13  H   UNL     1      43.007   1.082  11.642  0.00  0.00    +0.000 HD
ENDBRANCH  10  11
ENDBRANCH   6  10
ENDBRANCH   1   3
BRANCH   1  14
ATOM     14  C   UNL     1      47.066   8.181  12.257  0.00  0.00    +0.000 C 
BRANCH  14  15
ATOM     15  C   UNL     1      48.550   8.688  12.316  0.00  0.00    +0.000 C 
ATOM     16  C   UNL     1      48.661  10.146  11.807  0.00  0.00    +0.000 C 
ATOM     17  C   UNL     1      50.100  10.649  11.703  0.00  0.00    +0.000 C 
ATOM     18  C   UNL     1      50.966   9.702  10.884  0.00  0.00    +0.000 C 
ATOM     19  C   UNL     1      50.952   8.311  11.495  0.00  0.00    +0.000 C 
ATOM     20  C   UNL     1      49.534   7.754  11.572  0.00  0.00    +0.000 C 
ENDBRANCH  14  15
BRANCH  14  21
ATOM     21  C   UNL     1      46.088   9.208  12.896  0.00  0.00    +0.000 C 
BRANCH  21  23
ATOM     22  C   UNL     1      44.782  10.629  11.548  0.00  0.00    +0.000 C 
ATOM     23  O   UNL     1      44.887   9.332  12.130  0.00  0.00    +0.000 OA
ENDBRANCH  21  23
ENDBRANCH  14  21
ENDBRANCH   1  14
TORSDOF 7
ENDMDL
