MODEL 1
REMARK VINA RESULT:    -7.732      0.000      0.000
REMARK INTER + INTRA:          -9.976
REMARK INTER:                  -9.540
REMARK INTRA:                  -0.436
REMARK UNBOUND:                -0.436
REMARK  Name = 
REMARK  4 active torsions:
REMARK  status: ('A' for Active; 'I' for Inactive)
REMARK    1  A    between atoms: C_2  and  C_3
REMARK    2  A    between atoms: N_7  and  C_8
REMARK    3  A    between atoms: C_8  and  C_9
REMARK    4  A    between atoms: C_11  and  C_12
REMARK                            x       y       z     vdW  Elec       q    Type
REMARK                         _______ _______ _______ _____ _____    ______ ____
ROOT
ATOM      1  C   UNL     1      44.655   5.853  11.418  0.00  0.00    +0.000 A 
ATOM      2  C   UNL     1      45.315   5.109  12.400  0.00  0.00    +0.000 A 
ATOM      3  C   UNL     1      46.271   5.712  13.234  0.00  0.00    +0.000 A 
ATOM      4  C   UNL     1      46.530   7.069  13.011  0.00  0.00    +0.000 A 
ATOM      5  C   UNL     1      45.847   7.739  12.008  0.00  0.00    +0.000 A 
ATOM      6  N   UNL     1      44.915   7.168  11.216  0.00  0.00    +0.000 NA
ENDROOT
BRANCH   3   7
ATOM      7  C   UNL     1      46.959   4.950  14.300  0.00  0.00    +0.000 A 
ATOM      8  C   UNL     1      47.502   5.565  15.438  0.00  0.00    +0.000 A 
ATOM      9  C   UNL     1      48.124   4.810  16.434  0.00  0.00    +0.000 A 
ATOM     10  C   UNL     1      48.204   3.441  16.266  0.00  0.00    +0.000 A 
ATOM     11  N   UNL     1      47.713   2.795  15.191  0.00  0.00    +0.000 NA
ATOM     12  C   UNL     1      47.105   3.559  14.249  0.00  0.00    +0.000 A 
ENDBRANCH   3   7
BRANCH   1  13
ATOM     13  C   UNL     1      43.636   5.185  10.514  0.00  0.00    +0.000 C 
BRANCH  13  18
ATOM     14  C   UNL     1      46.636   2.551   7.463  0.00  0.00    +0.000 A 
ATOM     15  C   UNL     1      46.308   3.871   7.618  0.00  0.00    +0.000 A 
ATOM     16  N   UNL     1      45.424   4.316   8.538  0.00  0.00    +0.000 NA
ATOM     17  C   UNL     1      44.859   3.407   9.345  0.00  0.00    +0.000 A 
ATOM     18  N   UNL     1      43.909   3.786  10.252  0.00  0.00    +0.000 N 
ATOM     19  N   UNL     1      45.142   2.095   9.284  0.00  0.00    +0.000 NA
ATOM     20  C   UNL     1      46.013   1.693   8.336  0.00  0.00    +0.000 A 
ATOM     21  H   UNL     1      43.763   3.119  10.997  0.00  0.00    +0.000 HD
BRANCH  14  23
ATOM     22  N   UNL     1      48.290   1.740   5.653  0.00  0.00    +0.000 NA
ATOM     23  C   UNL     1      47.547   2.105   6.467  0.00  0.00    +0.000 C 
ENDBRANCH  14  23
ENDBRANCH  13  18
ENDBRANCH   1  13
TORSDOF 4
ENDMDL
MODEL 2
REMARK VINA RESULT:    -7.683      1.711      3.547
REMARK INTER + INTRA:          -9.916
REMARK INTER:                  -9.464
REMARK INTRA:                  -0.452
REMARK UNBOUND:                -0.436
REMARK  Name = 
REMARK  4 active torsions:
REMARK  status: ('A' for Active; 'I' for Inactive)
REMARK    1  A    between atoms: C_2  and  C_3
REMARK    2  A    between atoms: N_7  and  C_8
REMARK    3  A    between atoms: C_8  and  C_9
REMARK    4  A    between atoms: C_11  and  C_12
REMARK                            x       y       z     vdW  Elec       q    Type
REMARK                         _______ _______ _______ _____ _____    ______ ____
ROOT
ATOM      1  C   UNL     1      45.003   4.278  11.761  0.00  0.00    +0.000 A 
ATOM      2  C   UNL     1      45.448   5.590  11.576  0.00  0.00    +0.000 A 
ATOM      3  C   UNL     1      46.401   6.152  12.442  0.00  0.00    +0.000 A 
ATOM      4  C   UNL     1      46.850   5.340  13.490  0.00  0.00    +0.000 A 
ATOM      5  C   UNL     1      46.353   4.053  13.619  0.00  0.00    +0.000 A 
ATOM      6  N   UNL     1      45.452   3.503  12.779  0.00  0.00    +0.000 NA
ENDROOT
BRANCH   3   7
ATOM      7  C   UNL     1      46.908   7.529  12.247  0.00  0.00    +0.000 A 
ATOM      8  C   UNL     1      48.251   7.804  11.950  0.00  0.00    +0.000 A 
ATOM      9  C   UNL     1      48.687   9.115  11.750  0.00  0.00    +0.000 A 
ATOM     10  C   UNL     1      47.766  10.138  11.864  0.00  0.00    +0.000 A 
ATOM     11  N   UNL     1      46.467   9.937  12.158  0.00  0.00    +0.000 NA
ATOM     12  C   UNL     1      46.075   8.650  12.334  0.00  0.00    +0.000 A 
ENDBRANCH   3   7
BRANCH   1  13
ATOM     13  C   UNL     1      43.961   3.689  10.828  0.00  0.00    +0.000 C 
BRANCH  13  18
ATOM     14  C   UNL     1      46.888   2.255   7.004  0.00  0.00    +0.000 A 
ATOM     15  C   UNL     1      46.432   3.448   7.499  0.00  0.00    +0.000 A 
ATOM     16  N   UNL     1      45.610   3.547   8.565  0.00  0.00    +0.000 NA
ATOM     17  C   UNL     1      45.242   2.408   9.172  0.00  0.00    +0.000 A 
ATOM     18  N   UNL     1      44.360   2.438  10.216  0.00  0.00    +0.000 N 
ATOM     19  N   UNL     1      45.662   1.196   8.774  0.00  0.00    +0.000 NA
ATOM     20  C   UNL     1      46.465   1.144   7.691  0.00  0.00    +0.000 A 
ATOM     21  H   UNL     1      44.372   1.604  10.787  0.00  0.00    +0.000 HD
BRANCH  14  23
ATOM     22  N   UNL     1      48.419   2.112   4.929  0.00  0.00    +0.000 NA
ATOM     23  C   UNL     1      47.730   2.177   5.861  0.00  0.00    +0.000 C 
ENDBRANCH  14  23
ENDBRANCH  13  18
ENDBRANCH   1  13
TORSDOF 4
ENDMDL
MODEL 3
REMARK VINA RESULT:    -7.304      2.005      6.860
REMARK INTER + INTRA:          -9.449
REMARK INTER:                  -9.075
REMARK INTRA:                  -0.373
REMARK UNBOUND:                -0.436
REMARK  Name = 
REMARK  4 active torsions:
REMARK  status: ('A' for Active; 'I' for Inactive)
REMARK    1  A    between atoms: C_2  and  C_3
REMARK    2  A    between atoms: N_7  and  C_8
REMARK    3  A    between atoms: C_8  and  C_9
REMARK    4  A    between atoms: C_11  and  C_12
REMARK                            x       y       z     vdW  Elec       q    Type
REMARK                         _______ _______ _______ _____ _____    ______ ____
ROOT
ATOM      1  C   UNL     1      43.835   4.725  10.691  0.00  0.00    +0.000 A 
ATOM      2  C   UNL     1      44.697   4.400   9.640  0.00  0.00    +0.000 A 
ATOM      3  C   UNL     1      44.923   3.059   9.287  0.00  0.00    +0.000 A 
ATOM      4  C   UNL     1      44.261   2.091  10.051  0.00  0.00    +0.000 A 
ATOM      5  C   UNL     1      43.432   2.488  11.089  0.00  0.00    +0.000 A 
ATOM      6  N   UNL     1      43.198   3.775  11.419  0.00  0.00    +0.000 NA
ENDROOT
BRANCH   3   7
ATOM      7  C   UNL     1      45.808   2.694   8.159  0.00  0.00    +0.000 A 
ATOM      8  C   UNL     1      46.128   3.591   7.128  0.00  0.00    +0.000 A 
ATOM      9  C   UNL     1      46.986   3.217   6.093  0.00  0.00    +0.000 A 
ATOM     10  C   UNL     1      47.502   1.935   6.098  0.00  0.00    +0.000 A 
ATOM     11  N   UNL     1      47.223   1.027   7.053  0.00  0.00    +0.000 NA
ATOM     12  C   UNL     1      46.396   1.428   8.050  0.00  0.00    +0.000 A 
ENDBRANCH   3   7
BRANCH   1  13
ATOM     13  C   UNL     1      43.613   6.177  11.072  0.00  0.00    +0.000 C 
BRANCH  13  18
ATOM     14  C   UNL     1      47.829   6.673  13.760  0.00  0.00    +0.000 A 
ATOM     15  C   UNL     1      46.655   5.979  13.892  0.00  0.00    +0.000 A 
ATOM     16  N   UNL     1      45.644   6.048  12.998  0.00  0.00    +0.000 NA
ATOM     17  C   UNL     1      45.821   6.828  11.922  0.00  0.00    +0.000 A 
ATOM     18  N   UNL     1      44.811   6.990  11.015  0.00  0.00    +0.000 N 
ATOM     19  N   UNL     1      46.949   7.522  11.696  0.00  0.00    +0.000 NA
ATOM     20  C   UNL     1      47.923   7.441  12.626  0.00  0.00    +0.000 A 
ATOM     21  H   UNL     1      45.118   7.334  10.116  0.00  0.00    +0.000 HD
BRANCH  14  23
ATOM     22  N   UNL     1      49.711   6.549  15.524  0.00  0.00    +0.000 NA
ATOM     23  C   UNL     1      48.865   6.606  14.730  0.00  0.00    +0.000 C 
ENDBRANCH  14  23
ENDBRANCH  13  18
ENDBRANCH   1  13
TORSDOF 4
ENDMDL
MODEL 4
REMARK VINA RESULT:    -7.133      2.630      6.729
REMARK INTER + INTRA:          -9.238
REMARK INTER:                  -8.670
REMARK INTRA:                  -0.567
REMARK UNBOUND:                -0.436
REMARK  Name = 
REMARK  4 active torsions:
REMARK  status: ('A' for Active; 'I' for Inactive)
REMARK    1  A    between atoms: C_2  and  C_3
REMARK    2  A    between atoms: N_7  and  C_8
REMARK    3  A    between atoms: C_8  and  C_9
REMARK    4  A    between atoms: C_11  and  C_12
REMARK                            x       y       z     vdW  Elec       q    Type
REMARK                         _______ _______ _______ _____ _____    ______ ____
ROOT
ATOM      1  C   UNL     1      44.448   4.802  11.980  0.00  0.00    +0.000 A 
ATOM      2  C   UNL     1      45.141   4.530  10.797  0.00  0.00    +0.000 A 
ATOM      3  C   UNL     1      44.890   3.352  10.075  0.00  0.00    +0.000 A 
ATOM      4  C   UNL     1      43.940   2.477  10.614  0.00  0.00    +0.000 A 
ATOM      5  C   UNL     1      43.302   2.808  11.800  0.00  0.00    +0.000 A 
ATOM      6  N   UNL     1      43.527   3.947  12.487  0.00  0.00    +0.000 NA
ENDROOT
BRANCH   3   7
ATOM      7  C   UNL     1      45.591   3.058   8.805  0.00  0.00    +0.000 A 
ATOM      8  C   UNL     1      46.024   1.768   8.462  0.00  0.00    +0.000 A 
ATOM      9  C   UNL     1      46.661   1.526   7.243  0.00  0.00    +0.000 A 
ATOM     10  C   UNL     1      46.867   2.591   6.387  0.00  0.00    +0.000 A 
ATOM     11  N   UNL     1      46.485   3.852   6.666  0.00  0.00    +0.000 NA
ATOM     12  C   UNL     1      45.858   4.049   7.853  0.00  0.00    +0.000 A 
ENDBRANCH   3   7
BRANCH   1  13
ATOM     13  C   UNL     1      44.741   6.072  12.758  0.00  0.00    +0.000 C 
BRANCH  13  18
ATOM     14  C   UNL     1      49.487   7.707  12.546  0.00  0.00    +0.000 A 
ATOM     15  C   UNL     1      48.412   7.695  11.696  0.00  0.00    +0.000 A 
ATOM     16  N   UNL     1      47.217   7.152  12.013  0.00  0.00    +0.000 NA
ATOM     17  C   UNL     1      47.086   6.615  13.235  0.00  0.00    +0.000 A 
ATOM     18  N   UNL     1      45.922   5.992  13.592  0.00  0.00    +0.000 N 
ATOM     19  N   UNL     1      48.075   6.607  14.144  0.00  0.00    +0.000 NA
ATOM     20  C   UNL     1      49.258   7.140  13.775  0.00  0.00    +0.000 A 
ATOM     21  H   UNL     1      45.802   5.888  14.591  0.00  0.00    +0.000 HD
BRANCH  14  23
ATOM     22  N   UNL     1      51.768   8.712  11.873  0.00  0.00    +0.000 NA
ATOM     23  C   UNL     1      50.743   8.259  12.176  0.00  0.00    +0.000 C 
ENDBRANCH  14  23
ENDBRANCH  13  18
ENDBRANCH   1  13
TORSDOF 4
ENDMDL
MODEL 5
REMARK VINA RESULT:    -6.987      1.810      7.526
REMARK INTER + INTRA:          -9.058
REMARK INTER:                  -8.680
REMARK INTRA:                  -0.377
REMARK UNBOUND:                -0.436
REMARK  Name = 
REMARK  4 active torsions:
REMARK  status: ('A' for Active; 'I' for Inactive)
REMARK    1  A    between atoms: C_2  and  C_3
REMARK    2  A    between atoms: N_7  and  C_8
REMARK    3  A    between atoms: C_8  and  C_9
REMARK    4  A    between atoms: C_11  and  C_12
REMARK                            x       y       z     vdW  Elec       q    Type
REMARK                         _______ _______ _______ _____ _____    ______ ____
ROOT
ATOM      1  C   UNL     1      45.073   5.186  12.459  0.00  0.00    +0.000 A 
ATOM      2  C   UNL     1      45.638   4.504  11.378  0.00  0.00    +0.000 A 
ATOM      3  C   UNL     1      44.875   4.216  10.234  0.00  0.00    +0.000 A 
ATOM      4  C   UNL     1      43.538   4.626  10.255  0.00  0.00    +0.000 A 
ATOM      5  C   UNL     1      43.042   5.286  11.369  0.00  0.00    +0.000 A 
ATOM      6  N   UNL     1      43.776   5.581  12.462  0.00  0.00    +0.000 NA
ENDROOT
BRANCH   3   7
ATOM      7  C   UNL     1      45.462   3.522   9.066  0.00  0.00    +0.000 A 
ATOM      8  C   UNL     1      45.937   4.210   7.939  0.00  0.00    +0.000 A 
ATOM      9  C   UNL     1      46.506   3.521   6.866  0.00  0.00    +0.000 A 
ATOM     10  C   UNL     1      46.578   2.143   6.934  0.00  0.00    +0.000 A 
ATOM     11  N   UNL     1      46.129   1.427   7.983  0.00  0.00    +0.000 NA
ATOM     12  C   UNL     1      45.593   2.129   9.013  0.00  0.00    +0.000 A 
ENDBRANCH   3   7
BRANCH   1  13
ATOM     13  C   UNL     1      45.905   5.476  13.695  0.00  0.00    +0.000 C 
BRANCH  13  18
ATOM     14  C   UNL     1      49.208   4.348  17.308  0.00  0.00    +0.000 A 
ATOM     15  C   UNL     1      48.923   5.450  16.546  0.00  0.00    +0.000 A 
ATOM     16  N   UNL     1      47.962   5.472  15.598  0.00  0.00    +0.000 NA
ATOM     17  C   UNL     1      47.245   4.353  15.416  0.00  0.00    +0.000 A 
ATOM     18  N   UNL     1      46.302   4.292  14.428  0.00  0.00    +0.000 N 
ATOM     19  N   UNL     1      47.435   3.235  16.136  0.00  0.00    +0.000 NA
ATOM     20  C   UNL     1      48.421   3.251  17.057  0.00  0.00    +0.000 A 
ATOM     21  H   UNL     1      45.625   3.552  14.552  0.00  0.00    +0.000 HD
BRANCH  14  23
ATOM     22  N   UNL     1      51.092   4.337  19.075  0.00  0.00    +0.000 NA
ATOM     23  C   UNL     1      50.246   4.342  18.280  0.00  0.00    +0.000 C 
ENDBRANCH  14  23
ENDBRANCH  13  18
ENDBRANCH   1  13
TORSDOF 4
ENDMDL
MODEL 6
REMARK VINA RESULT:    -6.591      2.358      3.570
REMARK INTER + INTRA:          -8.569
REMARK INTER:                  -8.247
REMARK INTRA:                  -0.322
REMARK UNBOUND:                -0.436
REMARK  Name = 
REMARK  4 active torsions:
REMARK  status: ('A' for Active; 'I' for Inactive)
REMARK    1  A    between atoms: C_2  and  C_3
REMARK    2  A    between atoms: N_7  and  C_8
REMARK    3  A    between atoms: C_8  and  C_9
REMARK    4  A    between atoms: C_11  and  C_12
REMARK                            x       y       z     vdW  Elec       q    Type
REMARK                         _______ _______ _______ _____ _____    ______ ____
ROOT
ATOM      1  C   UNL     1      45.278   5.406  13.074  0.00  0.00    +0.000 A 
ATOM      2  C   UNL     1      46.140   6.445  12.713  0.00  0.00    +0.000 A 
ATOM      3  C   UNL     1      47.409   6.561  13.304  0.00  0.00    +0.000 A 
ATOM      4  C   UNL     1      47.740   5.604  14.270  0.00  0.00    +0.000 A 
ATOM      5  C   UNL     1      46.827   4.609  14.587  0.00  0.00    +0.000 A 
ATOM      6  N   UNL     1      45.615   4.484  14.009  0.00  0.00    +0.000 NA
ENDROOT
BRANCH   3   7
ATOM      7  C   UNL     1      48.350   7.636  12.915  0.00  0.00    +0.000 A 
ATOM      8  C   UNL     1      47.999   8.659  12.021  0.00  0.00    +0.000 A 
ATOM      9  C   UNL     1      48.906   9.669  11.696  0.00  0.00    +0.000 A 
ATOM     10  C   UNL     1      50.165   9.629  12.266  0.00  0.00    +0.000 A 
ATOM     11  N   UNL     1      50.562   8.668  13.121  0.00  0.00    +0.000 NA
ATOM     12  C   UNL     1      49.652   7.709  13.423  0.00  0.00    +0.000 A 
ENDBRANCH   3   7
BRANCH   1  13
ATOM     13  C   UNL     1      43.903   5.302  12.439  0.00  0.00    +0.000 C 
BRANCH  13  18
ATOM     14  C   UNL     1      45.546   3.383   8.096  0.00  0.00    +0.000 A 
ATOM     15  C   UNL     1      45.664   4.582   8.748  0.00  0.00    +0.000 A 
ATOM     16  N   UNL     1      45.080   4.844   9.937  0.00  0.00    +0.000 NA
ATOM     17  C   UNL     1      44.365   3.863  10.506  0.00  0.00    +0.000 A 
ATOM     18  N   UNL     1      43.697   4.087  11.678  0.00  0.00    +0.000 N 
ATOM     19  N   UNL     1      44.219   2.647   9.955  0.00  0.00    +0.000 NA
ATOM     20  C   UNL     1      44.801   2.437   8.756  0.00  0.00    +0.000 A 
ATOM     21  H   UNL     1      43.445   3.244  12.175  0.00  0.00    +0.000 HD
BRANCH  14  23
ATOM     22  N   UNL     1      46.638   2.948   5.797  0.00  0.00    +0.000 NA
ATOM     23  C   UNL     1      46.146   3.143   6.831  0.00  0.00    +0.000 C 
ENDBRANCH  14  23
ENDBRANCH  13  18
ENDBRANCH   1  13
TORSDOF 4
ENDMDL
MODEL 7
REMARK VINA RESULT:    -6.452      3.028      8.013
REMARK INTER + INTRA:          -8.397
REMARK INTER:                  -7.905
REMARK INTRA:                  -0.492
REMARK UNBOUND:                -0.436
REMARK  Name = 
REMARK  4 active torsions:
REMARK  status: ('A' for Active; 'I' for Inactive)
REMARK    1  A    between atoms: C_2  and  C_3
REMARK    2  A    between atoms: N_7  and  C_8
REMARK    3  A    between atoms: C_8  and  C_9
REMARK    4  A    between atoms: C_11  and  C_12
REMARK                            x       y       z     vdW  Elec       q    Type
REMARK                         _______ _______ _______ _____ _____    ______ ____
ROOT
ATOM      1  C   UNL     1      47.518   4.725  15.400  0.00  0.00    +0.000 A 
ATOM      2  C   UNL     1      46.654   4.327  14.377  0.00  0.00    +0.000 A 
ATOM      3  C   UNL     1      46.565   5.067  13.186  0.00  0.00    +0.000 A 
ATOM      4  C   UNL     1      47.362   6.214  13.100  0.00  0.00    +0.000 A 
ATOM      5  C   UNL     1      48.185   6.555  14.163  0.00  0.00    +0.000 A 
ATOM      6  N   UNL     1      48.287   5.837  15.301  0.00  0.00    +0.000 NA
ENDROOT
BRANCH   3   7
ATOM      7  C   UNL     1      45.679   4.647  12.077  0.00  0.00    +0.000 A 
ATOM      8  C   UNL     1      45.596   5.353  10.868  0.00  0.00    +0.000 A 
ATOM      9  C   UNL     1      44.766   4.912   9.835  0.00  0.00    +0.000 A 
ATOM     10  C   UNL     1      44.016   3.769  10.038  0.00  0.00    +0.000 A 
ATOM     11  N   UNL     1      44.045   3.056  11.180  0.00  0.00    +0.000 NA
ATOM     12  C   UNL     1      44.872   3.506  12.157  0.00  0.00    +0.000 A 
ENDBRANCH   3   7
BRANCH   1  13
ATOM     13  C   UNL     1      47.591   3.925  16.688  0.00  0.00    +0.000 C 
BRANCH  13  18
ATOM     14  C   UNL     1      52.281   2.517  17.816  0.00  0.00    +0.000 A 
ATOM     15  C   UNL     1      51.581   3.695  17.816  0.00  0.00    +0.000 A 
ATOM     16  N   UNL     1      50.291   3.795  17.430  0.00  0.00    +0.000 NA
ATOM     17  C   UNL     1      49.669   2.670  17.047  0.00  0.00    +0.000 A 
ATOM     18  N   UNL     1      48.384   2.716  16.585  0.00  0.00    +0.000 N 
ATOM     19  N   UNL     1      50.267   1.467  17.043  0.00  0.00    +0.000 NA
ATOM     20  C   UNL     1      51.563   1.418  17.414  0.00  0.00    +0.000 A 
ATOM     21  H   UNL     1      47.908   1.825  16.605  0.00  0.00    +0.000 HD
BRANCH  14  23
ATOM     22  N   UNL     1      54.764   2.382  18.511  0.00  0.00    +0.000 NA
ATOM     23  C   UNL     1      53.648   2.444  18.198  0.00  0.00    +0.000 C 
ENDBRANCH  14  23
ENDBRANCH  13  18
ENDBRANCH   1  13
TORSDOF 4
ENDMDL
MODEL 8
REMARK VINA RESULT:    -6.193      2.638      7.880
REMARK INTER + INTRA:          -8.077
REMARK INTER:                  -7.702
REMARK INTRA:                  -0.375
REMARK UNBOUND:                -0.436
REMARK  Name = 
REMARK  4 active torsions:
REMARK  status: ('A' for Active; 'I' for Inactive)
REMARK    1  A    between atoms: C_2  and  C_3
REMARK    2  A    between atoms: N_7  and  C_8
REMARK    3  A    between atoms: C_8  and  C_9
REMARK    4  A    between atoms: C_11  and  C_12
REMARK                            x       y       z     vdW  Elec       q    Type
REMARK                         _______ _______ _______ _____ _____    ______ ____
ROOT
ATOM      1  C   UNL     1      47.033   7.179  13.222  0.00  0.00    +0.000 A 
ATOM      2  C   UNL     1      46.688   6.103  12.399  0.00  0.00    +0.000 A 
ATOM      3  C   UNL     1      45.643   6.220  11.467  0.00  0.00    +0.000 A 
ATOM      4  C   UNL     1      44.971   7.447  11.431  0.00  0.00    +0.000 A 
ATOM      5  C   UNL     1      45.360   8.465  12.288  0.00  0.00    +0.000 A 
ATOM      6  N   UNL     1      46.375   8.363  13.171  0.00  0.00    +0.000 NA
ENDROOT
BRANCH   3   7
ATOM      7  C   UNL     1      45.281   5.103  10.566  0.00  0.00    +0.000 A 
ATOM      8  C   UNL     1      45.659   5.070   9.215  0.00  0.00    +0.000 A 
ATOM      9  C   UNL     1      45.318   3.988   8.401  0.00  0.00    +0.000 A 
ATOM     10  C   UNL     1      44.587   2.954   8.955  0.00  0.00    +0.000 A 
ATOM     11  N   UNL     1      44.187   2.935  10.241  0.00  0.00    +0.000 NA
ATOM     12  C   UNL     1      44.545   3.997  11.005  0.00  0.00    +0.000 A 
ENDBRANCH   3   7
BRANCH   1  13
ATOM     13  C   UNL     1      48.153   7.033  14.235  0.00  0.00    +0.000 C 
BRANCH  13  18
ATOM     14  C   UNL     1      50.679   4.965  18.054  0.00  0.00    +0.000 A 
ATOM     15  C   UNL     1      50.984   5.800  17.012  0.00  0.00    +0.000 A 
ATOM     16  N   UNL     1      50.084   6.194  16.085  0.00  0.00    +0.000 NA
ATOM     17  C   UNL     1      48.825   5.750  16.216  0.00  0.00    +0.000 A 
ATOM     18  N   UNL     1      47.884   6.061  15.274  0.00  0.00    +0.000 N 
ATOM     19  N   UNL     1      48.429   4.952  17.222  0.00  0.00    +0.000 NA
ATOM     20  C   UNL     1      49.367   4.566  18.111  0.00  0.00    +0.000 A 
ATOM     21  H   UNL     1      46.931   5.947  15.593  0.00  0.00    +0.000 HD
BRANCH  14  23
ATOM     22  N   UNL     1      52.447   4.194  19.771  0.00  0.00    +0.000 NA
ATOM     23  C   UNL     1      51.653   4.542  19.000  0.00  0.00    +0.000 C 
ENDBRANCH  14  23
ENDBRANCH  13  18
ENDBRANCH   1  13
TORSDOF 4
ENDMDL
MODEL 9
REMARK VINA RESULT:    -6.028      3.314      6.202
REMARK INTER + INTRA:          -7.874
REMARK INTER:                  -7.489
REMARK INTRA:                  -0.385
REMARK UNBOUND:                -0.436
REMARK  Name = 
REMARK  4 active torsions:
REMARK  status: ('A' for Active; 'I' for Inactive)
REMARK    1  A    between atoms: C_2  and  C_3
REMARK    2  A    between atoms: N_7  and  C_8
REMARK    3  A    between atoms: C_8  and  C_9
REMARK    4  A    between atoms: C_11  and  C_12
REMARK                            x       y       z     vdW  Elec       q    Type
REMARK                         _______ _______ _______ _____ _____    ______ ____
ROOT
ATOM      1  C   UNL     1      48.189   4.205  17.145  0.00  0.00    +0.000 A 
ATOM      2  C   UNL     1      49.361   3.457  17.005  0.00  0.00    +0.000 A 
ATOM      3  C   UNL     1      50.411   3.591  17.928  0.00  0.00    +0.000 A 
ATOM      4  C   UNL     1      50.222   4.515  18.961  0.00  0.00    +0.000 A 
ATOM      5  C   UNL     1      49.038   5.233  19.028  0.00  0.00    +0.000 A 
ATOM      6  N   UNL     1      48.020   5.094  18.154  0.00  0.00    +0.000 NA
ENDROOT
BRANCH   3   7
ATOM      7  C   UNL     1      51.649   2.786  17.816  0.00  0.00    +0.000 A 
ATOM      8  C   UNL     1      52.921   3.316  18.079  0.00  0.00    +0.000 A 
ATOM      9  C   UNL     1      54.063   2.520  17.985  0.00  0.00    +0.000 A 
ATOM     10  C   UNL     1      53.913   1.197  17.613  0.00  0.00    +0.000 A 
ATOM     11  N   UNL     1      52.721   0.635  17.336  0.00  0.00    +0.000 NA
ATOM     12  C   UNL     1      51.631   1.435  17.449  0.00  0.00    +0.000 A 
ENDBRANCH   3   7
BRANCH   1  13
ATOM     13  C   UNL     1      47.069   4.061  16.131  0.00  0.00    +0.000 C 
BRANCH  13  18
ATOM     14  C   UNL     1      45.291   4.563  11.458  0.00  0.00    +0.000 A 
ATOM     15  C   UNL     1      45.382   3.546  12.371  0.00  0.00    +0.000 A 
ATOM     16  N   UNL     1      45.948   3.686  13.590  0.00  0.00    +0.000 NA
ATOM     17  C   UNL     1      46.426   4.897  13.915  0.00  0.00    +0.000 A 
ATOM     18  N   UNL     1      47.068   5.086  15.107  0.00  0.00    +0.000 N 
ATOM     19  N   UNL     1      46.355   5.958  13.095  0.00  0.00    +0.000 NA
ATOM     20  C   UNL     1      45.802   5.766  11.879  0.00  0.00    +0.000 A 
ATOM     21  H   UNL     1      47.124   6.054  15.394  0.00  0.00    +0.000 HD
BRANCH  14  23
ATOM     22  N   UNL     1      44.247   4.230   9.120  0.00  0.00    +0.000 NA
ATOM     23  C   UNL     1      44.718   4.380  10.171  0.00  0.00    +0.000 C 
ENDBRANCH  14  23
ENDBRANCH  13  18
ENDBRANCH   1  13
TORSDOF 4
ENDMDL
