MODEL 1
REMARK VINA RESULT:    -7.687      0.000      0.000
REMARK INTER + INTRA:         -11.940
REMARK INTER:                 -11.058
REMARK INTRA:                  -0.882
REMARK UNBOUND:                -0.882
REMARK  Name = 
REMARK  9 active torsions:
REMARK  status: ('A' for Active; 'I' for Inactive)
REMARK    1  A    between atoms: C_1  and  C_2
REMARK    2  A    between atoms: C_2  and  N_3
REMARK    3  A    between atoms: C_2  and  C_19
REMARK    4  A    between atoms: N_3  and  C_4
REMARK    5  A    between atoms: C_7  and  C_8
REMARK    6  A    between atoms: C_8  and  C_9
REMARK    7  A    between atoms: C_9  and  C_10
REMARK    8  A    between atoms: C_10  and  N_11
REMARK    9  A    between atoms: C_10  and  C_12
REMARK                            x       y       z     vdW  Elec       q    Type
REMARK                         _______ _______ _______ _____ _____    ______ ____
ROOT
ATOM      1  C   UNL     1      46.145   6.302  12.992  0.00  0.00    +0.000 A 
ATOM      2  C   UNL     1      46.442   6.464  11.633  0.00  0.00    +0.000 A 
ATOM      3  C   UNL     1      45.654   5.879  10.642  0.00  0.00    +0.000 A 
ATOM      4  C   UNL     1      44.564   5.114  11.019  0.00  0.00    +0.000 A 
ATOM      5  N   UNL     1      44.234   4.932  12.321  0.00  0.00    +0.000 NA
ATOM      6  C   UNL     1      45.023   5.531  13.262  0.00  0.00    +0.000 A 
ENDROOT
BRANCH   1   7
ATOM      7  N   UNL     1      46.974   6.918  13.911  0.00  0.00    +0.000 N 
ATOM      8  H   UNL     1      46.919   7.941  13.833  0.00  0.00    +0.000 HD
BRANCH   7  10
ATOM      9  C   UNL     1      49.403   7.389  13.699  0.00  0.00    +0.000 C 
ATOM     10  C   UNL     1      48.316   6.516  14.341  0.00  0.00    +0.000 C 
BRANCH  10  11
ATOM     11  C   UNL     1      48.552   6.276  15.822  0.00  0.00    +0.000 A 
ATOM     12  C   UNL     1      49.169   7.162  16.690  0.00  0.00    +0.000 A 
ATOM     13  S   UNL     1      49.359   6.553  18.272  0.00  0.00    +0.000 S 
ATOM     14  C   UNL     1      48.613   5.083  17.850  0.00  0.00    +0.000 A 
ATOM     15  N   UNL     1      48.448   4.091  18.765  0.00  0.00    +0.000 NA
ATOM     16  C   UNL     1      47.877   3.035  18.303  0.00  0.00    +0.000 A 
ATOM     17  N   UNL     1      47.458   2.871  17.006  0.00  0.00    +0.000 N 
ATOM     18  C   UNL     1      47.593   3.848  16.040  0.00  0.00    +0.000 A 
ATOM     19  O   UNL     1      47.203   3.687  14.890  0.00  0.00    +0.000 OA
ATOM     20  C   UNL     1      48.231   5.056  16.525  0.00  0.00    +0.000 A 
ATOM     21  H   UNL     1      47.010   2.012  16.712  0.00  0.00    +0.000 HD
ENDBRANCH  10  11
ENDBRANCH   7  10
ENDBRANCH   1   7
BRANCH   4  22
ATOM     22  C   UNL     1      43.730   4.406   9.985  0.00  0.00    +0.000 C 
BRANCH  22  23
ATOM     23  C   UNL     1      44.518   4.037   8.723  0.00  0.00    +0.000 C 
BRANCH  23  24
ATOM     24  C   UNL     1      45.489   2.843   8.863  0.00  0.00    +0.000 C 
BRANCH  24  25
ATOM     25  C   UNL     1      46.294   2.711   7.579  0.00  0.00    +0.000 A 
ATOM     26  N   UNL     1      46.373   3.652   6.654  0.00  0.00    +0.000 NA
ATOM     27  C   UNL     1      47.168   3.217   5.615  0.00  0.00    +0.000 A 
ATOM     28  C   UNL     1      47.709   1.958   5.764  0.00  0.00    +0.000 A 
ATOM     29  S   UNL     1      47.198   1.282   7.253  0.00  0.00    +0.000 S 
ENDBRANCH  24  25
BRANCH  24  30
ATOM     30  N   UNL     1      44.776   1.583   9.123  0.00  0.00    +0.000 NA
ATOM     31  H   UNL     1      44.437   1.220   8.231  0.00  0.00    +0.000 HD
ATOM     32  H   UNL     1      43.967   1.769   9.710  0.00  0.00    +0.000 HD
ENDBRANCH  24  30
ENDBRANCH  23  24
ENDBRANCH  22  23
ENDBRANCH   4  22
TORSDOF 8
ENDMDL
MODEL 2
REMARK VINA RESULT:    -7.637      2.287      2.951
REMARK INTER + INTRA:         -11.869
REMARK INTER:                 -10.937
REMARK INTRA:                  -0.932
REMARK UNBOUND:                -0.882
REMARK  Name = 
REMARK  9 active torsions:
REMARK  status: ('A' for Active; 'I' for Inactive)
REMARK    1  A    between atoms: C_1  and  C_2
REMARK    2  A    between atoms: C_2  and  N_3
REMARK    3  A    between atoms: C_2  and  C_19
REMARK    4  A    between atoms: N_3  and  C_4
REMARK    5  A    between atoms: C_7  and  C_8
REMARK    6  A    between atoms: C_8  and  C_9
REMARK    7  A    between atoms: C_9  and  C_10
REMARK    8  A    between atoms: C_10  and  N_11
REMARK    9  A    between atoms: C_10  and  C_12
REMARK                            x       y       z     vdW  Elec       q    Type
REMARK                         _______ _______ _______ _____ _____    ______ ____
ROOT
ATOM      1  C   UNL     1      47.107   4.382  14.175  0.00  0.00    +0.000 A 
ATOM      2  C   UNL     1      46.567   3.274  13.513  0.00  0.00    +0.000 A 
ATOM      3  C   UNL     1      45.627   3.423  12.493  0.00  0.00    +0.000 A 
ATOM      4  C   UNL     1      45.217   4.697  12.142  0.00  0.00    +0.000 A 
ATOM      5  N   UNL     1      45.715   5.801  12.751  0.00  0.00    +0.000 NA
ATOM      6  C   UNL     1      46.643   5.615  13.737  0.00  0.00    +0.000 A 
ENDROOT
BRANCH   1   7
ATOM      7  N   UNL     1      48.037   4.149  15.171  0.00  0.00    +0.000 N 
ATOM      8  H   UNL     1      48.453   3.215  15.080  0.00  0.00    +0.000 HD
BRANCH   7  10
ATOM      9  C   UNL     1      46.816   3.848  17.312  0.00  0.00    +0.000 C 
ATOM     10  C   UNL     1      47.976   4.539  16.583  0.00  0.00    +0.000 C 
BRANCH  10  11
ATOM     11  C   UNL     1      49.265   4.530  17.385  0.00  0.00    +0.000 A 
ATOM     12  C   UNL     1      49.750   5.589  18.136  0.00  0.00    +0.000 A 
ATOM     13  S   UNL     1      51.270   5.286  18.847  0.00  0.00    +0.000 S 
ATOM     14  C   UNL     1      51.328   3.721  18.180  0.00  0.00    +0.000 A 
ATOM     15  N   UNL     1      52.389   2.901  18.405  0.00  0.00    +0.000 NA
ATOM     16  C   UNL     1      52.299   1.752  17.832  0.00  0.00    +0.000 A 
ATOM     17  N   UNL     1      51.251   1.346  17.045  0.00  0.00    +0.000 N 
ATOM     18  C   UNL     1      50.146   2.135  16.790  0.00  0.00    +0.000 A 
ATOM     19  O   UNL     1      49.215   1.751  16.094  0.00  0.00    +0.000 OA
ATOM     20  C   UNL     1      50.209   3.438  17.424  0.00  0.00    +0.000 A 
ATOM     21  H   UNL     1      51.244   0.424  16.627  0.00  0.00    +0.000 HD
ENDBRANCH  10  11
ENDBRANCH   7  10
ENDBRANCH   1   7
BRANCH   4  22
ATOM     22  C   UNL     1      44.153   4.900  11.098  0.00  0.00    +0.000 C 
BRANCH  22  23
ATOM     23  C   UNL     1      44.150   3.810  10.018  0.00  0.00    +0.000 C 
BRANCH  23  24
ATOM     24  C   UNL     1      44.798   4.201   8.671  0.00  0.00    +0.000 C 
BRANCH  24  25
ATOM     25  C   UNL     1      45.637   3.033   8.173  0.00  0.00    +0.000 A 
ATOM     26  N   UNL     1      45.530   1.797   8.628  0.00  0.00    +0.000 NA
ATOM     27  C   UNL     1      46.436   0.983   7.981  0.00  0.00    +0.000 A 
ATOM     28  C   UNL     1      47.212   1.597   7.022  0.00  0.00    +0.000 A 
ATOM     29  S   UNL     1      46.806   3.259   6.928  0.00  0.00    +0.000 S 
ENDBRANCH  24  25
BRANCH  24  30
ATOM     30  N   UNL     1      45.650   5.394   8.795  0.00  0.00    +0.000 NA
ATOM     31  H   UNL     1      45.145   6.187   8.401  0.00  0.00    +0.000 HD
ATOM     32  H   UNL     1      46.496   5.261   8.246  0.00  0.00    +0.000 HD
ENDBRANCH  24  30
ENDBRANCH  23  24
ENDBRANCH  22  23
ENDBRANCH   4  22
TORSDOF 8
ENDMDL
MODEL 3
REMARK VINA RESULT:    -7.414      1.265      1.648
REMARK INTER + INTRA:         -11.547
REMARK INTER:                 -10.742
REMARK INTRA:                  -0.805
REMARK UNBOUND:                -0.882
REMARK  Name = 
REMARK  9 active torsions:
REMARK  status: ('A' for Active; 'I' for Inactive)
REMARK    1  A    between atoms: C_1  and  C_2
REMARK    2  A    between atoms: C_2  and  N_3
REMARK    3  A    between atoms: C_2  and  C_19
REMARK    4  A    between atoms: N_3  and  C_4
REMARK    5  A    between atoms: C_7  and  C_8
REMARK    6  A    between atoms: C_8  and  C_9
REMARK    7  A    between atoms: C_9  and  C_10
REMARK    8  A    between atoms: C_10  and  N_11
REMARK    9  A    between atoms: C_10  and  C_12
REMARK                            x       y       z     vdW  Elec       q    Type
REMARK                         _______ _______ _______ _____ _____    ______ ____
ROOT
ATOM      1  C   UNL     1      46.327   6.450  13.248  0.00  0.00    +0.000 A 
ATOM      2  C   UNL     1      46.259   5.066  13.445  0.00  0.00    +0.000 A 
ATOM      3  C   UNL     1      45.423   4.261  12.672  0.00  0.00    +0.000 A 
ATOM      4  C   UNL     1      44.638   4.853  11.698  0.00  0.00    +0.000 A 
ATOM      5  N   UNL     1      44.672   6.189  11.467  0.00  0.00    +0.000 NA
ATOM      6  C   UNL     1      45.513   6.942  12.237  0.00  0.00    +0.000 A 
ENDROOT
BRANCH   1   7
ATOM      7  N   UNL     1      47.185   7.175  14.054  0.00  0.00    +0.000 N 
ATOM      8  H   UNL     1      47.223   8.159  13.764  0.00  0.00    +0.000 HD
BRANCH   7  10
ATOM      9  C   UNL     1      49.651   7.317  13.797  0.00  0.00    +0.000 C 
ATOM     10  C   UNL     1      48.475   6.764  14.614  0.00  0.00    +0.000 C 
BRANCH  10  11
ATOM     11  C   UNL     1      48.683   6.900  16.112  0.00  0.00    +0.000 A 
ATOM     12  C   UNL     1      48.974   8.080  16.778  0.00  0.00    +0.000 A 
ATOM     13  S   UNL     1      49.235   7.876  18.451  0.00  0.00    +0.000 S 
ATOM     14  C   UNL     1      48.958   6.201  18.343  0.00  0.00    +0.000 A 
ATOM     15  N   UNL     1      49.026   5.406  19.444  0.00  0.00    +0.000 NA
ATOM     16  C   UNL     1      48.802   4.161  19.210  0.00  0.00    +0.000 A 
ATOM     17  N   UNL     1      48.523   3.629  17.976  0.00  0.00    +0.000 N 
ATOM     18  C   UNL     1      48.434   4.392  16.828  0.00  0.00    +0.000 A 
ATOM     19  O   UNL     1      48.173   3.901  15.736  0.00  0.00    +0.000 OA
ATOM     20  C   UNL     1      48.677   5.804  17.052  0.00  0.00    +0.000 A 
ATOM     21  H   UNL     1      48.353   2.637  17.865  0.00  0.00    +0.000 HD
ENDBRANCH  10  11
ENDBRANCH   7  10
ENDBRANCH   1   7
BRANCH   4  22
ATOM     22  C   UNL     1      43.669   4.033  10.891  0.00  0.00    +0.000 C 
BRANCH  22  23
ATOM     23  C   UNL     1      44.357   3.017   9.971  0.00  0.00    +0.000 C 
BRANCH  23  24
ATOM     24  C   UNL     1      44.755   3.541   8.573  0.00  0.00    +0.000 C 
BRANCH  24  25
ATOM     25  C   UNL     1      45.803   2.610   7.980  0.00  0.00    +0.000 A 
ATOM     26  N   UNL     1      45.997   1.364   8.377  0.00  0.00    +0.000 NA
ATOM     27  C   UNL     1      47.024   0.799   7.651  0.00  0.00    +0.000 A 
ATOM     28  C   UNL     1      47.591   1.608   6.690  0.00  0.00    +0.000 A 
ATOM     29  S   UNL     1      46.823   3.140   6.697  0.00  0.00    +0.000 S 
ENDBRANCH  24  25
BRANCH  24  30
ATOM     30  N   UNL     1      45.295   4.908   8.630  0.00  0.00    +0.000 NA
ATOM     31  H   UNL     1      46.298   4.860   8.454  0.00  0.00    +0.000 HD
ATOM     32  H   UNL     1      45.161   5.283   9.566  0.00  0.00    +0.000 HD
ENDBRANCH  24  30
ENDBRANCH  23  24
ENDBRANCH  22  23
ENDBRANCH   4  22
TORSDOF 8
ENDMDL
MODEL 4
REMARK VINA RESULT:    -7.035      2.035      2.637
REMARK INTER + INTRA:         -11.002
REMARK INTER:                 -10.092
REMARK INTRA:                  -0.910
REMARK UNBOUND:                -0.882
REMARK  Name = 
REMARK  9 active torsions:
REMARK  status: ('A' for Active; 'I' for Inactive)
REMARK    1  A    between atoms: C_1  and  C_2
REMARK    2  A    between atoms: C_2  and  N_3
REMARK    3  A    between atoms: C_2  and  C_19
REMARK    4  A    between atoms: N_3  and  C_4
REMARK    5  A    between atoms: C_7  and  C_8
REMARK    6  A    between atoms: C_8  and  C_9
REMARK    7  A    between atoms: C_9  and  C_10
REMARK    8  A    between atoms: C_10  and  N_11
REMARK    9  A    between atoms: C_10  and  C_12
REMARK                            x       y       z     vdW  Elec       q    Type
REMARK                         _______ _______ _______ _____ _____    ______ ____
ROOT
ATOM      1  C   UNL     1      45.961   6.771  12.968  0.00  0.00    +0.000 A 
ATOM      2  C   UNL     1      46.217   5.410  13.171  0.00  0.00    +0.000 A 
ATOM      3  C   UNL     1      45.475   4.426  12.519  0.00  0.00    +0.000 A 
ATOM      4  C   UNL     1      44.459   4.811  11.661  0.00  0.00    +0.000 A 
ATOM      5  N   UNL     1      44.177   6.117  11.429  0.00  0.00    +0.000 NA
ATOM      6  C   UNL     1      44.934   7.052  12.078  0.00  0.00    +0.000 A 
ENDROOT
BRANCH   1   7
ATOM      7  N   UNL     1      46.744   7.683  13.650  0.00  0.00    +0.000 N 
ATOM      8  H   UNL     1      46.262   8.584  13.753  0.00  0.00    +0.000 HD
BRANCH   7  10
ATOM      9  C   UNL     1      48.578   8.556  12.221  0.00  0.00    +0.000 C 
ATOM     10  C   UNL     1      48.191   7.896  13.551  0.00  0.00    +0.000 C 
BRANCH  10  11
ATOM     11  C   UNL     1      48.910   8.505  14.742  0.00  0.00    +0.000 A 
ATOM     12  C   UNL     1      49.344   9.818  14.831  0.00  0.00    +0.000 A 
ATOM     13  S   UNL     1      50.196  10.162  16.268  0.00  0.00    +0.000 S 
ATOM     14  C   UNL     1      50.006   8.565  16.824  0.00  0.00    +0.000 A 
ATOM     15  N   UNL     1      50.512   8.175  18.024  0.00  0.00    +0.000 NA
ATOM     16  C   UNL     1      50.299   6.938  18.310  0.00  0.00    +0.000 A 
ATOM     17  N   UNL     1      49.633   6.048  17.505  0.00  0.00    +0.000 N 
ATOM     18  C   UNL     1      49.092   6.393  16.282  0.00  0.00    +0.000 A 
ATOM     19  O   UNL     1      48.491   5.588  15.583  0.00  0.00    +0.000 OA
ATOM     20  C   UNL     1      49.309   7.783  15.927  0.00  0.00    +0.000 A 
ATOM     21  H   UNL     1      49.498   5.088  17.796  0.00  0.00    +0.000 HD
ENDBRANCH  10  11
ENDBRANCH   7  10
ENDBRANCH   1   7
BRANCH   4  22
ATOM     22  C   UNL     1      43.588   3.782  10.993  0.00  0.00    +0.000 C 
BRANCH  22  23
ATOM     23  C   UNL     1      44.371   2.823  10.088  0.00  0.00    +0.000 C 
BRANCH  23  24
ATOM     24  C   UNL     1      44.639   3.326   8.652  0.00  0.00    +0.000 C 
BRANCH  24  25
ATOM     25  C   UNL     1      45.770   2.507   8.048  0.00  0.00    +0.000 A 
ATOM     26  N   UNL     1      45.994   1.234   8.326  0.00  0.00    +0.000 NA
ATOM     27  C   UNL     1      47.098   0.792   7.627  0.00  0.00    +0.000 A 
ATOM     28  C   UNL     1      47.694   1.722   6.803  0.00  0.00    +0.000 A 
ATOM     29  S   UNL     1      46.855   3.212   6.911  0.00  0.00    +0.000 S 
ENDBRANCH  24  25
BRANCH  24  30
ATOM     30  N   UNL     1      45.002   4.751   8.625  0.00  0.00    +0.000 NA
ATOM     31  H   UNL     1      44.946   5.075   7.660  0.00  0.00    +0.000 HD
ATOM     32  H   UNL     1      45.966   4.858   8.933  0.00  0.00    +0.000 HD
ENDBRANCH  24  30
ENDBRANCH  23  24
ENDBRANCH  22  23
ENDBRANCH   4  22
TORSDOF 8
ENDMDL
MODEL 5
REMARK VINA RESULT:    -6.969      2.224      3.137
REMARK INTER + INTRA:         -10.907
REMARK INTER:                 -10.198
REMARK INTRA:                  -0.709
REMARK UNBOUND:                -0.882
REMARK  Name = 
REMARK  9 active torsions:
REMARK  status: ('A' for Active; 'I' for Inactive)
REMARK    1  A    between atoms: C_1  and  C_2
REMARK    2  A    between atoms: C_2  and  N_3
REMARK    3  A    between atoms: C_2  and  C_19
REMARK    4  A    between atoms: N_3  and  C_4
REMARK    5  A    between atoms: C_7  and  C_8
REMARK    6  A    between atoms: C_8  and  C_9
REMARK    7  A    between atoms: C_9  and  C_10
REMARK    8  A    between atoms: C_10  and  N_11
REMARK    9  A    between atoms: C_10  and  C_12
REMARK                            x       y       z     vdW  Elec       q    Type
REMARK                         _______ _______ _______ _____ _____    ______ ____
ROOT
ATOM      1  C   UNL     1      47.148   4.943  14.647  0.00  0.00    +0.000 A 
ATOM      2  C   UNL     1      47.244   5.969  13.699  0.00  0.00    +0.000 A 
ATOM      3  C   UNL     1      46.541   5.915  12.496  0.00  0.00    +0.000 A 
ATOM      4  C   UNL     1      45.742   4.816  12.236  0.00  0.00    +0.000 A 
ATOM      5  N   UNL     1      45.614   3.799  13.124  0.00  0.00    +0.000 NA
ATOM      6  C   UNL     1      46.309   3.894  14.297  0.00  0.00    +0.000 A 
ENDROOT
BRANCH   1   7
ATOM      7  N   UNL     1      47.874   5.074  15.816  0.00  0.00    +0.000 N 
ATOM      8  H   UNL     1      48.875   4.918  15.652  0.00  0.00    +0.000 HD
BRANCH   7  10
ATOM      9  C   UNL     1      47.832   3.154  17.390  0.00  0.00    +0.000 C 
ATOM     10  C   UNL     1      47.510   4.638  17.168  0.00  0.00    +0.000 C 
BRANCH  10  11
ATOM     11  C   UNL     1      47.922   5.512  18.338  0.00  0.00    +0.000 A 
ATOM     12  C   UNL     1      47.070   5.994  19.319  0.00  0.00    +0.000 A 
ATOM     13  S   UNL     1      47.832   7.022  20.446  0.00  0.00    +0.000 S 
ATOM     14  C   UNL     1      49.334   6.851  19.665  0.00  0.00    +0.000 A 
ATOM     15  N   UNL     1      50.444   7.484  20.129  0.00  0.00    +0.000 NA
ATOM     16  C   UNL     1      51.504   7.269  19.434  0.00  0.00    +0.000 A 
ATOM     17  N   UNL     1      51.562   6.485  18.309  0.00  0.00    +0.000 N 
ATOM     18  C   UNL     1      50.469   5.812  17.799  0.00  0.00    +0.000 A 
ATOM     19  O   UNL     1      50.542   5.108  16.801  0.00  0.00    +0.000 OA
ATOM     20  C   UNL     1      49.253   6.028  18.560  0.00  0.00    +0.000 A 
ATOM     21  H   UNL     1      52.435   6.356  17.812  0.00  0.00    +0.000 HD
ENDBRANCH  10  11
ENDBRANCH   7  10
ENDBRANCH   1   7
BRANCH   4  22
ATOM     22  C   UNL     1      45.024   4.683  10.920  0.00  0.00    +0.000 C 
BRANCH  22  23
ATOM     23  C   UNL     1      44.942   3.236  10.420  0.00  0.00    +0.000 C 
BRANCH  23  24
ATOM     24  C   UNL     1      44.549   3.061   8.936  0.00  0.00    +0.000 C 
BRANCH  24  25
ATOM     25  C   UNL     1      45.706   2.405   8.196  0.00  0.00    +0.000 A 
ATOM     26  N   UNL     1      46.062   1.141   8.349  0.00  0.00    +0.000 NA
ATOM     27  C   UNL     1      47.151   0.864   7.549  0.00  0.00    +0.000 A 
ATOM     28  C   UNL     1      47.603   1.910   6.774  0.00  0.00    +0.000 A 
ATOM     29  S   UNL     1      46.642   3.299   7.060  0.00  0.00    +0.000 S 
ENDBRANCH  24  25
BRANCH  24  30
ATOM     30  N   UNL     1      44.229   4.346   8.296  0.00  0.00    +0.000 NA
ATOM     31  H   UNL     1      43.241   4.337   8.043  0.00  0.00    +0.000 HD
ATOM     32  H   UNL     1      44.768   4.438   7.439  0.00  0.00    +0.000 HD
ENDBRANCH  24  30
ENDBRANCH  23  24
ENDBRANCH  22  23
ENDBRANCH   4  22
TORSDOF 8
ENDMDL
MODEL 6
REMARK VINA RESULT:    -6.909      3.192      4.752
REMARK INTER + INTRA:         -10.821
REMARK INTER:                  -9.880
REMARK INTRA:                  -0.941
REMARK UNBOUND:                -0.882
REMARK  Name = 
REMARK  9 active torsions:
REMARK  status: ('A' for Active; 'I' for Inactive)
REMARK    1  A    between atoms: C_1  and  C_2
REMARK    2  A    between atoms: C_2  and  N_3
REMARK    3  A    between atoms: C_2  and  C_19
REMARK    4  A    between atoms: N_3  and  C_4
REMARK    5  A    between atoms: C_7  and  C_8
REMARK    6  A    between atoms: C_8  and  C_9
REMARK    7  A    between atoms: C_9  and  C_10
REMARK    8  A    between atoms: C_10  and  N_11
REMARK    9  A    between atoms: C_10  and  C_12
REMARK                            x       y       z     vdW  Elec       q    Type
REMARK                         _______ _______ _______ _____ _____    ______ ____
ROOT
ATOM      1  C   UNL     1      46.533   6.476  13.263  0.00  0.00    +0.000 A 
ATOM      2  C   UNL     1      46.512   5.088  13.444  0.00  0.00    +0.000 A 
ATOM      3  C   UNL     1      45.642   4.274  12.719  0.00  0.00    +0.000 A 
ATOM      4  C   UNL     1      44.778   4.859  11.810  0.00  0.00    +0.000 A 
ATOM      5  N   UNL     1      44.765   6.198  11.597  0.00  0.00    +0.000 NA
ATOM      6  C   UNL     1      45.640   6.961  12.317  0.00  0.00    +0.000 A 
ENDROOT
BRANCH   1   7
ATOM      7  N   UNL     1      47.428   7.212  14.018  0.00  0.00    +0.000 N 
ATOM      8  H   UNL     1      47.579   6.782  14.937  0.00  0.00    +0.000 HD
BRANCH   7  10
ATOM      9  C   UNL     1      48.030   9.105  15.507  0.00  0.00    +0.000 C 
ATOM     10  C   UNL     1      47.556   8.669  14.115  0.00  0.00    +0.000 C 
BRANCH  10  11
ATOM     11  C   UNL     1      48.268   9.402  12.993  0.00  0.00    +0.000 A 
ATOM     12  C   UNL     1      47.713  10.398  12.205  0.00  0.00    +0.000 A 
ATOM     13  S   UNL     1      48.751  10.957  10.973  0.00  0.00    +0.000 S 
ATOM     14  C   UNL     1      49.985   9.891  11.458  0.00  0.00    +0.000 A 
ATOM     15  N   UNL     1      51.179   9.856  10.808  0.00  0.00    +0.000 NA
ATOM     16  C   UNL     1      52.012   8.996  11.279  0.00  0.00    +0.000 A 
ATOM     17  N   UNL     1      51.764   8.158  12.337  0.00  0.00    +0.000 N 
ATOM     18  C   UNL     1      50.573   8.158  13.038  0.00  0.00    +0.000 A 
ATOM     19  O   UNL     1      50.374   7.410  13.987  0.00  0.00    +0.000 OA
ATOM     20  C   UNL     1      49.609   9.118  12.537  0.00  0.00    +0.000 A 
ATOM     21  H   UNL     1      52.469   7.507  12.659  0.00  0.00    +0.000 HD
ENDBRANCH  10  11
ENDBRANCH   7  10
ENDBRANCH   1   7
BRANCH   4  22
ATOM     22  C   UNL     1      43.774   4.026  11.060  0.00  0.00    +0.000 C 
BRANCH  22  23
ATOM     23  C   UNL     1      44.421   3.022  10.098  0.00  0.00    +0.000 C 
BRANCH  23  24
ATOM     24  C   UNL     1      44.757   3.563   8.691  0.00  0.00    +0.000 C 
BRANCH  24  25
ATOM     25  C   UNL     1      45.770   2.636   8.036  0.00  0.00    +0.000 A 
ATOM     26  N   UNL     1      45.983   1.387   8.414  0.00  0.00    +0.000 NA
ATOM     27  C   UNL     1      46.970   0.826   7.630  0.00  0.00    +0.000 A 
ATOM     28  C   UNL     1      47.485   1.641   6.646  0.00  0.00    +0.000 A 
ATOM     29  S   UNL     1      46.721   3.173   6.704  0.00  0.00    +0.000 S 
ENDBRANCH  24  25
BRANCH  24  30
ATOM     30  N   UNL     1      45.307   4.926   8.742  0.00  0.00    +0.000 NA
ATOM     31  H   UNL     1      45.335   5.293   7.790  0.00  0.00    +0.000 HD
ATOM     32  H   UNL     1      46.263   4.890   9.089  0.00  0.00    +0.000 HD
ENDBRANCH  24  30
ENDBRANCH  23  24
ENDBRANCH  22  23
ENDBRANCH   4  22
TORSDOF 8
ENDMDL
MODEL 7
REMARK VINA RESULT:    -6.831      2.183      2.798
REMARK INTER + INTRA:         -10.708
REMARK INTER:                  -9.897
REMARK INTRA:                  -0.811
REMARK UNBOUND:                -0.882
REMARK  Name = 
REMARK  9 active torsions:
REMARK  status: ('A' for Active; 'I' for Inactive)
REMARK    1  A    between atoms: C_1  and  C_2
REMARK    2  A    between atoms: C_2  and  N_3
REMARK    3  A    between atoms: C_2  and  C_19
REMARK    4  A    between atoms: N_3  and  C_4
REMARK    5  A    between atoms: C_7  and  C_8
REMARK    6  A    between atoms: C_8  and  C_9
REMARK    7  A    between atoms: C_9  and  C_10
REMARK    8  A    between atoms: C_10  and  N_11
REMARK    9  A    between atoms: C_10  and  C_12
REMARK                            x       y       z     vdW  Elec       q    Type
REMARK                         _______ _______ _______ _____ _____    ______ ____
ROOT
ATOM      1  C   UNL     1      46.639   6.165  13.642  0.00  0.00    +0.000 A 
ATOM      2  C   UNL     1      46.068   6.739  12.501  0.00  0.00    +0.000 A 
ATOM      3  C   UNL     1      45.168   6.033  11.704  0.00  0.00    +0.000 A 
ATOM      4  C   UNL     1      44.844   4.733  12.051  0.00  0.00    +0.000 A 
ATOM      5  N   UNL     1      45.368   4.135  13.149  0.00  0.00    +0.000 NA
ATOM      6  C   UNL     1      46.238   4.863  13.911  0.00  0.00    +0.000 A 
ENDROOT
BRANCH   1   7
ATOM      7  N   UNL     1      47.520   6.933  14.380  0.00  0.00    +0.000 N 
ATOM      8  H   UNL     1      47.545   7.901  14.039  0.00  0.00    +0.000 HD
BRANCH   7  10
ATOM      9  C   UNL     1      49.956   7.415  14.326  0.00  0.00    +0.000 C 
ATOM     10  C   UNL     1      48.831   6.555  14.917  0.00  0.00    +0.000 C 
BRANCH  10  11
ATOM     11  C   UNL     1      48.963   6.362  16.417  0.00  0.00    +0.000 A 
ATOM     12  C   UNL     1      49.363   5.192  17.044  0.00  0.00    +0.000 A 
ATOM     13  S   UNL     1      49.322   5.279  18.746  0.00  0.00    +0.000 S 
ATOM     14  C   UNL     1      48.775   6.889  18.704  0.00  0.00    +0.000 A 
ATOM     15  N   UNL     1      48.535   7.580  19.850  0.00  0.00    +0.000 NA
ATOM     16  C   UNL     1      48.119   8.783  19.664  0.00  0.00    +0.000 A 
ATOM     17  N   UNL     1      47.911   9.363  18.438  0.00  0.00    +0.000 N 
ATOM     18  C   UNL     1      48.147   8.711  17.243  0.00  0.00    +0.000 A 
ATOM     19  O   UNL     1      47.966   9.249  16.158  0.00  0.00    +0.000 OA
ATOM     20  C   UNL     1      48.622   7.351  17.413  0.00  0.00    +0.000 A 
ATOM     21  H   UNL     1      47.585  10.319  18.365  0.00  0.00    +0.000 HD
ENDBRANCH  10  11
ENDBRANCH   7  10
ENDBRANCH   1   7
BRANCH   4  22
ATOM     22  C   UNL     1      43.933   3.911  11.180  0.00  0.00    +0.000 C 
BRANCH  22  23
ATOM     23  C   UNL     1      44.687   2.931  10.273  0.00  0.00    +0.000 C 
BRANCH  23  24
ATOM     24  C   UNL     1      44.664   3.263   8.764  0.00  0.00    +0.000 C 
BRANCH  24  25
ATOM     25  C   UNL     1      45.780   2.492   8.075  0.00  0.00    +0.000 A 
ATOM     26  N   UNL     1      46.067   1.225   8.321  0.00  0.00    +0.000 NA
ATOM     27  C   UNL     1      47.136   0.830   7.544  0.00  0.00    +0.000 A 
ATOM     28  C   UNL     1      47.642   1.789   6.694  0.00  0.00    +0.000 A 
ATOM     29  S   UNL     1      46.760   3.247   6.877  0.00  0.00    +0.000 S 
ENDBRANCH  24  25
BRANCH  24  30
ATOM     30  N   UNL     1      44.841   4.702   8.514  0.00  0.00    +0.000 NA
ATOM     31  H   UNL     1      45.788   4.849   8.165  0.00  0.00    +0.000 HD
ATOM     32  H   UNL     1      44.751   5.209   9.391  0.00  0.00    +0.000 HD
ENDBRANCH  24  30
ENDBRANCH  23  24
ENDBRANCH  22  23
ENDBRANCH   4  22
TORSDOF 8
ENDMDL
MODEL 8
REMARK VINA RESULT:    -6.787      2.262      2.944
REMARK INTER + INTRA:         -10.645
REMARK INTER:                  -9.363
REMARK INTRA:                  -1.282
REMARK UNBOUND:                -0.882
REMARK  Name = 
REMARK  9 active torsions:
REMARK  status: ('A' for Active; 'I' for Inactive)
REMARK    1  A    between atoms: C_1  and  C_2
REMARK    2  A    between atoms: C_2  and  N_3
REMARK    3  A    between atoms: C_2  and  C_19
REMARK    4  A    between atoms: N_3  and  C_4
REMARK    5  A    between atoms: C_7  and  C_8
REMARK    6  A    between atoms: C_8  and  C_9
REMARK    7  A    between atoms: C_9  and  C_10
REMARK    8  A    between atoms: C_10  and  N_11
REMARK    9  A    between atoms: C_10  and  C_12
REMARK                            x       y       z     vdW  Elec       q    Type
REMARK                         _______ _______ _______ _____ _____    ______ ____
ROOT
ATOM      1  C   UNL     1      47.703   6.310  13.416  0.00  0.00    +0.000 A 
ATOM      2  C   UNL     1      47.127   5.142  13.928  0.00  0.00    +0.000 A 
ATOM      3  C   UNL     1      45.783   4.840  13.712  0.00  0.00    +0.000 A 
ATOM      4  C   UNL     1      45.006   5.724  12.983  0.00  0.00    +0.000 A 
ATOM      5  N   UNL     1      45.521   6.866  12.463  0.00  0.00    +0.000 NA
ATOM      6  C   UNL     1      46.845   7.121  12.687  0.00  0.00    +0.000 A 
ENDROOT
BRANCH   1   7
ATOM      7  N   UNL     1      49.043   6.534  13.672  0.00  0.00    +0.000 N 
ATOM      8  H   UNL     1      49.526   5.661  13.913  0.00  0.00    +0.000 HD
BRANCH   7  10
ATOM      9  C   UNL     1      50.027   8.800  13.413  0.00  0.00    +0.000 C 
ATOM     10  C   UNL     1      49.660   7.663  14.376  0.00  0.00    +0.000 C 
BRANCH  10  11
ATOM     11  C   UNL     1      49.002   8.159  15.650  0.00  0.00    +0.000 A 
ATOM     12  C   UNL     1      48.507   9.438  15.852  0.00  0.00    +0.000 A 
ATOM     13  S   UNL     1      47.908   9.701  17.427  0.00  0.00    +0.000 S 
ATOM     14  C   UNL     1      48.283   8.108  17.892  0.00  0.00    +0.000 A 
ATOM     15  N   UNL     1      48.020   7.663  19.149  0.00  0.00    +0.000 NA
ATOM     16  C   UNL     1      48.365   6.441  19.360  0.00  0.00    +0.000 A 
ATOM     17  N   UNL     1      48.957   5.620  18.433  0.00  0.00    +0.000 N 
ATOM     18  C   UNL     1      49.238   6.018  17.141  0.00  0.00    +0.000 A 
ATOM     19  O   UNL     1      49.757   5.267  16.324  0.00  0.00    +0.000 OA
ATOM     20  C   UNL     1      48.860   7.390  16.864  0.00  0.00    +0.000 A 
ATOM     21  H   UNL     1      49.198   4.665  18.667  0.00  0.00    +0.000 HD
ENDBRANCH  10  11
ENDBRANCH   7  10
ENDBRANCH   1   7
BRANCH   4  22
ATOM     22  C   UNL     1      43.536   5.472  12.787  0.00  0.00    +0.000 C 
BRANCH  22  23
ATOM     23  C   UNL     1      43.225   4.660  11.524  0.00  0.00    +0.000 C 
BRANCH  23  24
ATOM     24  C   UNL     1      43.937   3.293  11.414  0.00  0.00    +0.000 C 
BRANCH  24  25
ATOM     25  C   UNL     1      44.645   3.215  10.069  0.00  0.00    +0.000 A 
ATOM     26  N   UNL     1      44.913   2.086   9.437  0.00  0.00    +0.000 NA
ATOM     27  C   UNL     1      45.570   2.358   8.255  0.00  0.00    +0.000 A 
ATOM     28  C   UNL     1      45.778   3.693   7.982  0.00  0.00    +0.000 A 
ATOM     29  S   UNL     1      45.140   4.649   9.253  0.00  0.00    +0.000 S 
ENDBRANCH  24  25
BRANCH  24  30
ATOM     30  N   UNL     1      42.995   2.170  11.534  0.00  0.00    +0.000 NA
ATOM     31  H   UNL     1      43.506   1.364  11.894  0.00  0.00    +0.000 HD
ATOM     32  H   UNL     1      42.642   1.927  10.611  0.00  0.00    +0.000 HD
ENDBRANCH  24  30
ENDBRANCH  23  24
ENDBRANCH  22  23
ENDBRANCH   4  22
TORSDOF 8
ENDMDL
MODEL 9
REMARK VINA RESULT:    -6.682      2.483      8.258
REMARK INTER + INTRA:         -10.494
REMARK INTER:                  -9.588
REMARK INTRA:                  -0.906
REMARK UNBOUND:                -0.882
REMARK  Name = 
REMARK  9 active torsions:
REMARK  status: ('A' for Active; 'I' for Inactive)
REMARK    1  A    between atoms: C_1  and  C_2
REMARK    2  A    between atoms: C_2  and  N_3
REMARK    3  A    between atoms: C_2  and  C_19
REMARK    4  A    between atoms: N_3  and  C_4
REMARK    5  A    between atoms: C_7  and  C_8
REMARK    6  A    between atoms: C_8  and  C_9
REMARK    7  A    between atoms: C_9  and  C_10
REMARK    8  A    between atoms: C_10  and  N_11
REMARK    9  A    between atoms: C_10  and  C_12
REMARK                            x       y       z     vdW  Elec       q    Type
REMARK                         _______ _______ _______ _____ _____    ______ ____
ROOT
ATOM      1  C   UNL     1      46.972   6.647  13.139  0.00  0.00    +0.000 A 
ATOM      2  C   UNL     1      47.688   7.762  13.592  0.00  0.00    +0.000 A 
ATOM      3  C   UNL     1      48.528   7.684  14.703  0.00  0.00    +0.000 A 
ATOM      4  C   UNL     1      48.642   6.478  15.372  0.00  0.00    +0.000 A 
ATOM      5  N   UNL     1      47.972   5.370  14.969  0.00  0.00    +0.000 NA
ATOM      6  C   UNL     1      47.168   5.483  13.870  0.00  0.00    +0.000 A 
ENDROOT
BRANCH   1   7
ATOM      7  N   UNL     1      46.164   6.807  12.029  0.00  0.00    +0.000 N 
ATOM      8  H   UNL     1      46.395   7.670  11.523  0.00  0.00    +0.000 HD
BRANCH   7  10
ATOM      9  C   UNL     1      44.017   7.557  11.032  0.00  0.00    +0.000 C 
ATOM     10  C   UNL     1      44.736   6.507  11.890  0.00  0.00    +0.000 C 
BRANCH  10  11
ATOM     11  C   UNL     1      44.332   5.086  11.544  0.00  0.00    +0.000 A 
ATOM     12  C   UNL     1      43.546   4.260  12.332  0.00  0.00    +0.000 A 
ATOM     13  S   UNL     1      43.349   2.689  11.697  0.00  0.00    +0.000 S 
ATOM     14  C   UNL     1      44.304   3.063  10.339  0.00  0.00    +0.000 A 
ATOM     15  N   UNL     1      44.542   2.138   9.372  0.00  0.00    +0.000 NA
ATOM     16  C   UNL     1      45.286   2.558   8.410  0.00  0.00    +0.000 A 
ATOM     17  N   UNL     1      45.824   3.818   8.324  0.00  0.00    +0.000 N 
ATOM     18  C   UNL     1      45.606   4.799   9.273  0.00  0.00    +0.000 A 
ATOM     19  O   UNL     1      46.086   5.921   9.173  0.00  0.00    +0.000 OA
ATOM     20  C   UNL     1      44.768   4.362  10.373  0.00  0.00    +0.000 A 
ATOM     21  H   UNL     1      46.398   4.083   7.534  0.00  0.00    +0.000 HD
ENDBRANCH  10  11
ENDBRANCH   7  10
ENDBRANCH   1   7
BRANCH   4  22
ATOM     22  C   UNL     1      49.480   6.368  16.617  0.00  0.00    +0.000 C 
BRANCH  22  23
ATOM     23  C   UNL     1      48.652   6.397  17.907  0.00  0.00    +0.000 C 
BRANCH  23  24
ATOM     24  C   UNL     1      48.192   5.021  18.439  0.00  0.00    +0.000 C 
BRANCH  24  25
ATOM     25  C   UNL     1      49.192   3.964  17.993  0.00  0.00    +0.000 A 
ATOM     26  N   UNL     1      50.472   3.968  18.323  0.00  0.00    +0.000 NA
ATOM     27  C   UNL     1      51.104   2.884  17.750  0.00  0.00    +0.000 A 
ATOM     28  C   UNL     1      50.299   2.048  17.007  0.00  0.00    +0.000 A 
ATOM     29  S   UNL     1      48.691   2.640  17.011  0.00  0.00    +0.000 S 
ENDBRANCH  24  25
BRANCH  24  30
ATOM     30  N   UNL     1      46.853   4.661  17.949  0.00  0.00    +0.000 NA
ATOM     31  H   UNL     1      46.510   5.428  17.370  0.00  0.00    +0.000 HD
ATOM     32  H   UNL     1      46.221   4.563  18.740  0.00  0.00    +0.000 HD
ENDBRANCH  24  30
ENDBRANCH  23  24
ENDBRANCH  22  23
ENDBRANCH   4  22
TORSDOF 8
ENDMDL
