MODEL 1
REMARK VINA RESULT:    -8.545      0.000      0.000
REMARK INTER + INTRA:         -12.508
REMARK INTER:                 -11.791
REMARK INTRA:                  -0.716
REMARK UNBOUND:                -0.716
REMARK  Name = 
REMARK  7 active torsions:
REMARK  status: ('A' for Active; 'I' for Inactive)
REMARK    1  A    between atoms: C_2  and  C_4
REMARK    2  A    between atoms: C_9  and  C_10
REMARK    3  A    between atoms: C_10  and  C_11
REMARK    4  A    between atoms: C_11  and  O_12
REMARK    5  A    between atoms: O_12  and  C_13
REMARK    6  A    between atoms: C_16  and  C_17
REMARK    7  A    between atoms: C_17  and  O_19
REMARK                            x       y       z     vdW  Elec       q    Type
REMARK                         _______ _______ _______ _____ _____    ______ ____
ROOT
ATOM      1  C   UNL     1      43.146   5.178  12.184  0.00  0.00    +0.000 C 
ENDROOT
BRANCH   1   7
ATOM      2  C   UNL     1      46.503   5.122  14.015  0.00  0.00    +0.000 A 
ATOM      3  C   UNL     1      47.105   6.303  13.576  0.00  0.00    +0.000 A 
ATOM      4  C   UNL     1      46.421   7.139  12.690  0.00  0.00    +0.000 A 
ATOM      5  C   UNL     1      45.137   6.805  12.241  0.00  0.00    +0.000 A 
ATOM      6 CL   UNL     1      44.380   7.884  11.126  0.00  0.00    +0.000 Cl
ATOM      7  C   UNL     1      44.512   5.623  12.673  0.00  0.00    +0.000 A 
ATOM      8  C   UNL     1      45.222   4.781  13.553  0.00  0.00    +0.000 A 
BRANCH   2  10
ATOM      9  N   UNL     1      47.374   4.597  16.231  0.00  0.00    +0.000 N 
ATOM     10  C   UNL     1      47.197   4.186  14.939  0.00  0.00    +0.000 C 
ATOM     11  O   UNL     1      47.562   3.076  14.573  0.00  0.00    +0.000 OA
ATOM     12  H   UNL     1      47.752   3.910  16.870  0.00  0.00    +0.000 HD
ATOM     13  H   UNL     1      46.881   5.383  16.628  0.00  0.00    +0.000 HD
ENDBRANCH   2  10
ENDBRANCH   1   7
BRANCH   1  14
ATOM     14  C   UNL     1      43.277   4.123  11.085  0.00  0.00    +0.000 C 
BRANCH  14  15
ATOM     15  O   UNL     1      43.739   4.697   9.850  0.00  0.00    +0.000 OA
BRANCH  15  16
ATOM     16  C   UNL     1      44.582   3.821   9.184  0.00  0.00    +0.000 A 
ATOM     17  C   UNL     1      45.498   4.346   8.285  0.00  0.00    +0.000 A 
ATOM     18  C   UNL     1      46.369   3.462   7.627  0.00  0.00    +0.000 A 
ATOM     19  C   UNL     1      46.286   2.091   7.895  0.00  0.00    +0.000 A 
ATOM     20  C   UNL     1      45.342   1.668   8.816  0.00  0.00    +0.000 A 
ATOM     21  N   UNL     1      44.489   2.500   9.451  0.00  0.00    +0.000 NA
BRANCH  19  22
ATOM     22  C   UNL     1      47.170   1.061   7.313  0.00  0.00    +0.000 C 
ATOM     23  O   UNL     1      48.045   1.330   6.508  0.00  0.00    +0.000 OA
BRANCH  22  24
ATOM     24  O   UNL     1      46.955  -0.188   7.774  0.00  0.00    +0.000 OA
ATOM     25  H   UNL     1      47.743  -0.669   8.085  0.00  0.00    +0.000 HD
ENDBRANCH  22  24
ENDBRANCH  19  22
ENDBRANCH  15  16
ENDBRANCH  14  15
ENDBRANCH   1  14
TORSDOF 7
ENDMDL
MODEL 2
REMARK VINA RESULT:    -8.092      2.643      3.348
REMARK INTER + INTRA:         -11.884
REMARK INTER:                 -11.015
REMARK INTRA:                  -0.869
REMARK UNBOUND:                -0.716
REMARK  Name = 
REMARK  7 active torsions:
REMARK  status: ('A' for Active; 'I' for Inactive)
REMARK    1  A    between atoms: C_2  and  C_4
REMARK    2  A    between atoms: C_9  and  C_10
REMARK    3  A    between atoms: C_10  and  C_11
REMARK    4  A    between atoms: C_11  and  O_12
REMARK    5  A    between atoms: O_12  and  C_13
REMARK    6  A    between atoms: C_16  and  C_17
REMARK    7  A    between atoms: C_17  and  O_19
REMARK                            x       y       z     vdW  Elec       q    Type
REMARK                         _______ _______ _______ _____ _____    ______ ____
ROOT
ATOM      1  C   UNL     1      43.750   4.029  12.847  0.00  0.00    +0.000 C 
ENDROOT
BRANCH   1   7
ATOM      2  C   UNL     1      45.187   7.457  11.950  0.00  0.00    +0.000 A 
ATOM      3  C   UNL     1      46.546   7.295  12.227  0.00  0.00    +0.000 A 
ATOM      4  C   UNL     1      47.015   6.065  12.695  0.00  0.00    +0.000 A 
ATOM      5  C   UNL     1      46.133   4.992  12.888  0.00  0.00    +0.000 A 
ATOM      6 CL   UNL     1      46.797   3.520  13.495  0.00  0.00    +0.000 Cl
ATOM      7  C   UNL     1      44.763   5.133  12.611  0.00  0.00    +0.000 A 
ATOM      8  C   UNL     1      44.303   6.385  12.156  0.00  0.00    +0.000 A 
BRANCH   2  10
ATOM      9  N   UNL     1      43.445   8.714  10.798  0.00  0.00    +0.000 N 
ATOM     10  C   UNL     1      44.634   8.751  11.472  0.00  0.00    +0.000 C 
ATOM     11  O   UNL     1      45.197   9.814  11.701  0.00  0.00    +0.000 OA
ATOM     12  H   UNL     1      43.031   9.610  10.572  0.00  0.00    +0.000 HD
ATOM     13  H   UNL     1      42.839   7.908  10.802  0.00  0.00    +0.000 HD
ENDBRANCH   2  10
ENDBRANCH   1   7
BRANCH   1  14
ATOM     14  C   UNL     1      43.908   2.912  11.815  0.00  0.00    +0.000 C 
BRANCH  14  15
ATOM     15  O   UNL     1      43.432   3.316  10.519  0.00  0.00    +0.000 OA
BRANCH  15  16
ATOM     16  C   UNL     1      44.408   3.119   9.554  0.00  0.00    +0.000 A 
ATOM     17  C   UNL     1      44.930   4.232   8.912  0.00  0.00    +0.000 A 
ATOM     18  C   UNL     1      45.936   4.036   7.950  0.00  0.00    +0.000 A 
ATOM     19  C   UNL     1      46.374   2.737   7.670  0.00  0.00    +0.000 A 
ATOM     20  C   UNL     1      45.793   1.693   8.372  0.00  0.00    +0.000 A 
ATOM     21  N   UNL     1      44.819   1.859   9.292  0.00  0.00    +0.000 NA
BRANCH  19  22
ATOM     22  C   UNL     1      47.453   2.395   6.722  0.00  0.00    +0.000 C 
ATOM     23  O   UNL     1      48.208   1.456   6.904  0.00  0.00    +0.000 OA
BRANCH  22  24
ATOM     24  O   UNL     1      47.506   3.178   5.626  0.00  0.00    +0.000 OA
ATOM     25  H   UNL     1      48.176   3.885   5.640  0.00  0.00    +0.000 HD
ENDBRANCH  22  24
ENDBRANCH  19  22
ENDBRANCH  15  16
ENDBRANCH  14  15
ENDBRANCH   1  14
TORSDOF 7
ENDMDL
MODEL 3
REMARK VINA RESULT:    -7.369      1.937      2.379
REMARK INTER + INTRA:         -10.885
REMARK INTER:                 -10.314
REMARK INTRA:                  -0.571
REMARK UNBOUND:                -0.716
REMARK  Name = 
REMARK  7 active torsions:
REMARK  status: ('A' for Active; 'I' for Inactive)
REMARK    1  A    between atoms: C_2  and  C_4
REMARK    2  A    between atoms: C_9  and  C_10
REMARK    3  A    between atoms: C_10  and  C_11
REMARK    4  A    between atoms: C_11  and  O_12
REMARK    5  A    between atoms: O_12  and  C_13
REMARK    6  A    between atoms: C_16  and  C_17
REMARK    7  A    between atoms: C_17  and  O_19
REMARK                            x       y       z     vdW  Elec       q    Type
REMARK                         _______ _______ _______ _____ _____    ______ ____
ROOT
ATOM      1  C   UNL     1      43.861   6.224  11.224  0.00  0.00    +0.000 C 
ENDROOT
BRANCH   1   7
ATOM      2  C   UNL     1      47.229   7.334  12.658  0.00  0.00    +0.000 A 
ATOM      3  C   UNL     1      47.155   8.725  12.554  0.00  0.00    +0.000 A 
ATOM      4  C   UNL     1      46.006   9.320  12.030  0.00  0.00    +0.000 A 
ATOM      5  C   UNL     1      44.924   8.534  11.610  0.00  0.00    +0.000 A 
ATOM      6 CL   UNL     1      43.556   9.354  10.950  0.00  0.00    +0.000 Cl
ATOM      7  C   UNL     1      44.975   7.134  11.709  0.00  0.00    +0.000 A 
ATOM      8  C   UNL     1      46.149   6.548  12.224  0.00  0.00    +0.000 A 
BRANCH   2  10
ATOM      9  N   UNL     1      49.651   7.056  12.702  0.00  0.00    +0.000 N 
ATOM     10  C   UNL     1      48.438   6.651  13.187  0.00  0.00    +0.000 C 
ATOM     11  O   UNL     1      48.360   5.786  14.050  0.00  0.00    +0.000 OA
ATOM     12  H   UNL     1      50.466   6.655  13.147  0.00  0.00    +0.000 HD
ATOM     13  H   UNL     1      49.774   7.914  12.186  0.00  0.00    +0.000 HD
ENDBRANCH   2  10
ENDBRANCH   1   7
BRANCH   1  14
ATOM     14  C   UNL     1      44.302   4.760  11.249  0.00  0.00    +0.000 C 
BRANCH  14  15
ATOM     15  O   UNL     1      43.692   4.005  10.188  0.00  0.00    +0.000 OA
BRANCH  15  16
ATOM     16  C   UNL     1      44.648   3.555   9.291  0.00  0.00    +0.000 A 
ATOM     17  C   UNL     1      44.978   2.207   9.304  0.00  0.00    +0.000 A 
ATOM     18  C   UNL     1      45.930   1.745   8.380  0.00  0.00    +0.000 A 
ATOM     19  C   UNL     1      46.513   2.649   7.485  0.00  0.00    +0.000 A 
ATOM     20  C   UNL     1      46.110   3.973   7.549  0.00  0.00    +0.000 A 
ATOM     21  N   UNL     1      45.204   4.439   8.435  0.00  0.00    +0.000 NA
BRANCH  19  22
ATOM     22  C   UNL     1      47.486   2.290   6.434  0.00  0.00    +0.000 C 
ATOM     23  O   UNL     1      48.236   1.334   6.538  0.00  0.00    +0.000 OA
BRANCH  22  24
ATOM     24  O   UNL     1      47.448   3.078   5.341  0.00  0.00    +0.000 OA
ATOM     25  H   UNL     1      47.847   3.961   5.439  0.00  0.00    +0.000 HD
ENDBRANCH  22  24
ENDBRANCH  19  22
ENDBRANCH  15  16
ENDBRANCH  14  15
ENDBRANCH   1  14
TORSDOF 7
ENDMDL
MODEL 4
REMARK VINA RESULT:    -7.016      2.210      2.833
REMARK INTER + INTRA:         -10.399
REMARK INTER:                 -10.457
REMARK INTRA:                   0.058
REMARK UNBOUND:                -0.716
REMARK  Name = 
REMARK  7 active torsions:
REMARK  status: ('A' for Active; 'I' for Inactive)
REMARK    1  A    between atoms: C_2  and  C_4
REMARK    2  A    between atoms: C_9  and  C_10
REMARK    3  A    between atoms: C_10  and  C_11
REMARK    4  A    between atoms: C_11  and  O_12
REMARK    5  A    between atoms: O_12  and  C_13
REMARK    6  A    between atoms: C_16  and  C_17
REMARK    7  A    between atoms: C_17  and  O_19
REMARK                            x       y       z     vdW  Elec       q    Type
REMARK                         _______ _______ _______ _____ _____    ______ ____
ROOT
ATOM      1  C   UNL     1      45.685   5.719  10.739  0.00  0.00    +0.000 C 
ENDROOT
BRANCH   1   7
ATOM      2  C   UNL     1      47.568   6.928  13.840  0.00  0.00    +0.000 A 
ATOM      3  C   UNL     1      47.536   5.805  14.669  0.00  0.00    +0.000 A 
ATOM      4  C   UNL     1      46.914   4.636  14.225  0.00  0.00    +0.000 A 
ATOM      5  C   UNL     1      46.324   4.580  12.954  0.00  0.00    +0.000 A 
ATOM      6 CL   UNL     1      45.554   3.103  12.501  0.00  0.00    +0.000 Cl
ATOM      7  C   UNL     1      46.350   5.697  12.103  0.00  0.00    +0.000 A 
ATOM      8  C   UNL     1      46.966   6.875  12.573  0.00  0.00    +0.000 A 
BRANCH   2  10
ATOM      9  N   UNL     1      47.392   9.124  14.885  0.00  0.00    +0.000 N 
ATOM     10  C   UNL     1      48.198   8.204  14.274  0.00  0.00    +0.000 C 
ATOM     11  O   UNL     1      49.395   8.411  14.126  0.00  0.00    +0.000 OA
ATOM     12  H   UNL     1      47.856   9.939  15.267  0.00  0.00    +0.000 HD
ATOM     13  H   UNL     1      46.475   8.899  15.241  0.00  0.00    +0.000 HD
ENDBRANCH   2  10
ENDBRANCH   1   7
BRANCH   1  14
ATOM     14  C   UNL     1      44.214   5.314  10.841  0.00  0.00    +0.000 C 
BRANCH  14  15
ATOM     15  O   UNL     1      43.705   4.845   9.580  0.00  0.00    +0.000 OA
BRANCH  15  16
ATOM     16  C   UNL     1      44.563   3.912   9.019  0.00  0.00    +0.000 A 
ATOM     17  C   UNL     1      44.463   2.593   9.437  0.00  0.00    +0.000 A 
ATOM     18  C   UNL     1      45.315   1.641   8.853  0.00  0.00    +0.000 A 
ATOM     19  C   UNL     1      46.232   2.049   7.878  0.00  0.00    +0.000 A 
ATOM     20  C   UNL     1      46.248   3.389   7.525  0.00  0.00    +0.000 A 
ATOM     21  N   UNL     1      45.445   4.320   8.081  0.00  0.00    +0.000 NA
BRANCH  19  22
ATOM     22  C   UNL     1      47.149   1.149   7.150  0.00  0.00    +0.000 C 
ATOM     23  O   UNL     1      46.989  -0.059   7.118  0.00  0.00    +0.000 OA
BRANCH  22  24
ATOM     24  O   UNL     1      48.148   1.775   6.497  0.00  0.00    +0.000 OA
ATOM     25  H   UNL     1      47.966   2.016   5.570  0.00  0.00    +0.000 HD
ENDBRANCH  22  24
ENDBRANCH  19  22
ENDBRANCH  15  16
ENDBRANCH  14  15
ENDBRANCH   1  14
TORSDOF 7
ENDMDL
MODEL 5
REMARK VINA RESULT:    -6.807      2.229      6.994
REMARK INTER + INTRA:         -10.109
REMARK INTER:                  -9.483
REMARK INTRA:                  -0.626
REMARK UNBOUND:                -0.716
REMARK  Name = 
REMARK  7 active torsions:
REMARK  status: ('A' for Active; 'I' for Inactive)
REMARK    1  A    between atoms: C_2  and  C_4
REMARK    2  A    between atoms: C_9  and  C_10
REMARK    3  A    between atoms: C_10  and  C_11
REMARK    4  A    between atoms: C_11  and  O_12
REMARK    5  A    between atoms: O_12  and  C_13
REMARK    6  A    between atoms: C_16  and  C_17
REMARK    7  A    between atoms: C_17  and  O_19
REMARK                            x       y       z     vdW  Elec       q    Type
REMARK                         _______ _______ _______ _____ _____    ______ ____
ROOT
ATOM      1  C   UNL     1      45.101   5.529   9.606  0.00  0.00    +0.000 C 
ENDROOT
BRANCH   1   7
ATOM      2  C   UNL     1      46.431   2.583   7.561  0.00  0.00    +0.000 A 
ATOM      3  C   UNL     1      45.769   1.496   8.135  0.00  0.00    +0.000 A 
ATOM      4  C   UNL     1      44.873   1.707   9.185  0.00  0.00    +0.000 A 
ATOM      5  C   UNL     1      44.630   3.002   9.666  0.00  0.00    +0.000 A 
ATOM      6 CL   UNL     1      43.528   3.164  10.984  0.00  0.00    +0.000 Cl
ATOM      7  C   UNL     1      45.281   4.110   9.099  0.00  0.00    +0.000 A 
ATOM      8  C   UNL     1      46.195   3.878   8.052  0.00  0.00    +0.000 A 
BRANCH   2  10
ATOM      9  N   UNL     1      47.320   3.270   5.396  0.00  0.00    +0.000 N 
ATOM     10  C   UNL     1      47.411   2.410   6.456  0.00  0.00    +0.000 C 
ATOM     11  O   UNL     1      48.289   1.559   6.505  0.00  0.00    +0.000 OA
ATOM     12  H   UNL     1      48.056   3.206   4.705  0.00  0.00    +0.000 HD
ATOM     13  H   UNL     1      46.781   4.122   5.428  0.00  0.00    +0.000 HD
ENDBRANCH   2  10
ENDBRANCH   1   7
BRANCH   1  14
ATOM     14  C   UNL     1      46.332   5.989  10.389  0.00  0.00    +0.000 C 
BRANCH  14  15
ATOM     15  O   UNL     1      45.966   6.747  11.555  0.00  0.00    +0.000 OA
BRANCH  15  16
ATOM     16  C   UNL     1      46.304   6.062  12.712  0.00  0.00    +0.000 A 
ATOM     17  C   UNL     1      45.595   4.911  13.024  0.00  0.00    +0.000 A 
ATOM     18  C   UNL     1      45.951   4.203  14.184  0.00  0.00    +0.000 A 
ATOM     19  C   UNL     1      46.999   4.676  14.982  0.00  0.00    +0.000 A 
ATOM     20  C   UNL     1      47.649   5.831  14.579  0.00  0.00    +0.000 A 
ATOM     21  N   UNL     1      47.316   6.532  13.474  0.00  0.00    +0.000 NA
BRANCH  19  22
ATOM     22  C   UNL     1      47.506   4.004  16.196  0.00  0.00    +0.000 C 
ATOM     23  O   UNL     1      46.777   3.393  16.957  0.00  0.00    +0.000 OA
BRANCH  22  24
ATOM     24  O   UNL     1      48.840   4.091  16.368  0.00  0.00    +0.000 OA
ATOM     25  H   UNL     1      49.150   4.108  17.292  0.00  0.00    +0.000 HD
ENDBRANCH  22  24
ENDBRANCH  19  22
ENDBRANCH  15  16
ENDBRANCH  14  15
ENDBRANCH   1  14
TORSDOF 7
ENDMDL
MODEL 6
REMARK VINA RESULT:    -6.675      4.046      6.531
REMARK INTER + INTRA:          -9.927
REMARK INTER:                  -9.673
REMARK INTRA:                  -0.254
REMARK UNBOUND:                -0.716
REMARK  Name = 
REMARK  7 active torsions:
REMARK  status: ('A' for Active; 'I' for Inactive)
REMARK    1  A    between atoms: C_2  and  C_4
REMARK    2  A    between atoms: C_9  and  C_10
REMARK    3  A    between atoms: C_10  and  C_11
REMARK    4  A    between atoms: C_11  and  O_12
REMARK    5  A    between atoms: O_12  and  C_13
REMARK    6  A    between atoms: C_16  and  C_17
REMARK    7  A    between atoms: C_17  and  O_19
REMARK                            x       y       z     vdW  Elec       q    Type
REMARK                         _______ _______ _______ _____ _____    ______ ____
ROOT
ATOM      1  C   UNL     1      47.824   3.246  16.758  0.00  0.00    +0.000 C 
ENDROOT
BRANCH   1   7
ATOM      2  C   UNL     1      51.436   2.485  17.756  0.00  0.00    +0.000 A 
ATOM      3  C   UNL     1      51.885   3.721  18.226  0.00  0.00    +0.000 A 
ATOM      4  C   UNL     1      51.016   4.814  18.237  0.00  0.00    +0.000 A 
ATOM      5  C   UNL     1      49.696   4.680  17.783  0.00  0.00    +0.000 A 
ATOM      6 CL   UNL     1      48.702   6.091  17.808  0.00  0.00    +0.000 Cl
ATOM      7  C   UNL     1      49.223   3.445  17.311  0.00  0.00    +0.000 A 
ATOM      8  C   UNL     1      50.118   2.356  17.290  0.00  0.00    +0.000 A 
BRANCH   2  10
ATOM      9  N   UNL     1      51.797   0.096  18.086  0.00  0.00    +0.000 N 
ATOM     10  C   UNL     1      52.328   1.296  17.702  0.00  0.00    +0.000 C 
ATOM     11  O   UNL     1      53.480   1.376  17.296  0.00  0.00    +0.000 OA
ATOM     12  H   UNL     1      52.382  -0.718  17.944  0.00  0.00    +0.000 HD
ATOM     13  H   UNL     1      50.804  -0.055  18.190  0.00  0.00    +0.000 HD
ENDBRANCH   2  10
ENDBRANCH   1   7
BRANCH   1  14
ATOM     14  C   UNL     1      47.595   4.119  15.523  0.00  0.00    +0.000 C 
BRANCH  14  15
ATOM     15  O   UNL     1      47.382   3.325  14.344  0.00  0.00    +0.000 OA
BRANCH  15  16
ATOM     16  C   UNL     1      46.321   3.820  13.602  0.00  0.00    +0.000 A 
ATOM     17  C   UNL     1      46.029   5.173  13.697  0.00  0.00    +0.000 A 
ATOM     18  C   UNL     1      44.969   5.682  12.928  0.00  0.00    +0.000 A 
ATOM     19  C   UNL     1      44.246   4.817  12.100  0.00  0.00    +0.000 A 
ATOM     20  C   UNL     1      44.621   3.484  12.071  0.00  0.00    +0.000 A 
ATOM     21  N   UNL     1      45.630   2.973  12.809  0.00  0.00    +0.000 NA
BRANCH  19  22
ATOM     22  C   UNL     1      43.144   5.227  11.206  0.00  0.00    +0.000 C 
ATOM     23  O   UNL     1      42.081   5.648  11.629  0.00  0.00    +0.000 OA
BRANCH  22  24
ATOM     24  O   UNL     1      43.426   5.137   9.891  0.00  0.00    +0.000 OA
ATOM     25  H   UNL     1      44.230   5.600   9.595  0.00  0.00    +0.000 HD
ENDBRANCH  22  24
ENDBRANCH  19  22
ENDBRANCH  15  16
ENDBRANCH  14  15
ENDBRANCH   1  14
TORSDOF 7
ENDMDL
MODEL 7
REMARK VINA RESULT:    -6.624      2.247      6.697
REMARK INTER + INTRA:          -9.857
REMARK INTER:                  -9.249
REMARK INTRA:                  -0.608
REMARK UNBOUND:                -0.716
REMARK  Name = 
REMARK  7 active torsions:
REMARK  status: ('A' for Active; 'I' for Inactive)
REMARK    1  A    between atoms: C_2  and  C_4
REMARK    2  A    between atoms: C_9  and  C_10
REMARK    3  A    between atoms: C_10  and  C_11
REMARK    4  A    between atoms: C_11  and  O_12
REMARK    5  A    between atoms: O_12  and  C_13
REMARK    6  A    between atoms: C_16  and  C_17
REMARK    7  A    between atoms: C_17  and  O_19
REMARK                            x       y       z     vdW  Elec       q    Type
REMARK                         _______ _______ _______ _____ _____    ______ ____
ROOT
ATOM      1  C   UNL     1      44.899   6.961  11.323  0.00  0.00    +0.000 C 
ENDROOT
BRANCH   1   7
ATOM      2  C   UNL     1      45.287   3.827   9.165  0.00  0.00    +0.000 A 
ATOM      3  C   UNL     1      44.466   2.907   9.821  0.00  0.00    +0.000 A 
ATOM      4  C   UNL     1      43.765   3.298  10.965  0.00  0.00    +0.000 A 
ATOM      5  C   UNL     1      43.877   4.605  11.458  0.00  0.00    +0.000 A 
ATOM      6 CL   UNL     1      42.997   4.990  12.892  0.00  0.00    +0.000 Cl
ATOM      7  C   UNL     1      44.694   5.547  10.811  0.00  0.00    +0.000 A 
ATOM      8  C   UNL     1      45.408   5.133   9.668  0.00  0.00    +0.000 A 
BRANCH   2  10
ATOM      9  N   UNL     1      46.348   2.129   7.774  0.00  0.00    +0.000 N 
ATOM     10  C   UNL     1      46.071   3.456   7.958  0.00  0.00    +0.000 C 
ATOM     11  O   UNL     1      46.424   4.294   7.139  0.00  0.00    +0.000 OA
ATOM     12  H   UNL     1      46.790   1.883   6.897  0.00  0.00    +0.000 HD
ATOM     13  H   UNL     1      45.876   1.396   8.282  0.00  0.00    +0.000 HD
ENDBRANCH   2  10
ENDBRANCH   1   7
BRANCH   1  14
ATOM     14  C   UNL     1      45.603   6.954  12.680  0.00  0.00    +0.000 C 
BRANCH  14  15
ATOM     15  O   UNL     1      46.905   6.349  12.600  0.00  0.00    +0.000 OA
BRANCH  15  16
ATOM     16  C   UNL     1      47.161   5.581  13.726  0.00  0.00    +0.000 A 
ATOM     17  C   UNL     1      47.901   6.149  14.753  0.00  0.00    +0.000 A 
ATOM     18  C   UNL     1      48.141   5.381  15.905  0.00  0.00    +0.000 A 
ATOM     19  C   UNL     1      47.633   4.079  15.980  0.00  0.00    +0.000 A 
ATOM     20  C   UNL     1      46.899   3.608  14.903  0.00  0.00    +0.000 A 
ATOM     21  N   UNL     1      46.666   4.325  13.783  0.00  0.00    +0.000 NA
BRANCH  19  22
ATOM     22  C   UNL     1      47.769   3.185  17.147  0.00  0.00    +0.000 C 
ATOM     23  O   UNL     1      48.854   2.833  17.577  0.00  0.00    +0.000 OA
BRANCH  22  24
ATOM     24  O   UNL     1      46.601   2.825  17.717  0.00  0.00    +0.000 OA
ATOM     25  H   UNL     1      46.190   3.489  18.300  0.00  0.00    +0.000 HD
ENDBRANCH  22  24
ENDBRANCH  19  22
ENDBRANCH  15  16
ENDBRANCH  14  15
ENDBRANCH   1  14
TORSDOF 7
ENDMDL
MODEL 8
REMARK VINA RESULT:    -6.409      3.450      7.532
REMARK INTER + INTRA:          -9.560
REMARK INTER:                  -9.048
REMARK INTRA:                  -0.512
REMARK UNBOUND:                -0.716
REMARK  Name = 
REMARK  7 active torsions:
REMARK  status: ('A' for Active; 'I' for Inactive)
REMARK    1  A    between atoms: C_2  and  C_4
REMARK    2  A    between atoms: C_9  and  C_10
REMARK    3  A    between atoms: C_10  and  C_11
REMARK    4  A    between atoms: C_11  and  O_12
REMARK    5  A    between atoms: O_12  and  C_13
REMARK    6  A    between atoms: C_16  and  C_17
REMARK    7  A    between atoms: C_17  and  O_19
REMARK                            x       y       z     vdW  Elec       q    Type
REMARK                         _______ _______ _______ _____ _____    ______ ____
ROOT
ATOM      1  C   UNL     1      47.551   5.613  14.351  0.00  0.00    +0.000 C 
ENDROOT
BRANCH   1   7
ATOM      2  C   UNL     1      45.062   4.220  11.803  0.00  0.00    +0.000 A 
ATOM      3  C   UNL     1      45.181   5.121  10.743  0.00  0.00    +0.000 A 
ATOM      4  C   UNL     1      46.081   6.185  10.837  0.00  0.00    +0.000 A 
ATOM      5  C   UNL     1      46.868   6.354  11.985  0.00  0.00    +0.000 A 
ATOM      6 CL   UNL     1      47.932   7.712  12.024  0.00  0.00    +0.000 Cl
ATOM      7  C   UNL     1      46.767   5.456  13.061  0.00  0.00    +0.000 A 
ATOM      8  C   UNL     1      45.842   4.398  12.958  0.00  0.00    +0.000 A 
BRANCH   2  10
ATOM      9  N   UNL     1      43.980   2.410  10.579  0.00  0.00    +0.000 N 
ATOM     10  C   UNL     1      44.104   3.084  11.763  0.00  0.00    +0.000 C 
ATOM     11  O   UNL     1      43.476   2.738  12.755  0.00  0.00    +0.000 OA
ATOM     12  H   UNL     1      43.404   1.578  10.598  0.00  0.00    +0.000 HD
ATOM     13  H   UNL     1      44.643   2.502   9.825  0.00  0.00    +0.000 HD
ENDBRANCH   2  10
ENDBRANCH   1   7
BRANCH   1  14
ATOM     14  C   UNL     1      47.161   4.534  15.361  0.00  0.00    +0.000 C 
BRANCH  14  15
ATOM     15  O   UNL     1      47.698   4.811  16.667  0.00  0.00    +0.000 OA
BRANCH  15  16
ATOM     16  C   UNL     1      48.820   4.035  16.912  0.00  0.00    +0.000 A 
ATOM     17  C   UNL     1      49.946   4.656  17.434  0.00  0.00    +0.000 A 
ATOM     18  C   UNL     1      51.076   3.867  17.706  0.00  0.00    +0.000 A 
ATOM     19  C   UNL     1      51.034   2.493  17.443  0.00  0.00    +0.000 A 
ATOM     20  C   UNL     1      49.859   1.969  16.928  0.00  0.00    +0.000 A 
ATOM     21  N   UNL     1      48.766   2.711  16.651  0.00  0.00    +0.000 NA
BRANCH  19  22
ATOM     22  C   UNL     1      52.130   1.544  17.725  0.00  0.00    +0.000 C 
ATOM     23  O   UNL     1      53.304   1.854  17.624  0.00  0.00    +0.000 OA
BRANCH  22  24
ATOM     24  O   UNL     1      51.724   0.327  18.140  0.00  0.00    +0.000 OA
ATOM     25  H   UNL     1      51.637   0.213  19.104  0.00  0.00    +0.000 HD
ENDBRANCH  22  24
ENDBRANCH  19  22
ENDBRANCH  15  16
ENDBRANCH  14  15
ENDBRANCH   1  14
TORSDOF 7
ENDMDL
MODEL 9
REMARK VINA RESULT:    -6.261      3.064      7.592
REMARK INTER + INTRA:          -9.357
REMARK INTER:                  -8.923
REMARK INTRA:                  -0.434
REMARK UNBOUND:                -0.716
REMARK  Name = 
REMARK  7 active torsions:
REMARK  status: ('A' for Active; 'I' for Inactive)
REMARK    1  A    between atoms: C_2  and  C_4
REMARK    2  A    between atoms: C_9  and  C_10
REMARK    3  A    between atoms: C_10  and  C_11
REMARK    4  A    between atoms: C_11  and  O_12
REMARK    5  A    between atoms: O_12  and  C_13
REMARK    6  A    between atoms: C_16  and  C_17
REMARK    7  A    between atoms: C_17  and  O_19
REMARK                            x       y       z     vdW  Elec       q    Type
REMARK                         _______ _______ _______ _____ _____    ______ ____
ROOT
ATOM      1  C   UNL     1      47.146   6.349  12.187  0.00  0.00    +0.000 C 
ENDROOT
BRANCH   1   7
ATOM      2  C   UNL     1      44.066   4.317  11.180  0.00  0.00    +0.000 A 
ATOM      3  C   UNL     1      43.080   5.300  11.075  0.00  0.00    +0.000 A 
ATOM      4  C   UNL     1      43.406   6.636  11.317  0.00  0.00    +0.000 A 
ATOM      5  C   UNL     1      44.715   7.000  11.661  0.00  0.00    +0.000 A 
ATOM      6 CL   UNL     1      45.019   8.671  11.968  0.00  0.00    +0.000 Cl
ATOM      7  C   UNL     1      45.723   6.028  11.768  0.00  0.00    +0.000 A 
ATOM      8  C   UNL     1      45.375   4.682  11.538  0.00  0.00    +0.000 A 
BRANCH   2  10
ATOM      9  N   UNL     1      44.493   2.229   9.995  0.00  0.00    +0.000 N 
ATOM     10  C   UNL     1      43.767   2.878  10.955  0.00  0.00    +0.000 C 
ATOM     11  O   UNL     1      42.932   2.284  11.625  0.00  0.00    +0.000 OA
ATOM     12  H   UNL     1      44.351   1.229   9.927  0.00  0.00    +0.000 HD
ATOM     13  H   UNL     1      45.341   2.608   9.600  0.00  0.00    +0.000 HD
ENDBRANCH   2  10
ENDBRANCH   1   7
BRANCH   1  14
ATOM     14  C   UNL     1      47.321   6.182  13.697  0.00  0.00    +0.000 C 
BRANCH  14  15
ATOM     15  O   UNL     1      47.438   4.797  14.068  0.00  0.00    +0.000 OA
BRANCH  15  16
ATOM     16  C   UNL     1      47.728   4.672  15.418  0.00  0.00    +0.000 A 
ATOM     17  C   UNL     1      47.131   3.637  16.125  0.00  0.00    +0.000 A 
ATOM     18  C   UNL     1      47.442   3.495  17.487  0.00  0.00    +0.000 A 
ATOM     19  C   UNL     1      48.333   4.393  18.085  0.00  0.00    +0.000 A 
ATOM     20  C   UNL     1      48.880   5.387  17.291  0.00  0.00    +0.000 A 
ATOM     21  N   UNL     1      48.588   5.548  15.983  0.00  0.00    +0.000 NA
BRANCH  19  22
ATOM     22  C   UNL     1      48.783   4.328  19.491  0.00  0.00    +0.000 C 
ATOM     23  O   UNL     1      49.531   5.159  19.976  0.00  0.00    +0.000 OA
BRANCH  22  24
ATOM     24  O   UNL     1      48.266   3.303  20.198  0.00  0.00    +0.000 OA
ATOM     25  H   UNL     1      48.902   2.627  20.494  0.00  0.00    +0.000 HD
ENDBRANCH  22  24
ENDBRANCH  19  22
ENDBRANCH  15  16
ENDBRANCH  14  15
ENDBRANCH   1  14
TORSDOF 7
ENDMDL
