MODEL 1
REMARK VINA RESULT:    -8.240      0.000      0.000
REMARK INTER + INTRA:         -12.165
REMARK INTER:                 -11.130
REMARK INTRA:                  -1.035
REMARK UNBOUND:                -1.035
REMARK  Name = 
REMARK  6 active torsions:
REMARK  status: ('A' for Active; 'I' for Inactive)
REMARK    1  A    between atoms: C_5  and  O_6
REMARK    2  A    between atoms: O_6  and  C_7
REMARK    3  A    between atoms: C_7  and  C_8
REMARK    4  A    between atoms: C_8  and  C_11
REMARK    5  A    between atoms: C_15  and  O_16
REMARK    6  A    between atoms: O_16  and  C_17
REMARK                            x       y       z     vdW  Elec       q    Type
REMARK                         _______ _______ _______ _____ _____    ______ ____
ROOT
ATOM      1  C   UNL     1      44.181   4.187  12.113  0.00  0.00    +0.000 C 
ATOM      2  F   UNL     1      43.138   4.587  12.899  0.00  0.00    +0.000 F 
ATOM      3  F   UNL     1      44.318   2.848  12.345  0.00  0.00    +0.000 F 
ENDROOT
BRANCH   1   4
ATOM      4  C   UNL     1      45.456   4.942  12.442  0.00  0.00    +0.000 A 
ATOM      5  C   UNL     1      45.933   5.945  11.586  0.00  0.00    +0.000 A 
ATOM      6  C   UNL     1      47.090   6.658  11.906  0.00  0.00    +0.000 A 
ATOM      7  C   UNL     1      47.792   6.379  13.082  0.00  0.00    +0.000 A 
ATOM      8  C   UNL     1      47.335   5.378  13.936  0.00  0.00    +0.000 A 
ATOM      9  C   UNL     1      46.171   4.670  13.619  0.00  0.00    +0.000 A 
BRANCH   8  10
ATOM     10  O   UNL     1      47.918   5.033  15.129  0.00  0.00    +0.000 OA
BRANCH  10  11
ATOM     11  C   UNL     1      47.201   4.188  16.057  0.00  0.00    +0.000 C 
ATOM     12  C   UNL     1      47.199   4.583  17.550  0.00  0.00    +0.000 C 
ATOM     13  N   UNL     1      47.559   3.200  17.919  0.00  0.00    +0.000 NA
ATOM     14  C   UNL     1      47.991   2.947  16.532  0.00  0.00    +0.000 C 
ATOM     15  H   UNL     1      46.768   2.627  18.213  0.00  0.00    +0.000 HD
ENDBRANCH  10  11
ENDBRANCH   8  10
ENDBRANCH   1   4
BRANCH   1  16
ATOM     16  C   UNL     1      43.796   4.398  10.636  0.00  0.00    +0.000 C 
BRANCH  16  17
ATOM     17  O   UNL     1      43.788   3.149   9.928  0.00  0.00    +0.000 OA
BRANCH  17  22
ATOM     18  F   UNL     1      47.974   2.617   6.407  0.00  0.00    +0.000 F 
ATOM     19  C   UNL     1      46.953   2.719   7.267  0.00  0.00    +0.000 A 
ATOM     20  C   UNL     1      46.472   1.575   7.897  0.00  0.00    +0.000 A 
ATOM     21  C   UNL     1      45.406   1.673   8.798  0.00  0.00    +0.000 A 
ATOM     22  C   UNL     1      44.827   2.916   9.065  0.00  0.00    +0.000 A 
ATOM     23  C   UNL     1      45.322   4.056   8.420  0.00  0.00    +0.000 A 
ATOM     24  C   UNL     1      46.386   3.960   7.521  0.00  0.00    +0.000 A 
ENDBRANCH  17  22
ENDBRANCH  16  17
ENDBRANCH   1  16
TORSDOF 6
ENDMDL
MODEL 2
REMARK VINA RESULT:    -7.127      3.486      7.641
REMARK INTER + INTRA:         -10.662
REMARK INTER:                 -10.069
REMARK INTRA:                  -0.593
REMARK UNBOUND:                -1.035
REMARK  Name = 
REMARK  6 active torsions:
REMARK  status: ('A' for Active; 'I' for Inactive)
REMARK    1  A    between atoms: C_5  and  O_6
REMARK    2  A    between atoms: O_6  and  C_7
REMARK    3  A    between atoms: C_7  and  C_8
REMARK    4  A    between atoms: C_8  and  C_11
REMARK    5  A    between atoms: C_15  and  O_16
REMARK    6  A    between atoms: O_16  and  C_17
REMARK                            x       y       z     vdW  Elec       q    Type
REMARK                         _______ _______ _______ _____ _____    ______ ____
ROOT
ATOM      1  C   UNL     1      45.147   5.991  11.449  0.00  0.00    +0.000 C 
ATOM      2  F   UNL     1      43.992   6.720  11.495  0.00  0.00    +0.000 F 
ATOM      3  F   UNL     1      46.099   6.851  10.977  0.00  0.00    +0.000 F 
ENDROOT
BRANCH   1   4
ATOM      4  C   UNL     1      45.009   4.770  10.558  0.00  0.00    +0.000 A 
ATOM      5  C   UNL     1      44.293   3.646  10.994  0.00  0.00    +0.000 A 
ATOM      6  C   UNL     1      44.142   2.536  10.160  0.00  0.00    +0.000 A 
ATOM      7  C   UNL     1      44.707   2.528   8.882  0.00  0.00    +0.000 A 
ATOM      8  C   UNL     1      45.429   3.634   8.441  0.00  0.00    +0.000 A 
ATOM      9  C   UNL     1      45.573   4.750   9.273  0.00  0.00    +0.000 A 
BRANCH   8  10
ATOM     10  O   UNL     1      46.003   3.757   7.201  0.00  0.00    +0.000 OA
BRANCH  10  11
ATOM     11  C   UNL     1      46.486   2.580   6.516  0.00  0.00    +0.000 C 
ATOM     12  C   UNL     1      47.780   1.915   7.032  0.00  0.00    +0.000 C 
ATOM     13  N   UNL     1      48.310   1.870   5.656  0.00  0.00    +0.000 NA
ATOM     14  C   UNL     1      47.314   2.875   5.244  0.00  0.00    +0.000 C 
ATOM     15  H   UNL     1      48.196   0.966   5.194  0.00  0.00    +0.000 HD
ENDBRANCH  10  11
ENDBRANCH   8  10
ENDBRANCH   1   4
BRANCH   1  16
ATOM     16  C   UNL     1      45.525   5.572  12.883  0.00  0.00    +0.000 C 
BRANCH  16  17
ATOM     17  O   UNL     1      46.951   5.495  13.033  0.00  0.00    +0.000 OA
BRANCH  17  22
ATOM     18  F   UNL     1      48.703   4.882  18.205  0.00  0.00    +0.000 F 
ATOM     19  C   UNL     1      48.290   5.056  16.943  0.00  0.00    +0.000 A 
ATOM     20  C   UNL     1      48.771   6.135  16.208  0.00  0.00    +0.000 A 
ATOM     21  C   UNL     1      48.344   6.323  14.889  0.00  0.00    +0.000 A 
ATOM     22  C   UNL     1      47.439   5.429  14.311  0.00  0.00    +0.000 A 
ATOM     23  C   UNL     1      46.963   4.350  15.067  0.00  0.00    +0.000 A 
ATOM     24  C   UNL     1      47.388   4.162  16.384  0.00  0.00    +0.000 A 
ENDBRANCH  17  22
ENDBRANCH  16  17
ENDBRANCH   1  16
TORSDOF 6
ENDMDL
MODEL 3
REMARK VINA RESULT:    -6.959      1.331      1.648
REMARK INTER + INTRA:         -10.436
REMARK INTER:                  -9.827
REMARK INTRA:                  -0.609
REMARK UNBOUND:                -1.035
REMARK  Name = 
REMARK  6 active torsions:
REMARK  status: ('A' for Active; 'I' for Inactive)
REMARK    1  A    between atoms: C_5  and  O_6
REMARK    2  A    between atoms: O_6  and  C_7
REMARK    3  A    between atoms: C_7  and  C_8
REMARK    4  A    between atoms: C_8  and  C_11
REMARK    5  A    between atoms: C_15  and  O_16
REMARK    6  A    between atoms: O_16  and  C_17
REMARK                            x       y       z     vdW  Elec       q    Type
REMARK                         _______ _______ _______ _____ _____    ______ ____
ROOT
ATOM      1  C   UNL     1      45.150   6.099  11.605  0.00  0.00    +0.000 C 
ATOM      2  F   UNL     1      45.518   6.599  10.389  0.00  0.00    +0.000 F 
ATOM      3  F   UNL     1      44.026   6.791  11.957  0.00  0.00    +0.000 F 
ENDROOT
BRANCH   1   4
ATOM      4  C   UNL     1      46.250   6.261  12.638  0.00  0.00    +0.000 A 
ATOM      5  C   UNL     1      46.931   7.480  12.770  0.00  0.00    +0.000 A 
ATOM      6  C   UNL     1      47.922   7.636  13.742  0.00  0.00    +0.000 A 
ATOM      7  C   UNL     1      48.253   6.577  14.593  0.00  0.00    +0.000 A 
ATOM      8  C   UNL     1      47.591   5.359  14.465  0.00  0.00    +0.000 A 
ATOM      9  C   UNL     1      46.592   5.206  13.498  0.00  0.00    +0.000 A 
BRANCH   8  10
ATOM     10  O   UNL     1      47.805   4.259  15.257  0.00  0.00    +0.000 OA
BRANCH  10  11
ATOM     11  C   UNL     1      47.109   4.139  16.518  0.00  0.00    +0.000 C 
ATOM     12  C   UNL     1      47.604   4.988  17.709  0.00  0.00    +0.000 C 
ATOM     13  N   UNL     1      47.579   3.794  18.574  0.00  0.00    +0.000 NA
ATOM     14  C   UNL     1      47.548   2.932  17.379  0.00  0.00    +0.000 C 
ATOM     15  H   UNL     1      46.745   3.718  19.157  0.00  0.00    +0.000 HD
ENDBRANCH  10  11
ENDBRANCH   8  10
ENDBRANCH   1   4
BRANCH   1  16
ATOM     16  C   UNL     1      44.784   4.611  11.438  0.00  0.00    +0.000 C 
BRANCH  16  17
ATOM     17  O   UNL     1      44.231   4.366  10.136  0.00  0.00    +0.000 OA
BRANCH  17  22
ATOM     18  F   UNL     1      47.329   1.595   6.541  0.00  0.00    +0.000 F 
ATOM     19  C   UNL     1      46.565   2.246   7.427  0.00  0.00    +0.000 A 
ATOM     20  C   UNL     1      45.881   1.524   8.401  0.00  0.00    +0.000 A 
ATOM     21  C   UNL     1      45.082   2.198   9.331  0.00  0.00    +0.000 A 
ATOM     22  C   UNL     1      44.971   3.590   9.283  0.00  0.00    +0.000 A 
ATOM     23  C   UNL     1      45.664   4.299   8.294  0.00  0.00    +0.000 A 
ATOM     24  C   UNL     1      46.463   3.628   7.365  0.00  0.00    +0.000 A 
ENDBRANCH  17  22
ENDBRANCH  16  17
ENDBRANCH   1  16
TORSDOF 6
ENDMDL
MODEL 4
REMARK VINA RESULT:    -6.717      3.859      7.408
REMARK INTER + INTRA:         -10.108
REMARK INTER:                  -9.484
REMARK INTRA:                  -0.624
REMARK UNBOUND:                -1.035
REMARK  Name = 
REMARK  6 active torsions:
REMARK  status: ('A' for Active; 'I' for Inactive)
REMARK    1  A    between atoms: C_5  and  O_6
REMARK    2  A    between atoms: O_6  and  C_7
REMARK    3  A    between atoms: C_7  and  C_8
REMARK    4  A    between atoms: C_8  and  C_11
REMARK    5  A    between atoms: C_15  and  O_16
REMARK    6  A    between atoms: O_16  and  C_17
REMARK                            x       y       z     vdW  Elec       q    Type
REMARK                         _______ _______ _______ _____ _____    ______ ____
ROOT
ATOM      1  C   UNL     1      45.250   6.034  11.423  0.00  0.00    +0.000 C 
ATOM      2  F   UNL     1      44.939   5.760  12.725  0.00  0.00    +0.000 F 
ATOM      3  F   UNL     1      44.404   7.041  11.052  0.00  0.00    +0.000 F 
ENDROOT
BRANCH   1   4
ATOM      4  C   UNL     1      45.086   4.814  10.535  0.00  0.00    +0.000 A 
ATOM      5  C   UNL     1      44.381   3.690  10.989  0.00  0.00    +0.000 A 
ATOM      6  C   UNL     1      44.207   2.581  10.159  0.00  0.00    +0.000 A 
ATOM      7  C   UNL     1      44.737   2.573   8.866  0.00  0.00    +0.000 A 
ATOM      8  C   UNL     1      45.449   3.679   8.407  0.00  0.00    +0.000 A 
ATOM      9  C   UNL     1      45.616   4.794   9.235  0.00  0.00    +0.000 A 
BRANCH   8  10
ATOM     10  O   UNL     1      45.990   3.802   7.152  0.00  0.00    +0.000 OA
BRANCH  10  11
ATOM     11  C   UNL     1      46.501   2.632   6.474  0.00  0.00    +0.000 C 
ATOM     12  C   UNL     1      47.769   1.957   7.041  0.00  0.00    +0.000 C 
ATOM     13  N   UNL     1      48.360   1.928   5.690  0.00  0.00    +0.000 NA
ATOM     14  C   UNL     1      47.386   2.941   5.245  0.00  0.00    +0.000 C 
ATOM     15  H   UNL     1      48.265   1.031   5.212  0.00  0.00    +0.000 HD
ENDBRANCH  10  11
ENDBRANCH   8  10
ENDBRANCH   1   4
BRANCH   1  16
ATOM     16  C   UNL     1      46.698   6.556  11.360  0.00  0.00    +0.000 C 
BRANCH  16  17
ATOM     17  O   UNL     1      47.460   6.080  12.481  0.00  0.00    +0.000 OA
BRANCH  17  22
ATOM     18  F   UNL     1      51.894   9.146  13.552  0.00  0.00    +0.000 F 
ATOM     19  C   UNL     1      50.813   8.391  13.317  0.00  0.00    +0.000 A 
ATOM     20  C   UNL     1      50.165   7.774  14.383  0.00  0.00    +0.000 A 
ATOM     21  C   UNL     1      49.035   6.985  14.147  0.00  0.00    +0.000 A 
ATOM     22  C   UNL     1      48.556   6.817  12.844  0.00  0.00    +0.000 A 
ATOM     23  C   UNL     1      49.223   7.444  11.784  0.00  0.00    +0.000 A 
ATOM     24  C   UNL     1      50.351   8.232  12.019  0.00  0.00    +0.000 A 
ENDBRANCH  17  22
ENDBRANCH  16  17
ENDBRANCH   1  16
TORSDOF 6
ENDMDL
MODEL 5
REMARK VINA RESULT:    -6.625      2.309      3.172
REMARK INTER + INTRA:          -9.984
REMARK INTER:                  -9.156
REMARK INTRA:                  -0.828
REMARK UNBOUND:                -1.035
REMARK  Name = 
REMARK  6 active torsions:
REMARK  status: ('A' for Active; 'I' for Inactive)
REMARK    1  A    between atoms: C_5  and  O_6
REMARK    2  A    between atoms: O_6  and  C_7
REMARK    3  A    between atoms: C_7  and  C_8
REMARK    4  A    between atoms: C_8  and  C_11
REMARK    5  A    between atoms: C_15  and  O_16
REMARK    6  A    between atoms: O_16  and  C_17
REMARK                            x       y       z     vdW  Elec       q    Type
REMARK                         _______ _______ _______ _____ _____    ______ ____
ROOT
ATOM      1  C   UNL     1      44.405   5.133  11.272  0.00  0.00    +0.000 C 
ATOM      2  F   UNL     1      44.750   5.998  10.273  0.00  0.00    +0.000 F 
ATOM      3  F   UNL     1      43.241   5.626  11.793  0.00  0.00    +0.000 F 
ENDROOT
BRANCH   1   4
ATOM      4  C   UNL     1      45.489   5.031  12.329  0.00  0.00    +0.000 A 
ATOM      5  C   UNL     1      45.813   3.793  12.901  0.00  0.00    +0.000 A 
ATOM      6  C   UNL     1      46.832   3.698  13.852  0.00  0.00    +0.000 A 
ATOM      7  C   UNL     1      47.538   4.836  14.250  0.00  0.00    +0.000 A 
ATOM      8  C   UNL     1      47.218   6.073  13.698  0.00  0.00    +0.000 A 
ATOM      9  C   UNL     1      46.204   6.167  12.739  0.00  0.00    +0.000 A 
BRANCH   8  10
ATOM     10  O   UNL     1      47.856   7.254  13.985  0.00  0.00    +0.000 OA
BRANCH  10  11
ATOM     11  C   UNL     1      49.257   7.407  13.661  0.00  0.00    +0.000 C 
ATOM     12  C   UNL     1      49.854   8.831  13.663  0.00  0.00    +0.000 C 
ATOM     13  N   UNL     1      50.472   8.577  12.348  0.00  0.00    +0.000 NA
ATOM     14  C   UNL     1      49.563   7.434  12.146  0.00  0.00    +0.000 C 
ATOM     15  H   UNL     1      51.457   8.315  12.394  0.00  0.00    +0.000 HD
ENDBRANCH  10  11
ENDBRANCH   8  10
ENDBRANCH   1   4
BRANCH   1  16
ATOM     16  C   UNL     1      44.124   3.750  10.654  0.00  0.00    +0.000 C 
BRANCH  16  17
ATOM     17  O   UNL     1      44.116   3.824   9.220  0.00  0.00    +0.000 OA
BRANCH  17  22
ATOM     18  F   UNL     1      48.231   1.528   6.392  0.00  0.00    +0.000 F 
ATOM     19  C   UNL     1      47.222   2.063   7.091  0.00  0.00    +0.000 A 
ATOM     20  C   UNL     1      46.508   1.265   7.980  0.00  0.00    +0.000 A 
ATOM     21  C   UNL     1      45.453   1.817   8.715  0.00  0.00    +0.000 A 
ATOM     22  C   UNL     1      45.117   3.164   8.558  0.00  0.00    +0.000 A 
ATOM     23  C   UNL     1      45.845   3.950   7.656  0.00  0.00    +0.000 A 
ATOM     24  C   UNL     1      46.898   3.401   6.922  0.00  0.00    +0.000 A 
ENDBRANCH  17  22
ENDBRANCH  16  17
ENDBRANCH   1  16
TORSDOF 6
ENDMDL
MODEL 6
REMARK VINA RESULT:    -6.491      2.074      2.623
REMARK INTER + INTRA:          -9.804
REMARK INTER:                  -9.219
REMARK INTRA:                  -0.584
REMARK UNBOUND:                -1.035
REMARK  Name = 
REMARK  6 active torsions:
REMARK  status: ('A' for Active; 'I' for Inactive)
REMARK    1  A    between atoms: C_5  and  O_6
REMARK    2  A    between atoms: O_6  and  C_7
REMARK    3  A    between atoms: C_7  and  C_8
REMARK    4  A    between atoms: C_8  and  C_11
REMARK    5  A    between atoms: C_15  and  O_16
REMARK    6  A    between atoms: O_16  and  C_17
REMARK                            x       y       z     vdW  Elec       q    Type
REMARK                         _______ _______ _______ _____ _____    ______ ____
ROOT
ATOM      1  C   UNL     1      45.338   5.642  12.402  0.00  0.00    +0.000 C 
ATOM      2  F   UNL     1      44.437   6.223  13.250  0.00  0.00    +0.000 F 
ATOM      3  F   UNL     1      45.339   4.315  12.728  0.00  0.00    +0.000 F 
ENDROOT
BRANCH   1   4
ATOM      4  C   UNL     1      46.720   6.252  12.543  0.00  0.00    +0.000 A 
ATOM      5  C   UNL     1      47.275   7.012  11.504  0.00  0.00    +0.000 A 
ATOM      6  C   UNL     1      48.535   7.597  11.649  0.00  0.00    +0.000 A 
ATOM      7  C   UNL     1      49.263   7.428  12.830  0.00  0.00    +0.000 A 
ATOM      8  C   UNL     1      48.728   6.667  13.866  0.00  0.00    +0.000 A 
ATOM      9  C   UNL     1      47.462   6.088  13.724  0.00  0.00    +0.000 A 
BRANCH   8  10
ATOM     10  O   UNL     1      49.330   6.454  15.080  0.00  0.00    +0.000 OA
BRANCH  10  11
ATOM     11  C   UNL     1      49.379   7.523  16.052  0.00  0.00    +0.000 C 
ATOM     12  C   UNL     1      48.638   7.325  17.392  0.00  0.00    +0.000 C 
ATOM     13  N   UNL     1      48.018   8.656  17.248  0.00  0.00    +0.000 NA
ATOM     14  C   UNL     1      48.353   8.653  15.812  0.00  0.00    +0.000 C 
ATOM     15  H   UNL     1      48.486   9.394  17.776  0.00  0.00    +0.000 HD
ENDBRANCH  10  11
ENDBRANCH   8  10
ENDBRANCH   1   4
BRANCH   1  16
ATOM     16  C   UNL     1      44.826   5.797  10.956  0.00  0.00    +0.000 C 
BRANCH  16  17
ATOM     17  O   UNL     1      44.259   4.566  10.482  0.00  0.00    +0.000 OA
BRANCH  17  22
ATOM     18  F   UNL     1      46.913   1.526   6.752  0.00  0.00    +0.000 F 
ATOM     19  C   UNL     1      46.278   2.289   7.650  0.00  0.00    +0.000 A 
ATOM     20  C   UNL     1      46.347   3.675   7.540  0.00  0.00    +0.000 A 
ATOM     21  C   UNL     1      45.684   4.480   8.473  0.00  0.00    +0.000 A 
ATOM     22  C   UNL     1      44.956   3.894   9.512  0.00  0.00    +0.000 A 
ATOM     23  C   UNL     1      44.900   2.498   9.608  0.00  0.00    +0.000 A 
ATOM     24  C   UNL     1      45.560   1.694   8.677  0.00  0.00    +0.000 A 
ENDBRANCH  17  22
ENDBRANCH  16  17
ENDBRANCH   1  16
TORSDOF 6
ENDMDL
MODEL 7
REMARK VINA RESULT:    -6.292      3.387      7.537
REMARK INTER + INTRA:          -9.534
REMARK INTER:                  -9.129
REMARK INTRA:                  -0.405
REMARK UNBOUND:                -1.035
REMARK  Name = 
REMARK  6 active torsions:
REMARK  status: ('A' for Active; 'I' for Inactive)
REMARK    1  A    between atoms: C_5  and  O_6
REMARK    2  A    between atoms: O_6  and  C_7
REMARK    3  A    between atoms: C_7  and  C_8
REMARK    4  A    between atoms: C_8  and  C_11
REMARK    5  A    between atoms: C_15  and  O_16
REMARK    6  A    between atoms: O_16  and  C_17
REMARK                            x       y       z     vdW  Elec       q    Type
REMARK                         _______ _______ _______ _____ _____    ______ ____
ROOT
ATOM      1  C   UNL     1      46.840   4.406  13.580  0.00  0.00    +0.000 C 
ATOM      2  F   UNL     1      47.804   5.255  13.115  0.00  0.00    +0.000 F 
ATOM      3  F   UNL     1      47.391   3.158  13.510  0.00  0.00    +0.000 F 
ENDROOT
BRANCH   1   4
ATOM      4  C   UNL     1      45.565   4.498  12.762  0.00  0.00    +0.000 A 
ATOM      5  C   UNL     1      44.714   5.605  12.889  0.00  0.00    +0.000 A 
ATOM      6  C   UNL     1      43.556   5.701  12.113  0.00  0.00    +0.000 A 
ATOM      7  C   UNL     1      43.228   4.692  11.203  0.00  0.00    +0.000 A 
ATOM      8  C   UNL     1      44.059   3.583  11.075  0.00  0.00    +0.000 A 
ATOM      9  C   UNL     1      45.223   3.491  11.846  0.00  0.00    +0.000 A 
BRANCH   8  10
ATOM     10  O   UNL     1      43.861   2.546  10.199  0.00  0.00    +0.000 OA
BRANCH  10  11
ATOM     11  C   UNL     1      44.388   2.632   8.856  0.00  0.00    +0.000 C 
ATOM     12  C   UNL     1      45.758   1.981   8.567  0.00  0.00    +0.000 C 
ATOM     13  N   UNL     1      46.203   3.213   7.889  0.00  0.00    +0.000 NA
ATOM     14  C   UNL     1      45.111   3.961   8.537  0.00  0.00    +0.000 C 
ATOM     15  H   UNL     1      46.130   3.179   6.872  0.00  0.00    +0.000 HD
ENDBRANCH  10  11
ENDBRANCH   8  10
ENDBRANCH   1   4
BRANCH   1  16
ATOM     16  C   UNL     1      46.557   4.741  15.057  0.00  0.00    +0.000 C 
BRANCH  16  17
ATOM     17  O   UNL     1      46.885   3.629  15.904  0.00  0.00    +0.000 OA
BRANCH  17  22
ATOM     18  F   UNL     1      51.816   3.349  18.314  0.00  0.00    +0.000 F 
ATOM     19  C   UNL     1      50.613   3.444  17.734  0.00  0.00    +0.000 A 
ATOM     20  C   UNL     1      50.000   4.689  17.630  0.00  0.00    +0.000 A 
ATOM     21  C   UNL     1      48.744   4.797  17.024  0.00  0.00    +0.000 A 
ATOM     22  C   UNL     1      48.106   3.658  16.524  0.00  0.00    +0.000 A 
ATOM     23  C   UNL     1      48.737   2.413  16.640  0.00  0.00    +0.000 A 
ATOM     24  C   UNL     1      49.991   2.304  17.245  0.00  0.00    +0.000 A 
ENDBRANCH  17  22
ENDBRANCH  16  17
ENDBRANCH   1  16
TORSDOF 6
ENDMDL
MODEL 8
REMARK VINA RESULT:    -6.249      3.266      7.452
REMARK INTER + INTRA:          -9.476
REMARK INTER:                  -8.680
REMARK INTRA:                  -0.796
REMARK UNBOUND:                -1.035
REMARK  Name = 
REMARK  6 active torsions:
REMARK  status: ('A' for Active; 'I' for Inactive)
REMARK    1  A    between atoms: C_5  and  O_6
REMARK    2  A    between atoms: O_6  and  C_7
REMARK    3  A    between atoms: C_7  and  C_8
REMARK    4  A    between atoms: C_8  and  C_11
REMARK    5  A    between atoms: C_15  and  O_16
REMARK    6  A    between atoms: O_16  and  C_17
REMARK                            x       y       z     vdW  Elec       q    Type
REMARK                         _______ _______ _______ _____ _____    ______ ____
ROOT
ATOM      1  C   UNL     1      46.541   6.537  12.522  0.00  0.00    +0.000 C 
ATOM      2  F   UNL     1      46.217   7.633  13.271  0.00  0.00    +0.000 F 
ATOM      3  F   UNL     1      47.161   7.029  11.408  0.00  0.00    +0.000 F 
ENDROOT
BRANCH   1   4
ATOM      4  C   UNL     1      45.316   5.716  12.162  0.00  0.00    +0.000 A 
ATOM      5  C   UNL     1      44.167   5.762  12.963  0.00  0.00    +0.000 A 
ATOM      6  C   UNL     1      43.030   5.029  12.612  0.00  0.00    +0.000 A 
ATOM      7  C   UNL     1      43.025   4.237  11.460  0.00  0.00    +0.000 A 
ATOM      8  C   UNL     1      44.165   4.175  10.662  0.00  0.00    +0.000 A 
ATOM      9  C   UNL     1      45.300   4.916  11.009  0.00  0.00    +0.000 A 
BRANCH   8  10
ATOM     10  O   UNL     1      44.273   3.460   9.497  0.00  0.00    +0.000 OA
BRANCH  10  11
ATOM     11  C   UNL     1      45.581   3.147   8.967  0.00  0.00    +0.000 C 
ATOM     12  C   UNL     1      45.865   3.470   7.485  0.00  0.00    +0.000 C 
ATOM     13  N   UNL     1      46.420   2.117   7.293  0.00  0.00    +0.000 NA
ATOM     14  C   UNL     1      45.759   1.673   8.534  0.00  0.00    +0.000 C 
ATOM     15  H   UNL     1      47.439   2.075   7.334  0.00  0.00    +0.000 HD
ENDBRANCH  10  11
ENDBRANCH   8  10
ENDBRANCH   1   4
BRANCH   1  16
ATOM     16  C   UNL     1      47.550   5.680  13.312  0.00  0.00    +0.000 C 
BRANCH  16  17
ATOM     17  O   UNL     1      47.901   6.317  14.550  0.00  0.00    +0.000 OA
BRANCH  17  22
ATOM     18  F   UNL     1      48.430   2.798  18.738  0.00  0.00    +0.000 F 
ATOM     19  C   UNL     1      48.319   3.673  17.730  0.00  0.00    +0.000 A 
ATOM     20  C   UNL     1      49.143   4.794  17.703  0.00  0.00    +0.000 A 
ATOM     21  C   UNL     1      49.034   5.712  16.653  0.00  0.00    +0.000 A 
ATOM     22  C   UNL     1      48.101   5.503  15.633  0.00  0.00    +0.000 A 
ATOM     23  C   UNL     1      47.279   4.371  15.678  0.00  0.00    +0.000 A 
ATOM     24  C   UNL     1      47.387   3.454  16.726  0.00  0.00    +0.000 A 
ENDBRANCH  17  22
ENDBRANCH  16  17
ENDBRANCH   1  16
TORSDOF 6
ENDMDL
MODEL 9
REMARK VINA RESULT:    -5.974      3.083      4.564
REMARK INTER + INTRA:          -9.104
REMARK INTER:                  -8.201
REMARK INTRA:                  -0.903
REMARK UNBOUND:                -1.035
REMARK  Name = 
REMARK  6 active torsions:
REMARK  status: ('A' for Active; 'I' for Inactive)
REMARK    1  A    between atoms: C_5  and  O_6
REMARK    2  A    between atoms: O_6  and  C_7
REMARK    3  A    between atoms: C_7  and  C_8
REMARK    4  A    between atoms: C_8  and  C_11
REMARK    5  A    between atoms: C_15  and  O_16
REMARK    6  A    between atoms: O_16  and  C_17
REMARK                            x       y       z     vdW  Elec       q    Type
REMARK                         _______ _______ _______ _____ _____    ______ ____
ROOT
ATOM      1  C   UNL     1      47.939   8.148  12.190  0.00  0.00    +0.000 C 
ATOM      2  F   UNL     1      49.058   8.280  11.418  0.00  0.00    +0.000 F 
ATOM      3  F   UNL     1      47.204   9.277  11.958  0.00  0.00    +0.000 F 
ENDROOT
BRANCH   1   4
ATOM      4  C   UNL     1      48.282   7.999  13.661  0.00  0.00    +0.000 A 
ATOM      5  C   UNL     1      48.377   9.127  14.489  0.00  0.00    +0.000 A 
ATOM      6  C   UNL     1      48.662   8.984  15.849  0.00  0.00    +0.000 A 
ATOM      7  C   UNL     1      48.863   7.716  16.402  0.00  0.00    +0.000 A 
ATOM      8  C   UNL     1      48.782   6.590  15.587  0.00  0.00    +0.000 A 
ATOM      9  C   UNL     1      48.487   6.732  14.227  0.00  0.00    +0.000 A 
BRANCH   8  10
ATOM     10  O   UNL     1      48.929   5.295  16.017  0.00  0.00    +0.000 OA
BRANCH  10  11
ATOM     11  C   UNL     1      47.758   4.500  16.310  0.00  0.00    +0.000 C 
ATOM     12  C   UNL     1      47.125   4.625  17.713  0.00  0.00    +0.000 C 
ATOM     13  N   UNL     1      47.082   3.155  17.828  0.00  0.00    +0.000 NA
ATOM     14  C   UNL     1      48.063   3.045  16.733  0.00  0.00    +0.000 C 
ATOM     15  H   UNL     1      46.173   2.746  17.607  0.00  0.00    +0.000 HD
ENDBRANCH  10  11
ENDBRANCH   8  10
ENDBRANCH   1   4
BRANCH   1  16
ATOM     16  C   UNL     1      47.139   6.927  11.697  0.00  0.00    +0.000 C 
BRANCH  16  17
ATOM     17  O   UNL     1      45.766   7.016  12.108  0.00  0.00    +0.000 OA
BRANCH  17  22
ATOM     18  F   UNL     1      43.041   2.253  11.815  0.00  0.00    +0.000 F 
ATOM     19  C   UNL     1      43.684   3.426  11.875  0.00  0.00    +0.000 A 
ATOM     20  C   UNL     1      43.015   4.591  11.512  0.00  0.00    +0.000 A 
ATOM     21  C   UNL     1      43.679   5.821  11.573  0.00  0.00    +0.000 A 
ATOM     22  C   UNL     1      45.009   5.880  11.997  0.00  0.00    +0.000 A 
ATOM     23  C   UNL     1      45.667   4.697  12.355  0.00  0.00    +0.000 A 
ATOM     24  C   UNL     1      45.005   3.469  12.295  0.00  0.00    +0.000 A 
ENDBRANCH  17  22
ENDBRANCH  16  17
ENDBRANCH   1  16
TORSDOF 6
ENDMDL
