MODEL 1
REMARK VINA RESULT:    -8.565      0.000      0.000
REMARK INTER + INTRA:         -11.690
REMARK INTER:                 -11.068
REMARK INTRA:                  -0.622
REMARK UNBOUND:                -0.622
REMARK  Name = 
REMARK  5 active torsions:
REMARK  status: ('A' for Active; 'I' for Inactive)
REMARK    1  A    between atoms: C_2  and  C_5
REMARK    2  A    between atoms: C_7  and  C_8
REMARK    3  A    between atoms: C_12  and  N_13
REMARK    4  A    between atoms: N_13  and  C_14
REMARK    5  A    between atoms: C_14  and  C_15
REMARK                            x       y       z     vdW  Elec       q    Type
REMARK                         _______ _______ _______ _____ _____    ______ ____
ROOT
ATOM      1  C   UNL     1      46.004   4.963  13.217  0.00  0.00    +0.000 A 
ATOM      2  C   UNL     1      45.255   6.059  12.780  0.00  0.00    +0.000 A 
ATOM      3  N   UNL     1      44.367   6.040  11.761  0.00  0.00    +0.000 NA
ATOM      4  C   UNL     1      44.213   4.858  11.125  0.00  0.00    +0.000 A 
ATOM      5  C   UNL     1      44.864   3.670  11.462  0.00  0.00    +0.000 A 
ATOM      6  C   UNL     1      45.787   3.760  12.511  0.00  0.00    +0.000 A 
ENDROOT
BRANCH   1   9
ATOM      7  C   UNL     1      48.028   4.158  16.334  0.00  0.00    +0.000 A 
ATOM      8  C   UNL     1      47.115   4.037  15.282  0.00  0.00    +0.000 A 
ATOM      9  C   UNL     1      46.971   5.064  14.335  0.00  0.00    +0.000 A 
ATOM     10  C   UNL     1      47.788   6.192  14.501  0.00  0.00    +0.000 A 
ATOM     11  C   UNL     1      48.682   6.241  15.557  0.00  0.00    +0.000 A 
ATOM     12  N   UNL     1      48.818   5.260  16.469  0.00  0.00    +0.000 NA
BRANCH   7  14
ATOM     13  F   UNL     1      48.743   3.439  18.528  0.00  0.00    +0.000 F 
ATOM     14  C   UNL     1      48.150   3.040  17.362  0.00  0.00    +0.000 C 
ATOM     15  F   UNL     1      48.899   1.988  16.921  0.00  0.00    +0.000 F 
ATOM     16  F   UNL     1      46.945   2.517  17.732  0.00  0.00    +0.000 F 
ENDBRANCH   7  14
ENDBRANCH   1   9
BRANCH   5  17
ATOM     17  N   UNL     1      44.670   2.523  10.696  0.00  0.00    +0.000 N 
ATOM     18  H   UNL     1      45.337   1.782  10.888  0.00  0.00    +0.000 HD
BRANCH  17  19
ATOM     19  C   UNL     1      44.318   2.611   9.275  0.00  0.00    +0.000 C 
BRANCH  19  20
ATOM     20  C   UNL     1      45.521   2.366   8.387  0.00  0.00    +0.000 A 
ATOM     21  C   UNL     1      46.058   3.409   7.629  0.00  0.00    +0.000 A 
ATOM     22  C   UNL     1      47.157   3.156   6.813  0.00  0.00    +0.000 A 
ATOM     23  C   UNL     1      47.689   1.876   6.770  0.00  0.00    +0.000 A 
ATOM     24  C   UNL     1      47.098   0.893   7.545  0.00  0.00    +0.000 A 
ATOM     25  N   UNL     1      46.029   1.107   8.347  0.00  0.00    +0.000 NA
ENDBRANCH  19  20
ENDBRANCH  17  19
ENDBRANCH   5  17
TORSDOF 5
ENDMDL
MODEL 2
REMARK VINA RESULT:    -8.094      3.715      4.499
REMARK INTER + INTRA:         -11.083
REMARK INTER:                 -10.384
REMARK INTRA:                  -0.699
REMARK UNBOUND:                -0.622
REMARK  Name = 
REMARK  5 active torsions:
REMARK  status: ('A' for Active; 'I' for Inactive)
REMARK    1  A    between atoms: C_2  and  C_5
REMARK    2  A    between atoms: C_7  and  C_8
REMARK    3  A    between atoms: C_12  and  N_13
REMARK    4  A    between atoms: N_13  and  C_14
REMARK    5  A    between atoms: C_14  and  C_15
REMARK                            x       y       z     vdW  Elec       q    Type
REMARK                         _______ _______ _______ _____ _____    ______ ____
ROOT
ATOM      1  C   UNL     1      45.859   5.896  12.066  0.00  0.00    +0.000 A 
ATOM      2  C   UNL     1      45.564   5.218  13.252  0.00  0.00    +0.000 A 
ATOM      3  N   UNL     1      44.875   4.057  13.335  0.00  0.00    +0.000 NA
ATOM      4  C   UNL     1      44.442   3.534  12.168  0.00  0.00    +0.000 A 
ATOM      5  C   UNL     1      44.683   4.075  10.903  0.00  0.00    +0.000 A 
ATOM      6  C   UNL     1      45.381   5.288  10.885  0.00  0.00    +0.000 A 
ENDROOT
BRANCH   1   9
ATOM      7  C   UNL     1      48.686   8.430  11.849  0.00  0.00    +0.000 A 
ATOM      8  C   UNL     1      47.997   7.213  11.847  0.00  0.00    +0.000 A 
ATOM      9  C   UNL     1      46.609   7.173  12.055  0.00  0.00    +0.000 A 
ATOM     10  C   UNL     1      45.967   8.405  12.252  0.00  0.00    +0.000 A 
ATOM     11  C   UNL     1      46.707   9.575  12.226  0.00  0.00    +0.000 A 
ATOM     12  N   UNL     1      48.038   9.615  12.033  0.00  0.00    +0.000 NA
BRANCH   7  14
ATOM     13  F   UNL     1      50.628   7.527  10.728  0.00  0.00    +0.000 F 
ATOM     14  C   UNL     1      50.195   8.446  11.644  0.00  0.00    +0.000 C 
ATOM     15  F   UNL     1      50.893   8.171  12.784  0.00  0.00    +0.000 F 
ATOM     16  F   UNL     1      50.664   9.647  11.196  0.00  0.00    +0.000 F 
ENDBRANCH   7  14
ENDBRANCH   1   9
BRANCH   5  17
ATOM     17  N   UNL     1      44.136   3.478   9.770  0.00  0.00    +0.000 N 
ATOM     18  H   UNL     1      43.137   3.627   9.667  0.00  0.00    +0.000 HD
BRANCH  17  19
ATOM     19  C   UNL     1      44.552   2.138   9.344  0.00  0.00    +0.000 C 
BRANCH  19  20
ATOM     20  C   UNL     1      45.635   2.200   8.286  0.00  0.00    +0.000 A 
ATOM     21  C   UNL     1      45.775   3.339   7.491  0.00  0.00    +0.000 A 
ATOM     22  C   UNL     1      46.771   3.367   6.519  0.00  0.00    +0.000 A 
ATOM     23  C   UNL     1      47.598   2.265   6.363  0.00  0.00    +0.000 A 
ATOM     24  C   UNL     1      47.394   1.170   7.186  0.00  0.00    +0.000 A 
ATOM     25  N   UNL     1      46.434   1.111   8.138  0.00  0.00    +0.000 NA
ENDBRANCH  19  20
ENDBRANCH  17  19
ENDBRANCH   5  17
TORSDOF 5
ENDMDL
MODEL 3
REMARK VINA RESULT:    -7.824      2.648      3.128
REMARK INTER + INTRA:         -10.733
REMARK INTER:                 -10.150
REMARK INTRA:                  -0.582
REMARK UNBOUND:                -0.622
REMARK  Name = 
REMARK  5 active torsions:
REMARK  status: ('A' for Active; 'I' for Inactive)
REMARK    1  A    between atoms: C_2  and  C_5
REMARK    2  A    between atoms: C_7  and  C_8
REMARK    3  A    between atoms: C_12  and  N_13
REMARK    4  A    between atoms: N_13  and  C_14
REMARK    5  A    between atoms: C_14  and  C_15
REMARK                            x       y       z     vdW  Elec       q    Type
REMARK                         _______ _______ _______ _____ _____    ______ ____
ROOT
ATOM      1  C   UNL     1      45.330   4.681  13.029  0.00  0.00    +0.000 A 
ATOM      2  C   UNL     1      44.051   5.209  13.223  0.00  0.00    +0.000 A 
ATOM      3  N   UNL     1      42.947   4.855  12.527  0.00  0.00    +0.000 NA
ATOM      4  C   UNL     1      43.121   3.920  11.568  0.00  0.00    +0.000 A 
ATOM      5  C   UNL     1      44.325   3.278  11.275  0.00  0.00    +0.000 A 
ATOM      6  C   UNL     1      45.435   3.705  12.015  0.00  0.00    +0.000 A 
ENDROOT
BRANCH   1   9
ATOM      7  C   UNL     1      48.424   6.583  14.157  0.00  0.00    +0.000 A 
ATOM      8  C   UNL     1      47.323   6.181  13.394  0.00  0.00    +0.000 A 
ATOM      9  C   UNL     1      46.497   5.130  13.824  0.00  0.00    +0.000 A 
ATOM     10  C   UNL     1      46.832   4.525  15.044  0.00  0.00    +0.000 A 
ATOM     11  C   UNL     1      47.928   4.982  15.757  0.00  0.00    +0.000 A 
ATOM     12  N   UNL     1      48.724   5.986  15.345  0.00  0.00    +0.000 NA
BRANCH   7  14
ATOM     13  F   UNL     1      49.449   7.739  12.298  0.00  0.00    +0.000 F 
ATOM     14  C   UNL     1      49.318   7.711  13.659  0.00  0.00    +0.000 C 
ATOM     15  F   UNL     1      50.593   7.634  14.140  0.00  0.00    +0.000 F 
ATOM     16  F   UNL     1      48.860   8.950  14.001  0.00  0.00    +0.000 F 
ENDBRANCH   7  14
ENDBRANCH   1   9
BRANCH   5  17
ATOM     17  N   UNL     1      44.398   2.370  10.222  0.00  0.00    +0.000 N 
ATOM     18  H   UNL     1      45.079   1.630  10.363  0.00  0.00    +0.000 HD
BRANCH  17  19
ATOM     19  C   UNL     1      44.334   2.820   8.828  0.00  0.00    +0.000 C 
BRANCH  19  20
ATOM     20  C   UNL     1      45.587   2.445   8.062  0.00  0.00    +0.000 A 
ATOM     21  C   UNL     1      46.161   3.351   7.169  0.00  0.00    +0.000 A 
ATOM     22  C   UNL     1      47.306   2.979   6.470  0.00  0.00    +0.000 A 
ATOM     23  C   UNL     1      47.846   1.719   6.675  0.00  0.00    +0.000 A 
ATOM     24  C   UNL     1      47.216   0.873   7.574  0.00  0.00    +0.000 A 
ATOM     25  N   UNL     1      46.102   1.204   8.266  0.00  0.00    +0.000 NA
ENDBRANCH  19  20
ENDBRANCH  17  19
ENDBRANCH   5  17
TORSDOF 5
ENDMDL
MODEL 4
REMARK VINA RESULT:    -7.495      2.246      2.832
REMARK INTER + INTRA:         -10.308
REMARK INTER:                  -9.621
REMARK INTRA:                  -0.687
REMARK UNBOUND:                -0.622
REMARK  Name = 
REMARK  5 active torsions:
REMARK  status: ('A' for Active; 'I' for Inactive)
REMARK    1  A    between atoms: C_2  and  C_5
REMARK    2  A    between atoms: C_7  and  C_8
REMARK    3  A    between atoms: C_12  and  N_13
REMARK    4  A    between atoms: N_13  and  C_14
REMARK    5  A    between atoms: C_14  and  C_15
REMARK                            x       y       z     vdW  Elec       q    Type
REMARK                         _______ _______ _______ _____ _____    ______ ____
ROOT
ATOM      1  C   UNL     1      45.987   5.999  11.988  0.00  0.00    +0.000 A 
ATOM      2  C   UNL     1      44.755   6.658  11.965  0.00  0.00    +0.000 A 
ATOM      3  N   UNL     1      43.583   6.106  11.578  0.00  0.00    +0.000 NA
ATOM      4  C   UNL     1      43.633   4.816  11.180  0.00  0.00    +0.000 A 
ATOM      5  C   UNL     1      44.778   4.017  11.176  0.00  0.00    +0.000 A 
ATOM      6  C   UNL     1      45.963   4.652  11.565  0.00  0.00    +0.000 A 
ENDROOT
BRANCH   1   9
ATOM      7  C   UNL     1      48.911   7.204  14.100  0.00  0.00    +0.000 A 
ATOM      8  C   UNL     1      47.735   6.550  13.719  0.00  0.00    +0.000 A 
ATOM      9  C   UNL     1      47.235   6.676  12.413  0.00  0.00    +0.000 A 
ATOM     10  C   UNL     1      47.975   7.476  11.530  0.00  0.00    +0.000 A 
ATOM     11  C   UNL     1      49.140   8.084  11.968  0.00  0.00    +0.000 A 
ATOM     12  N   UNL     1      49.619   7.969  13.221  0.00  0.00    +0.000 NA
BRANCH   7  14
ATOM     13  F   UNL     1      48.711   6.174  16.278  0.00  0.00    +0.000 F 
ATOM     14  C   UNL     1      49.422   7.071  15.529  0.00  0.00    +0.000 C 
ATOM     15  F   UNL     1      49.368   8.242  16.228  0.00  0.00    +0.000 F 
ATOM     16  F   UNL     1      50.718   6.650  15.598  0.00  0.00    +0.000 F 
ENDBRANCH   7  14
ENDBRANCH   1   9
BRANCH   5  17
ATOM     17  N   UNL     1      44.721   2.714  10.688  0.00  0.00    +0.000 N 
ATOM     18  H   UNL     1      45.483   2.122  11.003  0.00  0.00    +0.000 HD
BRANCH  17  19
ATOM     19  C   UNL     1      44.332   2.441   9.300  0.00  0.00    +0.000 C 
BRANCH  19  20
ATOM     20  C   UNL     1      45.543   2.274   8.405  0.00  0.00    +0.000 A 
ATOM     21  C   UNL     1      46.043   3.365   7.691  0.00  0.00    +0.000 A 
ATOM     22  C   UNL     1      47.150   3.184   6.867  0.00  0.00    +0.000 A 
ATOM     23  C   UNL     1      47.728   1.927   6.773  0.00  0.00    +0.000 A 
ATOM     24  C   UNL     1      47.171   0.893   7.507  0.00  0.00    +0.000 A 
ATOM     25  N   UNL     1      46.095   1.036   8.315  0.00  0.00    +0.000 NA
ENDBRANCH  19  20
ENDBRANCH  17  19
ENDBRANCH   5  17
TORSDOF 5
ENDMDL
MODEL 5
REMARK VINA RESULT:    -7.421      4.155      4.794
REMARK INTER + INTRA:         -10.213
REMARK INTER:                  -9.512
REMARK INTRA:                  -0.701
REMARK UNBOUND:                -0.622
REMARK  Name = 
REMARK  5 active torsions:
REMARK  status: ('A' for Active; 'I' for Inactive)
REMARK    1  A    between atoms: C_2  and  C_5
REMARK    2  A    between atoms: C_7  and  C_8
REMARK    3  A    between atoms: C_12  and  N_13
REMARK    4  A    between atoms: N_13  and  C_14
REMARK    5  A    between atoms: C_14  and  C_15
REMARK                            x       y       z     vdW  Elec       q    Type
REMARK                         _______ _______ _______ _____ _____    ______ ____
ROOT
ATOM      1  C   UNL     1      45.667   5.761  12.345  0.00  0.00    +0.000 A 
ATOM      2  C   UNL     1      44.421   6.036  12.916  0.00  0.00    +0.000 A 
ATOM      3  N   UNL     1      43.338   5.229  12.851  0.00  0.00    +0.000 NA
ATOM      4  C   UNL     1      43.495   4.074  12.168  0.00  0.00    +0.000 A 
ATOM      5  C   UNL     1      44.681   3.644  11.571  0.00  0.00    +0.000 A 
ATOM      6  C   UNL     1      45.759   4.534  11.653  0.00  0.00    +0.000 A 
ENDROOT
BRANCH   1   9
ATOM      7  C   UNL     1      47.766   8.929  12.204  0.00  0.00    +0.000 A 
ATOM      8  C   UNL     1      46.675   8.059  12.107  0.00  0.00    +0.000 A 
ATOM      9  C   UNL     1      46.806   6.703  12.447  0.00  0.00    +0.000 A 
ATOM     10  C   UNL     1      48.070   6.284  12.888  0.00  0.00    +0.000 A 
ATOM     11  C   UNL     1      49.104   7.201  12.975  0.00  0.00    +0.000 A 
ATOM     12  N   UNL     1      48.982   8.500  12.645  0.00  0.00    +0.000 NA
BRANCH   7  14
ATOM     13  F   UNL     1      46.398  10.666  11.227  0.00  0.00    +0.000 F 
ATOM     14  C   UNL     1      47.606  10.391  11.808  0.00  0.00    +0.000 C 
ATOM     15  F   UNL     1      48.540  10.806  10.904  0.00  0.00    +0.000 F 
ATOM     16  F   UNL     1      47.698  11.247  12.867  0.00  0.00    +0.000 F 
ENDBRANCH   7  14
ENDBRANCH   1   9
BRANCH   5  17
ATOM     17  N   UNL     1      44.709   2.458  10.841  0.00  0.00    +0.000 N 
ATOM     18  H   UNL     1      45.533   1.891  11.009  0.00  0.00    +0.000 HD
BRANCH  17  19
ATOM     19  C   UNL     1      44.273   2.419   9.442  0.00  0.00    +0.000 C 
BRANCH  19  20
ATOM     20  C   UNL     1      45.451   2.471   8.489  0.00  0.00    +0.000 A 
ATOM     21  C   UNL     1      46.153   1.304   8.178  0.00  0.00    +0.000 A 
ATOM     22  C   UNL     1      47.237   1.380   7.308  0.00  0.00    +0.000 A 
ATOM     23  C   UNL     1      47.596   2.609   6.775  0.00  0.00    +0.000 A 
ATOM     24  C   UNL     1      46.854   3.722   7.137  0.00  0.00    +0.000 A 
ATOM     25  N   UNL     1      45.797   3.682   7.980  0.00  0.00    +0.000 NA
ENDBRANCH  19  20
ENDBRANCH  17  19
ENDBRANCH   5  17
TORSDOF 5
ENDMDL
MODEL 6
REMARK VINA RESULT:    -7.192      3.855      7.735
REMARK INTER + INTRA:          -9.916
REMARK INTER:                  -9.194
REMARK INTRA:                  -0.722
REMARK UNBOUND:                -0.622
REMARK  Name = 
REMARK  5 active torsions:
REMARK  status: ('A' for Active; 'I' for Inactive)
REMARK    1  A    between atoms: C_2  and  C_5
REMARK    2  A    between atoms: C_7  and  C_8
REMARK    3  A    between atoms: C_12  and  N_13
REMARK    4  A    between atoms: N_13  and  C_14
REMARK    5  A    between atoms: C_14  and  C_15
REMARK                            x       y       z     vdW  Elec       q    Type
REMARK                         _______ _______ _______ _____ _____    ______ ____
ROOT
ATOM      1  C   UNL     1      45.881   6.161  12.641  0.00  0.00    +0.000 A 
ATOM      2  C   UNL     1      45.525   7.499  12.450  0.00  0.00    +0.000 A 
ATOM      3  N   UNL     1      46.206   8.562  12.933  0.00  0.00    +0.000 NA
ATOM      4  C   UNL     1      47.310   8.285  13.661  0.00  0.00    +0.000 A 
ATOM      5  C   UNL     1      47.810   7.006  13.912  0.00  0.00    +0.000 A 
ATOM      6  C   UNL     1      47.048   5.946  13.405  0.00  0.00    +0.000 A 
ENDROOT
BRANCH   1   9
ATOM      7  C   UNL     1      44.515   3.498  10.294  0.00  0.00    +0.000 A 
ATOM      8  C   UNL     1      45.293   4.546  10.796  0.00  0.00    +0.000 A 
ATOM      9  C   UNL     1      45.076   5.046  12.090  0.00  0.00    +0.000 A 
ATOM     10  C   UNL     1      44.056   4.436  12.837  0.00  0.00    +0.000 A 
ATOM     11  C   UNL     1      43.333   3.391  12.284  0.00  0.00    +0.000 A 
ATOM     12  N   UNL     1      43.537   2.915  11.042  0.00  0.00    +0.000 NA
BRANCH   7  14
ATOM     13  F   UNL     1      46.080   2.856   8.567  0.00  0.00    +0.000 F 
ATOM     14  C   UNL     1      44.755   2.989   8.878  0.00  0.00    +0.000 C 
ATOM     15  F   UNL     1      44.243   3.813   7.919  0.00  0.00    +0.000 F 
ATOM     16  F   UNL     1      44.208   1.759   8.650  0.00  0.00    +0.000 F 
ENDBRANCH   7  14
ENDBRANCH   1   9
BRANCH   5  17
ATOM     17  N   UNL     1      48.927   6.838  14.727  0.00  0.00    +0.000 N 
ATOM     18  H   UNL     1      49.608   6.180  14.361  0.00  0.00    +0.000 HD
BRANCH  17  19
ATOM     19  C   UNL     1      48.796   6.760  16.185  0.00  0.00    +0.000 C 
BRANCH  19  20
ATOM     20  C   UNL     1      48.838   5.326  16.674  0.00  0.00    +0.000 A 
ATOM     21  C   UNL     1      47.659   4.584  16.773  0.00  0.00    +0.000 A 
ATOM     22  C   UNL     1      47.722   3.272  17.234  0.00  0.00    +0.000 A 
ATOM     23  C   UNL     1      48.951   2.735  17.585  0.00  0.00    +0.000 A 
ATOM     24  C   UNL     1      50.075   3.536  17.465  0.00  0.00    +0.000 A 
ATOM     25  N   UNL     1      50.047   4.814  17.023  0.00  0.00    +0.000 NA
ENDBRANCH  19  20
ENDBRANCH  17  19
ENDBRANCH   5  17
TORSDOF 5
ENDMDL
MODEL 7
REMARK VINA RESULT:    -7.065      4.936      7.901
REMARK INTER + INTRA:          -9.752
REMARK INTER:                  -9.138
REMARK INTRA:                  -0.614
REMARK UNBOUND:                -0.622
REMARK  Name = 
REMARK  5 active torsions:
REMARK  status: ('A' for Active; 'I' for Inactive)
REMARK    1  A    between atoms: C_2  and  C_5
REMARK    2  A    between atoms: C_7  and  C_8
REMARK    3  A    between atoms: C_12  and  N_13
REMARK    4  A    between atoms: N_13  and  C_14
REMARK    5  A    between atoms: C_14  and  C_15
REMARK                            x       y       z     vdW  Elec       q    Type
REMARK                         _______ _______ _______ _____ _____    ______ ____
ROOT
ATOM      1  C   UNL     1      45.537   6.066  12.445  0.00  0.00    +0.000 A 
ATOM      2  C   UNL     1      46.834   6.043  12.966  0.00  0.00    +0.000 A 
ATOM      3  N   UNL     1      47.512   7.121  13.417  0.00  0.00    +0.000 NA
ATOM      4  C   UNL     1      46.868   8.306  13.342  0.00  0.00    +0.000 A 
ATOM      5  C   UNL     1      45.564   8.488  12.879  0.00  0.00    +0.000 A 
ATOM      6  C   UNL     1      44.923   7.337  12.404  0.00  0.00    +0.000 A 
ENDROOT
BRANCH   1   9
ATOM      7  C   UNL     1      44.535   3.108  10.275  0.00  0.00    +0.000 A 
ATOM      8  C   UNL     1      45.190   4.260  10.721  0.00  0.00    +0.000 A 
ATOM      9  C   UNL     1      44.862   4.841  11.957  0.00  0.00    +0.000 A 
ATOM     10  C   UNL     1      43.861   4.204  12.705  0.00  0.00    +0.000 A 
ATOM     11  C   UNL     1      43.262   3.057  12.212  0.00  0.00    +0.000 A 
ATOM     12  N   UNL     1      43.572   2.501  11.025  0.00  0.00    +0.000 NA
BRANCH   7  14
ATOM     13  F   UNL     1      44.327   3.174   7.868  0.00  0.00    +0.000 F 
ATOM     14  C   UNL     1      44.893   2.509   8.921  0.00  0.00    +0.000 C 
ATOM     15  F   UNL     1      44.488   1.213   8.786  0.00  0.00    +0.000 F 
ATOM     16  F   UNL     1      46.234   2.514   8.670  0.00  0.00    +0.000 F 
ENDBRANCH   7  14
ENDBRANCH   1   9
BRANCH   5  17
ATOM     17  N   UNL     1      45.022   9.768  12.793  0.00  0.00    +0.000 N 
ATOM     18  H   UNL     1      44.165   9.888  13.323  0.00  0.00    +0.000 HD
BRANCH  17  19
ATOM     19  C   UNL     1      45.007  10.501  11.523  0.00  0.00    +0.000 C 
BRANCH  19  20
ATOM     20  C   UNL     1      43.595  10.842  11.092  0.00  0.00    +0.000 A 
ATOM     21  C   UNL     1      43.251  10.827   9.739  0.00  0.00    +0.000 A 
ATOM     22  C   UNL     1      41.950  11.153   9.368  0.00  0.00    +0.000 A 
ATOM     23  C   UNL     1      41.029  11.488  10.349  0.00  0.00    +0.000 A 
ATOM     24  C   UNL     1      41.447  11.487  11.669  0.00  0.00    +0.000 A 
ATOM     25  N   UNL     1      42.703  11.176  12.062  0.00  0.00    +0.000 NA
ENDBRANCH  19  20
ENDBRANCH  17  19
ENDBRANCH   5  17
TORSDOF 5
ENDMDL
MODEL 8
REMARK VINA RESULT:    -6.995      3.951      4.534
REMARK INTER + INTRA:          -9.662
REMARK INTER:                  -8.989
REMARK INTRA:                  -0.673
REMARK UNBOUND:                -0.622
REMARK  Name = 
REMARK  5 active torsions:
REMARK  status: ('A' for Active; 'I' for Inactive)
REMARK    1  A    between atoms: C_2  and  C_5
REMARK    2  A    between atoms: C_7  and  C_8
REMARK    3  A    between atoms: C_12  and  N_13
REMARK    4  A    between atoms: N_13  and  C_14
REMARK    5  A    between atoms: C_14  and  C_15
REMARK                            x       y       z     vdW  Elec       q    Type
REMARK                         _______ _______ _______ _____ _____    ______ ____
ROOT
ATOM      1  C   UNL     1      46.396   6.564  12.213  0.00  0.00    +0.000 A 
ATOM      2  C   UNL     1      45.310   7.383  11.894  0.00  0.00    +0.000 A 
ATOM      3  N   UNL     1      44.125   6.952  11.407  0.00  0.00    +0.000 NA
ATOM      4  C   UNL     1      44.007   5.620  11.215  0.00  0.00    +0.000 A 
ATOM      5  C   UNL     1      44.988   4.672  11.513  0.00  0.00    +0.000 A 
ATOM      6  C   UNL     1      46.200   5.183  11.993  0.00  0.00    +0.000 A 
ENDROOT
BRANCH   1   9
ATOM      7  C   UNL     1      49.647   8.518  12.490  0.00  0.00    +0.000 A 
ATOM      8  C   UNL     1      48.442   8.019  11.985  0.00  0.00    +0.000 A 
ATOM      9  C   UNL     1      47.671   7.113  12.731  0.00  0.00    +0.000 A 
ATOM     10  C   UNL     1      48.169   6.752  13.991  0.00  0.00    +0.000 A 
ATOM     11  C   UNL     1      49.362   7.295  14.438  0.00  0.00    +0.000 A 
ATOM     12  N   UNL     1      50.106   8.160  13.723  0.00  0.00    +0.000 NA
BRANCH   7  14
ATOM     13  F   UNL     1      51.440  10.135  12.373  0.00  0.00    +0.000 F 
ATOM     14  C   UNL     1      50.477   9.483  11.653  0.00  0.00    +0.000 C 
ATOM     15  F   UNL     1      49.731  10.469  11.077  0.00  0.00    +0.000 F 
ATOM     16  F   UNL     1      51.146   8.870  10.633  0.00  0.00    +0.000 F 
ENDBRANCH   7  14
ENDBRANCH   1   9
BRANCH   5  17
ATOM     17  N   UNL     1      44.777   3.327  11.217  0.00  0.00    +0.000 N 
ATOM     18  H   UNL     1      45.536   2.719  11.505  0.00  0.00    +0.000 HD
BRANCH  17  19
ATOM     19  C   UNL     1      44.177   2.917   9.944  0.00  0.00    +0.000 C 
BRANCH  19  20
ATOM     20  C   UNL     1      45.231   2.681   8.881  0.00  0.00    +0.000 A 
ATOM     21  C   UNL     1      45.667   3.737   8.078  0.00  0.00    +0.000 A 
ATOM     22  C   UNL     1      46.629   3.492   7.102  0.00  0.00    +0.000 A 
ATOM     23  C   UNL     1      47.128   2.207   6.949  0.00  0.00    +0.000 A 
ATOM     24  C   UNL     1      46.641   1.211   7.779  0.00  0.00    +0.000 A 
ATOM     25  N   UNL     1      45.707   1.416   8.735  0.00  0.00    +0.000 NA
ENDBRANCH  19  20
ENDBRANCH  17  19
ENDBRANCH   5  17
TORSDOF 5
ENDMDL
MODEL 9
REMARK VINA RESULT:    -6.390      4.940      7.343
REMARK INTER + INTRA:          -8.880
REMARK INTER:                  -8.319
REMARK INTRA:                  -0.561
REMARK UNBOUND:                -0.622
REMARK  Name = 
REMARK  5 active torsions:
REMARK  status: ('A' for Active; 'I' for Inactive)
REMARK    1  A    between atoms: C_2  and  C_5
REMARK    2  A    between atoms: C_7  and  C_8
REMARK    3  A    between atoms: C_12  and  N_13
REMARK    4  A    between atoms: N_13  and  C_14
REMARK    5  A    between atoms: C_14  and  C_15
REMARK                            x       y       z     vdW  Elec       q    Type
REMARK                         _______ _______ _______ _____ _____    ______ ____
ROOT
ATOM      1  C   UNL     1      46.461   5.446  12.707  0.00  0.00    +0.000 A 
ATOM      2  C   UNL     1      47.101   5.176  13.920  0.00  0.00    +0.000 A 
ATOM      3  N   UNL     1      48.066   5.940  14.478  0.00  0.00    +0.000 NA
ATOM      4  C   UNL     1      48.430   7.043  13.788  0.00  0.00    +0.000 A 
ATOM      5  C   UNL     1      47.864   7.462  12.582  0.00  0.00    +0.000 A 
ATOM      6  C   UNL     1      46.886   6.617  12.044  0.00  0.00    +0.000 A 
ENDROOT
BRANCH   1   9
ATOM      7  C   UNL     1      44.592   3.054  10.416  0.00  0.00    +0.000 A 
ATOM      8  C   UNL     1      45.593   3.886  10.927  0.00  0.00    +0.000 A 
ATOM      9  C   UNL     1      45.418   4.552  12.151  0.00  0.00    +0.000 A 
ATOM     10  C   UNL     1      44.206   4.330  12.821  0.00  0.00    +0.000 A 
ATOM     11  C   UNL     1      43.263   3.480  12.266  0.00  0.00    +0.000 A 
ATOM     12  N   UNL     1      43.426   2.845  11.090  0.00  0.00    +0.000 NA
BRANCH   7  14
ATOM     13  F   UNL     1      46.112   2.183   8.750  0.00  0.00    +0.000 F 
ATOM     14  C   UNL     1      44.796   2.360   9.075  0.00  0.00    +0.000 C 
ATOM     15  F   UNL     1      44.258   3.051   8.029  0.00  0.00    +0.000 F 
ATOM     16  F   UNL     1      44.244   1.112   9.028  0.00  0.00    +0.000 F 
ENDBRANCH   7  14
ENDBRANCH   1   9
BRANCH   5  17
ATOM     17  N   UNL     1      48.361   8.588  11.929  0.00  0.00    +0.000 N 
ATOM     18  H   UNL     1      48.262   8.555  10.920  0.00  0.00    +0.000 HD
BRANCH  17  19
ATOM     19  C   UNL     1      49.615   9.218  12.354  0.00  0.00    +0.000 C 
BRANCH  19  20
ATOM     20  C   UNL     1      50.742   8.927  11.383  0.00  0.00    +0.000 A 
ATOM     21  C   UNL     1      50.993   7.616  10.973  0.00  0.00    +0.000 A 
ATOM     22  C   UNL     1      52.040   7.373  10.089  0.00  0.00    +0.000 A 
ATOM     23  C   UNL     1      52.809   8.436   9.639  0.00  0.00    +0.000 A 
ATOM     24  C   UNL     1      52.501   9.707  10.096  0.00  0.00    +0.000 A 
ATOM     25  N   UNL     1      51.492   9.976  10.956  0.00  0.00    +0.000 NA
ENDBRANCH  19  20
ENDBRANCH  17  19
ENDBRANCH   5  17
TORSDOF 5
ENDMDL
