MODEL 1
REMARK VINA RESULT:    -6.163      0.000      0.000
REMARK INTER + INTRA:          -8.256
REMARK INTER:                  -7.784
REMARK INTRA:                  -0.472
REMARK UNBOUND:                -0.472
REMARK  Name = 
REMARK  8 active torsions:
REMARK  status: ('A' for Active; 'I' for Inactive)
REMARK    1  A    between atoms: C_1  and  C_2
REMARK    2  A    between atoms: C_2  and  C_3
REMARK    3  A    between atoms: C_2  and  C_4
REMARK    4  A    between atoms: C_2  and  C_5
REMARK    5  A    between atoms: C_9  and  C_10
REMARK    6  A    between atoms: C_10  and  O_11
REMARK    7  A    between atoms: C_15  and  C_16
REMARK    8  A    between atoms: C_16  and  N_17
REMARK                            x       y       z     vdW  Elec       q    Type
REMARK                         _______ _______ _______ _____ _____    ______ ____
ROOT
ATOM      1  C   UNL     1      48.253   6.851  14.447  0.00  0.00    +0.000 A 
ATOM      2  C   UNL     1      48.731   7.330  15.753  0.00  0.00    +0.000 A 
ATOM      3  C   UNL     1      48.735   6.547  16.848  0.00  0.00    +0.000 A 
ATOM      4  N   UNL     1      48.238   5.264  16.728  0.00  0.00    +0.000 N 
ATOM      5  C   UNL     1      48.180   4.261  17.677  0.00  0.00    +0.000 A 
ATOM      6  C   UNL     1      47.539   3.220  17.040  0.00  0.00    +0.000 A 
ATOM      7  N   UNL     1      47.217   3.546  15.750  0.00  0.00    +0.000 NA
ATOM      8  C   UNL     1      47.679   4.771  15.553  0.00  0.00    +0.000 A 
ATOM      9  C   UNL     1      47.655   5.606  14.357  0.00  0.00    +0.000 A 
ENDROOT
BRANCH   1  11
ATOM     10  C   UNL     1      49.459   9.019  13.969  0.00  0.00    +0.000 C 
ATOM     11  C   UNL     1      48.568   7.910  13.330  0.00  0.00    +0.000 C 
ATOM     12  C   UNL     1      47.296   8.588  12.761  0.00  0.00    +0.000 C 
ATOM     13  C   UNL     1      49.357   7.390  12.114  0.00  0.00    +0.000 C 
ENDBRANCH   1  11
BRANCH   5  14
ATOM     14  C   UNL     1      48.707   4.363  19.048  0.00  0.00    +0.000 C 
BRANCH  14  15
ATOM     15  O   UNL     1      48.331   3.183  19.743  0.00  0.00    +0.000 OA
ATOM     16  H   UNL     1      47.522   3.395  20.239  0.00  0.00    +0.000 HD
ENDBRANCH  14  15
ENDBRANCH   5  14
BRANCH   9  17
ATOM     17  C   UNL     1      46.785   5.104  13.177  0.00  0.00    +0.000 C 
BRANCH  17  18
ATOM     18  N   UNL     1      45.350   4.691  13.330  0.00  0.00    +0.000 NA
ATOM     19  C   UNL     1      44.445   5.790  12.947  0.00  0.00    +0.000 C 
ATOM     20  C   UNL     1      43.029   5.439  12.455  0.00  0.00    +0.000 C 
ATOM     21  C   UNL     1      42.960   4.227  11.542  0.00  0.00    +0.000 C 
ATOM     22  C   UNL     1      43.750   3.072  12.122  0.00  0.00    +0.000 C 
ATOM     23  C   UNL     1      45.172   3.470  12.526  0.00  0.00    +0.000 C 
ENDBRANCH  17  18
ENDBRANCH   9  17
TORSDOF 5
ENDMDL
MODEL 2
REMARK VINA RESULT:    -5.823      2.564      5.713
REMARK INTER + INTRA:          -7.827
REMARK INTER:                  -7.213
REMARK INTRA:                  -0.615
REMARK UNBOUND:                -0.472
REMARK  Name = 
REMARK  8 active torsions:
REMARK  status: ('A' for Active; 'I' for Inactive)
REMARK    1  A    between atoms: C_1  and  C_2
REMARK    2  A    between atoms: C_2  and  C_3
REMARK    3  A    between atoms: C_2  and  C_4
REMARK    4  A    between atoms: C_2  and  C_5
REMARK    5  A    between atoms: C_9  and  C_10
REMARK    6  A    between atoms: C_10  and  O_11
REMARK    7  A    between atoms: C_15  and  C_16
REMARK    8  A    between atoms: C_16  and  N_17
REMARK                            x       y       z     vdW  Elec       q    Type
REMARK                         _______ _______ _______ _____ _____    ______ ____
ROOT
ATOM      1  C   UNL     1      47.207   7.215  13.031  0.00  0.00    +0.000 A 
ATOM      2  C   UNL     1      46.332   7.721  11.962  0.00  0.00    +0.000 A 
ATOM      3  C   UNL     1      45.186   7.103  11.619  0.00  0.00    +0.000 A 
ATOM      4  N   UNL     1      44.854   5.939  12.283  0.00  0.00    +0.000 N 
ATOM      5  C   UNL     1      43.723   5.156  12.154  0.00  0.00    +0.000 A 
ATOM      6  C   UNL     1      43.940   4.093  13.006  0.00  0.00    +0.000 A 
ATOM      7  N   UNL     1      45.144   4.205  13.647  0.00  0.00    +0.000 NA
ATOM      8  C   UNL     1      45.676   5.346  13.237  0.00  0.00    +0.000 A 
ATOM      9  C   UNL     1      46.928   5.993  13.616  0.00  0.00    +0.000 A 
ENDROOT
BRANCH   1  11
ATOM     10  C   UNL     1      48.068   9.526  12.482  0.00  0.00    +0.000 C 
ATOM     11  C   UNL     1      48.344   8.254  13.340  0.00  0.00    +0.000 C 
ATOM     12  C   UNL     1      49.758   7.731  12.977  0.00  0.00    +0.000 C 
ATOM     13  C   UNL     1      48.431   8.744  14.798  0.00  0.00    +0.000 C 
ENDBRANCH   1  11
BRANCH   5  14
ATOM     14  C   UNL     1      42.582   5.458  11.275  0.00  0.00    +0.000 C 
BRANCH  14  15
ATOM     15  O   UNL     1      41.813   6.474  11.900  0.00  0.00    +0.000 OA
ATOM     16  H   UNL     1      42.307   7.306  11.797  0.00  0.00    +0.000 HD
ENDBRANCH  14  15
ENDBRANCH   5  14
BRANCH   9  17
ATOM     17  C   UNL     1      47.911   5.154  14.470  0.00  0.00    +0.000 C 
BRANCH  17  18
ATOM     18  N   UNL     1      47.745   4.941  15.947  0.00  0.00    +0.000 NA
ATOM     19  C   UNL     1      47.528   3.515  16.251  0.00  0.00    +0.000 C 
ATOM     20  C   UNL     1      47.924   2.992  17.644  0.00  0.00    +0.000 C 
ATOM     21  C   UNL     1      49.227   3.554  18.183  0.00  0.00    +0.000 C 
ATOM     22  C   UNL     1      49.273   5.059  18.019  0.00  0.00    +0.000 C 
ATOM     23  C   UNL     1      48.939   5.511  16.595  0.00  0.00    +0.000 C 
ENDBRANCH  17  18
ENDBRANCH   9  17
TORSDOF 5
ENDMDL
MODEL 3
REMARK VINA RESULT:    -5.599      2.149      4.834
REMARK INTER + INTRA:          -7.544
REMARK INTER:                  -7.087
REMARK INTRA:                  -0.458
REMARK UNBOUND:                -0.472
REMARK  Name = 
REMARK  8 active torsions:
REMARK  status: ('A' for Active; 'I' for Inactive)
REMARK    1  A    between atoms: C_1  and  C_2
REMARK    2  A    between atoms: C_2  and  C_3
REMARK    3  A    between atoms: C_2  and  C_4
REMARK    4  A    between atoms: C_2  and  C_5
REMARK    5  A    between atoms: C_9  and  C_10
REMARK    6  A    between atoms: C_10  and  O_11
REMARK    7  A    between atoms: C_15  and  C_16
REMARK    8  A    between atoms: C_16  and  N_17
REMARK                            x       y       z     vdW  Elec       q    Type
REMARK                         _______ _______ _______ _____ _____    ______ ____
ROOT
ATOM      1  C   UNL     1      45.847   4.785  12.039  0.00  0.00    +0.000 A 
ATOM      2  C   UNL     1      45.876   3.466  12.689  0.00  0.00    +0.000 A 
ATOM      3  C   UNL     1      46.465   3.267  13.883  0.00  0.00    +0.000 A 
ATOM      4  N   UNL     1      47.087   4.343  14.486  0.00  0.00    +0.000 N 
ATOM      5  C   UNL     1      47.709   4.409  15.717  0.00  0.00    +0.000 A 
ATOM      6  C   UNL     1      48.202   5.695  15.786  0.00  0.00    +0.000 A 
ATOM      7  N   UNL     1      47.897   6.408  14.658  0.00  0.00    +0.000 NA
ATOM      8  C   UNL     1      47.186   5.596  13.890  0.00  0.00    +0.000 A 
ATOM      9  C   UNL     1      46.563   5.832  12.592  0.00  0.00    +0.000 A 
ENDROOT
BRANCH   1  11
ATOM     10  C   UNL     1      43.702   5.687  11.055  0.00  0.00    +0.000 C 
ATOM     11  C   UNL     1      44.915   4.749  10.775  0.00  0.00    +0.000 C 
ATOM     12  C   UNL     1      44.362   3.333  10.470  0.00  0.00    +0.000 C 
ATOM     13  C   UNL     1      45.540   5.257   9.462  0.00  0.00    +0.000 C 
ENDBRANCH   1  11
BRANCH   5  14
ATOM     14  C   UNL     1      47.789   3.303  16.686  0.00  0.00    +0.000 C 
BRANCH  14  15
ATOM     15  O   UNL     1      46.572   3.282  17.418  0.00  0.00    +0.000 OA
ATOM     16  H   UNL     1      45.870   3.563  16.806  0.00  0.00    +0.000 HD
ENDBRANCH  14  15
ENDBRANCH   5  14
BRANCH   9  17
ATOM     17  C   UNL     1      46.939   7.151  11.872  0.00  0.00    +0.000 C 
BRANCH  17  18
ATOM     18  N   UNL     1      46.601   8.510  12.413  0.00  0.00    +0.000 NA
ATOM     19  C   UNL     1      47.643   9.491  12.056  0.00  0.00    +0.000 C 
ATOM     20  C   UNL     1      47.252  10.977  11.964  0.00  0.00    +0.000 C 
ATOM     21  C   UNL     1      45.902  11.237  11.319  0.00  0.00    +0.000 C 
ATOM     22  C   UNL     1      44.843  10.323  11.900  0.00  0.00    +0.000 C 
ATOM     23  C   UNL     1      45.264   8.852  11.899  0.00  0.00    +0.000 C 
ENDBRANCH  17  18
ENDBRANCH   9  17
TORSDOF 5
ENDMDL
MODEL 4
REMARK VINA RESULT:    -5.385      2.853      5.859
REMARK INTER + INTRA:          -7.273
REMARK INTER:                  -6.451
REMARK INTRA:                  -0.823
REMARK UNBOUND:                -0.472
REMARK  Name = 
REMARK  8 active torsions:
REMARK  status: ('A' for Active; 'I' for Inactive)
REMARK    1  A    between atoms: C_1  and  C_2
REMARK    2  A    between atoms: C_2  and  C_3
REMARK    3  A    between atoms: C_2  and  C_4
REMARK    4  A    between atoms: C_2  and  C_5
REMARK    5  A    between atoms: C_9  and  C_10
REMARK    6  A    between atoms: C_10  and  O_11
REMARK    7  A    between atoms: C_15  and  C_16
REMARK    8  A    between atoms: C_16  and  N_17
REMARK                            x       y       z     vdW  Elec       q    Type
REMARK                         _______ _______ _______ _____ _____    ______ ____
ROOT
ATOM      1  C   UNL     1      47.187   8.511  12.341  0.00  0.00    +0.000 A 
ATOM      2  C   UNL     1      45.819   8.584  11.804  0.00  0.00    +0.000 A 
ATOM      3  C   UNL     1      44.961   7.549  11.882  0.00  0.00    +0.000 A 
ATOM      4  N   UNL     1      45.409   6.377  12.459  0.00  0.00    +0.000 N 
ATOM      5  C   UNL     1      44.717   5.207  12.701  0.00  0.00    +0.000 A 
ATOM      6  C   UNL     1      45.659   4.353  13.236  0.00  0.00    +0.000 A 
ATOM      7  N   UNL     1      46.882   4.959  13.336  0.00  0.00    +0.000 NA
ATOM      8  C   UNL     1      46.716   6.199  12.902  0.00  0.00    +0.000 A 
ATOM      9  C   UNL     1      47.666   7.303  12.818  0.00  0.00    +0.000 A 
ENDROOT
BRANCH   1  11
ATOM     10  C   UNL     1      46.808  10.941  11.763  0.00  0.00    +0.000 C 
ATOM     11  C   UNL     1      47.866   9.926  12.294  0.00  0.00    +0.000 C 
ATOM     12  C   UNL     1      49.093   9.978  11.348  0.00  0.00    +0.000 C 
ATOM     13  C   UNL     1      48.343  10.490  13.645  0.00  0.00    +0.000 C 
ENDBRANCH   1  11
BRANCH   5  14
ATOM     14  C   UNL     1      43.288   4.995  12.417  0.00  0.00    +0.000 C 
BRANCH  14  15
ATOM     15  O   UNL     1      42.551   5.470  13.535  0.00  0.00    +0.000 OA
ATOM     16  H   UNL     1      42.561   6.442  13.486  0.00  0.00    +0.000 HD
ENDBRANCH  14  15
ENDBRANCH   5  14
BRANCH   9  17
ATOM     17  C   UNL     1      49.155   6.958  13.071  0.00  0.00    +0.000 C 
BRANCH  17  18
ATOM     18  N   UNL     1      49.800   7.038  14.425  0.00  0.00    +0.000 NA
ATOM     19  C   UNL     1      50.867   8.055  14.439  0.00  0.00    +0.000 C 
ATOM     20  C   UNL     1      51.232   8.719  15.778  0.00  0.00    +0.000 C 
ATOM     21  C   UNL     1      50.044   9.049  16.665  0.00  0.00    +0.000 C 
ATOM     22  C   UNL     1      49.102   7.867  16.763  0.00  0.00    +0.000 C 
ATOM     23  C   UNL     1      48.722   7.297  15.394  0.00  0.00    +0.000 C 
ENDBRANCH  17  18
ENDBRANCH   9  17
TORSDOF 5
ENDMDL
MODEL 5
REMARK VINA RESULT:    -5.294      2.785      5.738
REMARK INTER + INTRA:          -7.158
REMARK INTER:                  -6.690
REMARK INTRA:                  -0.468
REMARK UNBOUND:                -0.472
REMARK  Name = 
REMARK  8 active torsions:
REMARK  status: ('A' for Active; 'I' for Inactive)
REMARK    1  A    between atoms: C_1  and  C_2
REMARK    2  A    between atoms: C_2  and  C_3
REMARK    3  A    between atoms: C_2  and  C_4
REMARK    4  A    between atoms: C_2  and  C_5
REMARK    5  A    between atoms: C_9  and  C_10
REMARK    6  A    between atoms: C_10  and  O_11
REMARK    7  A    between atoms: C_15  and  C_16
REMARK    8  A    between atoms: C_16  and  N_17
REMARK                            x       y       z     vdW  Elec       q    Type
REMARK                         _______ _______ _______ _____ _____    ______ ____
ROOT
ATOM      1  C   UNL     1      47.006   6.695  12.595  0.00  0.00    +0.000 A 
ATOM      2  C   UNL     1      46.859   6.573  11.137  0.00  0.00    +0.000 A 
ATOM      3  C   UNL     1      46.106   5.612  10.569  0.00  0.00    +0.000 A 
ATOM      4  N   UNL     1      45.486   4.700  11.400  0.00  0.00    +0.000 N 
ATOM      5  C   UNL     1      44.630   3.666  11.072  0.00  0.00    +0.000 A 
ATOM      6  C   UNL     1      44.361   3.046  12.274  0.00  0.00    +0.000 A 
ATOM      7  N   UNL     1      45.006   3.664  13.310  0.00  0.00    +0.000 NA
ATOM      8  C   UNL     1      45.654   4.691  12.781  0.00  0.00    +0.000 A 
ATOM      9  C   UNL     1      46.474   5.716  13.417  0.00  0.00    +0.000 A 
ENDROOT
BRANCH   1  11
ATOM     10  C   UNL     1      46.788   8.909  13.792  0.00  0.00    +0.000 C 
ATOM     11  C   UNL     1      47.762   8.023  12.957  0.00  0.00    +0.000 C 
ATOM     12  C   UNL     1      48.193   8.835  11.708  0.00  0.00    +0.000 C 
ATOM     13  C   UNL     1      49.027   7.865  13.821  0.00  0.00    +0.000 C 
ENDBRANCH   1  11
BRANCH   5  14
ATOM     14  C   UNL     1      44.159   3.357   9.711  0.00  0.00    +0.000 C 
BRANCH  14  15
ATOM     15  O   UNL     1      44.446   1.990   9.455  0.00  0.00    +0.000 OA
ATOM     16  H   UNL     1      44.894   1.953   8.593  0.00  0.00    +0.000 HD
ENDBRANCH  14  15
ENDBRANCH   5  14
BRANCH   9  17
ATOM     17  C   UNL     1      46.837   5.490  14.906  0.00  0.00    +0.000 C 
BRANCH  17  18
ATOM     18  N   UNL     1      48.066   4.750  15.351  0.00  0.00    +0.000 NA
ATOM     19  C   UNL     1      48.758   5.482  16.427  0.00  0.00    +0.000 C 
ATOM     20  C   UNL     1      49.633   4.686  17.412  0.00  0.00    +0.000 C 
ATOM     21  C   UNL     1      49.048   3.351  17.841  0.00  0.00    +0.000 C 
ATOM     22  C   UNL     1      48.550   2.572  16.641  0.00  0.00    +0.000 C 
ATOM     23  C   UNL     1      47.629   3.398  15.739  0.00  0.00    +0.000 C 
ENDBRANCH  17  18
ENDBRANCH   9  17
TORSDOF 5
ENDMDL
MODEL 6
REMARK VINA RESULT:    -5.106      2.428      5.477
REMARK INTER + INTRA:          -6.921
REMARK INTER:                  -6.275
REMARK INTRA:                  -0.646
REMARK UNBOUND:                -0.472
REMARK  Name = 
REMARK  8 active torsions:
REMARK  status: ('A' for Active; 'I' for Inactive)
REMARK    1  A    between atoms: C_1  and  C_2
REMARK    2  A    between atoms: C_2  and  C_3
REMARK    3  A    between atoms: C_2  and  C_4
REMARK    4  A    between atoms: C_2  and  C_5
REMARK    5  A    between atoms: C_9  and  C_10
REMARK    6  A    between atoms: C_10  and  O_11
REMARK    7  A    between atoms: C_15  and  C_16
REMARK    8  A    between atoms: C_16  and  N_17
REMARK                            x       y       z     vdW  Elec       q    Type
REMARK                         _______ _______ _______ _____ _____    ______ ____
ROOT
ATOM      1  C   UNL     1      48.697   8.161  12.928  0.00  0.00    +0.000 A 
ATOM      2  C   UNL     1      47.794   7.744  11.845  0.00  0.00    +0.000 A 
ATOM      3  C   UNL     1      47.013   6.651  11.941  0.00  0.00    +0.000 A 
ATOM      4  N   UNL     1      47.102   5.892  13.091  0.00  0.00    +0.000 N 
ATOM      5  C   UNL     1      46.380   4.770  13.451  0.00  0.00    +0.000 A 
ATOM      6  C   UNL     1      46.915   4.389  14.663  0.00  0.00    +0.000 A 
ATOM      7  N   UNL     1      47.918   5.234  15.053  0.00  0.00    +0.000 NA
ATOM      8  C   UNL     1      48.000   6.167  14.117  0.00  0.00    +0.000 A 
ATOM      9  C   UNL     1      48.864   7.340  14.029  0.00  0.00    +0.000 A 
ENDROOT
BRANCH   1  11
ATOM     10  C   UNL     1      48.573  10.138  11.359  0.00  0.00    +0.000 C 
ATOM     11  C   UNL     1      49.310   9.573  12.612  0.00  0.00    +0.000 C 
ATOM     12  C   UNL     1      50.825   9.518  12.291  0.00  0.00    +0.000 C 
ATOM     13  C   UNL     1      49.143  10.640  13.710  0.00  0.00    +0.000 C 
ENDBRANCH   1  11
BRANCH   5  14
ATOM     14  C   UNL     1      45.294   4.173  12.656  0.00  0.00    +0.000 C 
BRANCH  14  15
ATOM     15  O   UNL     1      45.466   2.764  12.680  0.00  0.00    +0.000 OA
ATOM     16  H   UNL     1      46.311   2.591  13.129  0.00  0.00    +0.000 HD
ENDBRANCH  14  15
ENDBRANCH   5  14
BRANCH   9  17
ATOM     17  C   UNL     1      50.015   7.433  15.062  0.00  0.00    +0.000 C 
BRANCH  17  18
ATOM     18  N   UNL     1      49.842   8.008  16.438  0.00  0.00    +0.000 NA
ATOM     19  C   UNL     1      48.545   8.700  16.558  0.00  0.00    +0.000 C 
ATOM     20  C   UNL     1      47.905   8.825  17.953  0.00  0.00    +0.000 C 
ATOM     21  C   UNL     1      48.036   7.586  18.821  0.00  0.00    +0.000 C 
ATOM     22  C   UNL     1      49.458   7.064  18.804  0.00  0.00    +0.000 C 
ATOM     23  C   UNL     1      50.011   6.895  17.387  0.00  0.00    +0.000 C 
ENDBRANCH  17  18
ENDBRANCH   9  17
TORSDOF 5
ENDMDL
MODEL 7
REMARK VINA RESULT:    -5.078      3.075      6.496
REMARK INTER + INTRA:          -6.886
REMARK INTER:                  -6.800
REMARK INTRA:                  -0.086
REMARK UNBOUND:                -0.472
REMARK  Name = 
REMARK  8 active torsions:
REMARK  status: ('A' for Active; 'I' for Inactive)
REMARK    1  A    between atoms: C_1  and  C_2
REMARK    2  A    between atoms: C_2  and  C_3
REMARK    3  A    between atoms: C_2  and  C_4
REMARK    4  A    between atoms: C_2  and  C_5
REMARK    5  A    between atoms: C_9  and  C_10
REMARK    6  A    between atoms: C_10  and  O_11
REMARK    7  A    between atoms: C_15  and  C_16
REMARK    8  A    between atoms: C_16  and  N_17
REMARK                            x       y       z     vdW  Elec       q    Type
REMARK                         _______ _______ _______ _____ _____    ______ ____
ROOT
ATOM      1  C   UNL     1      45.274   5.892  12.215  0.00  0.00    +0.000 A 
ATOM      2  C   UNL     1      44.432   6.994  11.726  0.00  0.00    +0.000 A 
ATOM      3  C   UNL     1      44.887   8.258  11.628  0.00  0.00    +0.000 A 
ATOM      4  N   UNL     1      46.181   8.513  12.038  0.00  0.00    +0.000 N 
ATOM      5  C   UNL     1      46.891   9.698  11.991  0.00  0.00    +0.000 A 
ATOM      6  C   UNL     1      48.102   9.398  12.579  0.00  0.00    +0.000 A 
ATOM      7  N   UNL     1      48.157   8.088  12.969  0.00  0.00    +0.000 NA
ATOM      8  C   UNL     1      47.006   7.545  12.601  0.00  0.00    +0.000 A 
ATOM      9  C   UNL     1      46.530   6.171  12.727  0.00  0.00    +0.000 A 
ENDROOT
BRANCH   1  11
ATOM     10  C   UNL     1      43.410   4.425  13.083  0.00  0.00    +0.000 C 
ATOM     11  C   UNL     1      44.542   4.517  12.015  0.00  0.00    +0.000 C 
ATOM     12  C   UNL     1      45.479   3.297  12.207  0.00  0.00    +0.000 C 
ATOM     13  C   UNL     1      43.849   4.315  10.654  0.00  0.00    +0.000 C 
ENDBRANCH   1  11
BRANCH   5  14
ATOM     14  C   UNL     1      46.391  10.961  11.424  0.00  0.00    +0.000 C 
BRANCH  14  15
ATOM     15  O   UNL     1      45.348  11.429  12.266  0.00  0.00    +0.000 OA
ATOM     16  H   UNL     1      45.655  11.320  13.183  0.00  0.00    +0.000 HD
ENDBRANCH  14  15
ENDBRANCH   5  14
BRANCH   9  17
ATOM     17  C   UNL     1      47.383   5.218  13.599  0.00  0.00    +0.000 C 
BRANCH  17  18
ATOM     18  N   UNL     1      47.231   5.107  15.089  0.00  0.00    +0.000 NA
ATOM     19  C   UNL     1      47.211   3.694  15.511  0.00  0.00    +0.000 C 
ATOM     20  C   UNL     1      47.659   3.348  16.942  0.00  0.00    +0.000 C 
ATOM     21  C   UNL     1      48.865   4.129  17.433  0.00  0.00    +0.000 C 
ATOM     22  C   UNL     1      48.703   5.607  17.144  0.00  0.00    +0.000 C 
ATOM     23  C   UNL     1      48.326   5.888  15.687  0.00  0.00    +0.000 C 
ENDBRANCH  17  18
ENDBRANCH   9  17
TORSDOF 5
ENDMDL
MODEL 8
REMARK VINA RESULT:    -5.028      2.904      6.009
REMARK INTER + INTRA:          -6.822
REMARK INTER:                  -6.061
REMARK INTRA:                  -0.761
REMARK UNBOUND:                -0.472
REMARK  Name = 
REMARK  8 active torsions:
REMARK  status: ('A' for Active; 'I' for Inactive)
REMARK    1  A    between atoms: C_1  and  C_2
REMARK    2  A    between atoms: C_2  and  C_3
REMARK    3  A    between atoms: C_2  and  C_4
REMARK    4  A    between atoms: C_2  and  C_5
REMARK    5  A    between atoms: C_9  and  C_10
REMARK    6  A    between atoms: C_10  and  O_11
REMARK    7  A    between atoms: C_15  and  C_16
REMARK    8  A    between atoms: C_16  and  N_17
REMARK                            x       y       z     vdW  Elec       q    Type
REMARK                         _______ _______ _______ _____ _____    ______ ____
ROOT
ATOM      1  C   UNL     1      47.907   6.660  14.306  0.00  0.00    +0.000 A 
ATOM      2  C   UNL     1      47.284   5.418  14.788  0.00  0.00    +0.000 A 
ATOM      3  C   UNL     1      46.456   4.684  14.020  0.00  0.00    +0.000 A 
ATOM      4  N   UNL     1      46.169   5.148  12.752  0.00  0.00    +0.000 N 
ATOM      5  C   UNL     1      45.401   4.561  11.764  0.00  0.00    +0.000 A 
ATOM      6  C   UNL     1      45.405   5.478  10.734  0.00  0.00    +0.000 A 
ATOM      7  N   UNL     1      46.146   6.583  11.052  0.00  0.00    +0.000 NA
ATOM      8  C   UNL     1      46.641   6.361  12.259  0.00  0.00    +0.000 A 
ATOM      9  C   UNL     1      47.531   7.177  13.078  0.00  0.00    +0.000 A 
ENDROOT
BRANCH   1  11
ATOM     10  C   UNL     1      49.082   6.105  16.472  0.00  0.00    +0.000 C 
ATOM     11  C   UNL     1      48.974   7.170  15.339  0.00  0.00    +0.000 C 
ATOM     12  C   UNL     1      48.590   8.524  15.991  0.00  0.00    +0.000 C 
ATOM     13  C   UNL     1      50.405   7.347  14.797  0.00  0.00    +0.000 C 
ENDBRANCH   1  11
BRANCH   5  14
ATOM     14  C   UNL     1      44.752   3.244  11.869  0.00  0.00    +0.000 C 
BRANCH  14  15
ATOM     15  O   UNL     1      45.021   2.534  10.670  0.00  0.00    +0.000 OA
ATOM     16  H   UNL     1      45.989   2.487  10.581  0.00  0.00    +0.000 HD
ENDBRANCH  14  15
ENDBRANCH   5  14
BRANCH   9  17
ATOM     17  C   UNL     1      47.796   8.622  12.586  0.00  0.00    +0.000 C 
BRANCH  17  18
ATOM     18  N   UNL     1      48.953   8.991  11.702  0.00  0.00    +0.000 NA
ATOM     19  C   UNL     1      49.782  10.034  12.332  0.00  0.00    +0.000 C 
ATOM     20  C   UNL     1      51.267  10.131  11.937  0.00  0.00    +0.000 C 
ATOM     21  C   UNL     1      51.965   8.793  11.770  0.00  0.00    +0.000 C 
ATOM     22  C   UNL     1      51.130   7.851  10.928  0.00  0.00    +0.000 C 
ATOM     23  C   UNL     1      49.683   7.745  11.416  0.00  0.00    +0.000 C 
ENDBRANCH  17  18
ENDBRANCH   9  17
TORSDOF 5
ENDMDL
MODEL 9
REMARK VINA RESULT:    -4.950      2.884      5.940
REMARK INTER + INTRA:          -6.724
REMARK INTER:                  -6.479
REMARK INTRA:                  -0.245
REMARK UNBOUND:                -0.472
REMARK  Name = 
REMARK  8 active torsions:
REMARK  status: ('A' for Active; 'I' for Inactive)
REMARK    1  A    between atoms: C_1  and  C_2
REMARK    2  A    between atoms: C_2  and  C_3
REMARK    3  A    between atoms: C_2  and  C_4
REMARK    4  A    between atoms: C_2  and  C_5
REMARK    5  A    between atoms: C_9  and  C_10
REMARK    6  A    between atoms: C_10  and  O_11
REMARK    7  A    between atoms: C_15  and  C_16
REMARK    8  A    between atoms: C_16  and  N_17
REMARK                            x       y       z     vdW  Elec       q    Type
REMARK                         _______ _______ _______ _____ _____    ______ ____
ROOT
ATOM      1  C   UNL     1      46.684   5.934  12.591  0.00  0.00    +0.000 A 
ATOM      2  C   UNL     1      46.923   6.899  11.508  0.00  0.00    +0.000 A 
ATOM      3  C   UNL     1      48.004   7.702  11.485  0.00  0.00    +0.000 A 
ATOM      4  N   UNL     1      48.890   7.624  12.542  0.00  0.00    +0.000 N 
ATOM      5  C   UNL     1      50.084   8.294  12.727  0.00  0.00    +0.000 A 
ATOM      6  C   UNL     1      50.520   7.884  13.969  0.00  0.00    +0.000 A 
ATOM      7  N   UNL     1      49.650   6.993  14.535  0.00  0.00    +0.000 NA
ATOM      8  C   UNL     1      48.684   6.807  13.649  0.00  0.00    +0.000 A 
ATOM      9  C   UNL     1      47.514   5.937  13.699  0.00  0.00    +0.000 A 
ENDROOT
BRANCH   1  11
ATOM     10  C   UNL     1      45.204   5.141  10.704  0.00  0.00    +0.000 C 
ATOM     11  C   UNL     1      45.470   5.004  12.234  0.00  0.00    +0.000 C 
ATOM     12  C   UNL     1      44.168   5.392  12.981  0.00  0.00    +0.000 C 
ATOM     13  C   UNL     1      45.677   3.499  12.488  0.00  0.00    +0.000 C 
ENDBRANCH   1  11
BRANCH   5  14
ATOM     14  C   UNL     1      50.688   9.227  11.762  0.00  0.00    +0.000 C 
BRANCH  14  15
ATOM     15  O   UNL     1      51.638   8.501  10.996  0.00  0.00    +0.000 OA
ATOM     16  H   UNL     1      52.452   9.032  10.980  0.00  0.00    +0.000 HD
ENDBRANCH  14  15
ENDBRANCH   5  14
BRANCH   9  17
ATOM     17  C   UNL     1      47.206   5.266  15.061  0.00  0.00    +0.000 C 
BRANCH  17  18
ATOM     18  N   UNL     1      48.261   4.649  15.933  0.00  0.00    +0.000 NA
ATOM     19  C   UNL     1      48.337   5.340  17.234  0.00  0.00    +0.000 C 
ATOM     20  C   UNL     1      48.868   4.561  18.450  0.00  0.00    +0.000 C 
ATOM     21  C   UNL     1      48.394   3.121  18.535  0.00  0.00    +0.000 C 
ATOM     22  C   UNL     1      48.550   2.424  17.199  0.00  0.00    +0.000 C 
ATOM     23  C   UNL     1      47.939   3.217  16.041  0.00  0.00    +0.000 C 
ENDBRANCH  17  18
ENDBRANCH   9  17
TORSDOF 5
ENDMDL
