MODEL 1
REMARK VINA RESULT:    -8.809      0.000      0.000
REMARK INTER + INTRA:         -10.678
REMARK INTER:                 -10.869
REMARK INTRA:                   0.190
REMARK UNBOUND:                 0.190
REMARK  Name = 
REMARK  4 active torsions:
REMARK  status: ('A' for Active; 'I' for Inactive)
REMARK    1  A    between atoms: C_2  and  C_4
REMARK    2  A    between atoms: N_8  and  C_9
REMARK    3  A    between atoms: C_9  and  C_10
REMARK    4  A    between atoms: C_14  and  C_15
REMARK                            x       y       z     vdW  Elec       q    Type
REMARK                         _______ _______ _______ _____ _____    ______ ____
ROOT
ATOM      1  C   UNL     1      43.948   4.737  11.535  0.00  0.00    +0.000 C 
ATOM      2  C   UNL     1      42.699   5.143  12.301  0.00  0.00    +0.000 C 
ATOM      3  C   UNL     1      43.018   5.836  11.020  0.00  0.00    +0.000 C 
ENDROOT
BRANCH   1   8
ATOM      4  C   UNL     1      46.391   2.691   7.556  0.00  0.00    +0.000 A 
ATOM      5  C   UNL     1      45.922   1.721   8.407  0.00  0.00    +0.000 A 
ATOM      6  N   UNL     1      45.139   1.982   9.476  0.00  0.00    +0.000 NA
ATOM      7  C   UNL     1      44.832   3.271   9.714  0.00  0.00    +0.000 A 
ATOM      8  N   UNL     1      43.972   3.475  10.794  0.00  0.00    +0.000 N 
ATOM      9  N   UNL     1      45.300   4.292   8.979  0.00  0.00    +0.000 NA
ATOM     10  C   UNL     1      46.073   3.980   7.911  0.00  0.00    +0.000 A 
ATOM     11  H   UNL     1      43.915   2.601  11.299  0.00  0.00    +0.000 HD
BRANCH   4  13
ATOM     12  N   UNL     1      47.128   3.318   5.331  0.00  0.00    +0.000 N 
ATOM     13  C   UNL     1      47.181   2.405   6.351  0.00  0.00    +0.000 C 
ATOM     14  O   UNL     1      47.890   1.414   6.280  0.00  0.00    +0.000 OA
ATOM     15  H   UNL     1      47.767   3.162   4.561  0.00  0.00    +0.000 HD
ATOM     16  H   UNL     1      46.763   4.257   5.431  0.00  0.00    +0.000 HD
ENDBRANCH   4  13
ENDBRANCH   1   8
BRANCH   1  17
ATOM     17  C   UNL     1      45.311   5.234  12.006  0.00  0.00    +0.000 A 
ATOM     18  C   UNL     1      45.992   6.250  11.316  0.00  0.00    +0.000 A 
ATOM     19  C   UNL     1      47.159   6.813  11.828  0.00  0.00    +0.000 A 
ATOM     20  C   UNL     1      47.669   6.368  13.048  0.00  0.00    +0.000 A 
ATOM     21  C   UNL     1      47.042   5.337  13.766  0.00  0.00    +0.000 A 
ATOM     22  C   UNL     1      45.887   4.765  13.201  0.00  0.00    +0.000 A 
BRANCH  21  23
ATOM     23  C   UNL     1      47.522   4.916  15.098  0.00  0.00    +0.000 A 
ATOM     24  C   UNL     1      48.300   5.772  15.890  0.00  0.00    +0.000 A 
ATOM     25  C   UNL     1      48.701   5.360  17.151  0.00  0.00    +0.000 A 
ATOM     26  N   UNL     1      48.382   4.165  17.686  0.00  0.00    +0.000 NA
ATOM     27  C   UNL     1      47.629   3.350  16.922  0.00  0.00    +0.000 A 
ATOM     28  C   UNL     1      47.187   3.671  15.647  0.00  0.00    +0.000 A 
ENDBRANCH  21  23
ENDBRANCH   1  17
TORSDOF 4
ENDMDL
MODEL 2
REMARK VINA RESULT:    -8.771      2.143      3.373
REMARK INTER + INTRA:         -10.632
REMARK INTER:                 -10.639
REMARK INTRA:                   0.007
REMARK UNBOUND:                 0.190
REMARK  Name = 
REMARK  4 active torsions:
REMARK  status: ('A' for Active; 'I' for Inactive)
REMARK    1  A    between atoms: C_2  and  C_4
REMARK    2  A    between atoms: N_8  and  C_9
REMARK    3  A    between atoms: C_9  and  C_10
REMARK    4  A    between atoms: C_14  and  C_15
REMARK                            x       y       z     vdW  Elec       q    Type
REMARK                         _______ _______ _______ _____ _____    ______ ____
ROOT
ATOM      1  C   UNL     1      43.790   4.785  11.426  0.00  0.00    +0.000 C 
ATOM      2  C   UNL     1      42.469   5.364  11.906  0.00  0.00    +0.000 C 
ATOM      3  C   UNL     1      43.170   6.013  10.760  0.00  0.00    +0.000 C 
ENDROOT
BRANCH   1   8
ATOM      4  C   UNL     1      46.437   2.685   7.607  0.00  0.00    +0.000 A 
ATOM      5  C   UNL     1      45.845   1.726   8.391  0.00  0.00    +0.000 A 
ATOM      6  N   UNL     1      44.992   2.010   9.400  0.00  0.00    +0.000 NA
ATOM      7  C   UNL     1      44.739   3.308   9.646  0.00  0.00    +0.000 A 
ATOM      8  N   UNL     1      43.805   3.540  10.657  0.00  0.00    +0.000 N 
ATOM      9  N   UNL     1      45.322   4.317   8.978  0.00  0.00    +0.000 NA
ATOM     10  C   UNL     1      46.162   3.983   7.969  0.00  0.00    +0.000 A 
ATOM     11  H   UNL     1      43.658   2.660  11.133  0.00  0.00    +0.000 HD
BRANCH   4  13
ATOM     12  N   UNL     1      47.258   3.230   5.391  0.00  0.00    +0.000 N 
ATOM     13  C   UNL     1      47.306   2.380   6.463  0.00  0.00    +0.000 C 
ATOM     14  O   UNL     1      48.072   1.430   6.487  0.00  0.00    +0.000 OA
ATOM     15  H   UNL     1      47.946   3.070   4.665  0.00  0.00    +0.000 HD
ATOM     16  H   UNL     1      46.837   4.150   5.416  0.00  0.00    +0.000 HD
ENDBRANCH   4  13
ENDBRANCH   1   8
BRANCH   1  17
ATOM     17  C   UNL     1      45.065   5.071  12.214  0.00  0.00    +0.000 A 
ATOM     18  C   UNL     1      45.585   4.132  13.120  0.00  0.00    +0.000 A 
ATOM     19  C   UNL     1      46.826   4.321  13.723  0.00  0.00    +0.000 A 
ATOM     20  C   UNL     1      47.576   5.461  13.428  0.00  0.00    +0.000 A 
ATOM     21  C   UNL     1      47.092   6.443  12.549  0.00  0.00    +0.000 A 
ATOM     22  C   UNL     1      45.818   6.238  11.988  0.00  0.00    +0.000 A 
BRANCH  21  23
ATOM     23  C   UNL     1      47.911   7.610  12.163  0.00  0.00    +0.000 A 
ATOM     24  C   UNL     1      47.367   8.903  12.152  0.00  0.00    +0.000 A 
ATOM     25  C   UNL     1      48.174   9.980  11.823  0.00  0.00    +0.000 A 
ATOM     26  N   UNL     1      49.479   9.871  11.510  0.00  0.00    +0.000 NA
ATOM     27  C   UNL     1      49.997   8.627  11.528  0.00  0.00    +0.000 A 
ATOM     28  C   UNL     1      49.268   7.488  11.838  0.00  0.00    +0.000 A 
ENDBRANCH  21  23
ENDBRANCH   1  17
TORSDOF 4
ENDMDL
MODEL 3
REMARK VINA RESULT:    -7.938      2.966      7.740
REMARK INTER + INTRA:          -9.604
REMARK INTER:                  -9.322
REMARK INTRA:                  -0.282
REMARK UNBOUND:                 0.190
REMARK  Name = 
REMARK  4 active torsions:
REMARK  status: ('A' for Active; 'I' for Inactive)
REMARK    1  A    between atoms: C_2  and  C_4
REMARK    2  A    between atoms: N_8  and  C_9
REMARK    3  A    between atoms: C_9  and  C_10
REMARK    4  A    between atoms: C_14  and  C_15
REMARK                            x       y       z     vdW  Elec       q    Type
REMARK                         _______ _______ _______ _____ _____    ______ ____
ROOT
ATOM      1  C   UNL     1      48.630   7.625  13.073  0.00  0.00    +0.000 C 
ATOM      2  C   UNL     1      49.791   7.158  12.210  0.00  0.00    +0.000 C 
ATOM      3  C   UNL     1      49.492   8.617  12.292  0.00  0.00    +0.000 C 
ENDROOT
BRANCH   1   8
ATOM      4  C   UNL     1      48.025   4.387  16.964  0.00  0.00    +0.000 A 
ATOM      5  C   UNL     1      48.899   5.395  17.285  0.00  0.00    +0.000 A 
ATOM      6  N   UNL     1      49.149   6.451  16.479  0.00  0.00    +0.000 NA
ATOM      7  C   UNL     1      48.512   6.485  15.294  0.00  0.00    +0.000 A 
ATOM      8  N   UNL     1      48.760   7.626  14.531  0.00  0.00    +0.000 N 
ATOM      9  N   UNL     1      47.692   5.512  14.866  0.00  0.00    +0.000 NA
ATOM     10  C   UNL     1      47.465   4.479  15.712  0.00  0.00    +0.000 A 
ATOM     11  H   UNL     1      49.539   8.107  14.960  0.00  0.00    +0.000 HD
BRANCH   4  13
ATOM     12  N   UNL     1      48.480   3.109  18.976  0.00  0.00    +0.000 N 
ATOM     13  C   UNL     1      47.694   3.277  17.868  0.00  0.00    +0.000 C 
ATOM     14  O   UNL     1      46.728   2.559  17.658  0.00  0.00    +0.000 OA
ATOM     15  H   UNL     1      48.166   2.415  19.643  0.00  0.00    +0.000 HD
ATOM     16  H   UNL     1      49.124   3.809  19.323  0.00  0.00    +0.000 HD
ENDBRANCH   4  13
ENDBRANCH   1   8
BRANCH   1  17
ATOM     17  C   UNL     1      47.204   7.483  12.553  0.00  0.00    +0.000 A 
ATOM     18  C   UNL     1      46.281   8.537  12.664  0.00  0.00    +0.000 A 
ATOM     19  C   UNL     1      45.031   8.469  12.054  0.00  0.00    +0.000 A 
ATOM     20  C   UNL     1      44.678   7.339  11.315  0.00  0.00    +0.000 A 
ATOM     21  C   UNL     1      45.552   6.247  11.194  0.00  0.00    +0.000 A 
ATOM     22  C   UNL     1      46.791   6.333  11.855  0.00  0.00    +0.000 A 
BRANCH  21  23
ATOM     23  C   UNL     1      45.225   5.082  10.345  0.00  0.00    +0.000 A 
ATOM     24  C   UNL     1      45.683   5.000   9.022  0.00  0.00    +0.000 A 
ATOM     25  C   UNL     1      45.392   3.876   8.268  0.00  0.00    +0.000 A 
ATOM     26  N   UNL     1      44.687   2.825   8.729  0.00  0.00    +0.000 NA
ATOM     27  C   UNL     1      44.255   2.907  10.003  0.00  0.00    +0.000 A 
ATOM     28  C   UNL     1      44.490   3.993  10.833  0.00  0.00    +0.000 A 
ENDBRANCH  21  23
ENDBRANCH   1  17
TORSDOF 4
ENDMDL
MODEL 4
REMARK VINA RESULT:    -7.115      4.139      8.807
REMARK INTER + INTRA:          -8.589
REMARK INTER:                  -8.218
REMARK INTRA:                  -0.371
REMARK UNBOUND:                 0.190
REMARK  Name = 
REMARK  4 active torsions:
REMARK  status: ('A' for Active; 'I' for Inactive)
REMARK    1  A    between atoms: C_2  and  C_4
REMARK    2  A    between atoms: N_8  and  C_9
REMARK    3  A    between atoms: C_9  and  C_10
REMARK    4  A    between atoms: C_14  and  C_15
REMARK                            x       y       z     vdW  Elec       q    Type
REMARK                         _______ _______ _______ _____ _____    ______ ____
ROOT
ATOM      1  C   UNL     1      48.270   3.392  17.074  0.00  0.00    +0.000 C 
ATOM      2  C   UNL     1      48.040   3.645  18.555  0.00  0.00    +0.000 C 
ATOM      3  C   UNL     1      47.012   2.889  17.783  0.00  0.00    +0.000 C 
ENDROOT
BRANCH   1   8
ATOM      4  C   UNL     1      53.074   2.049  18.129  0.00  0.00    +0.000 A 
ATOM      5  C   UNL     1      52.362   0.994  17.615  0.00  0.00    +0.000 A 
ATOM      6  N   UNL     1      51.101   1.105  17.142  0.00  0.00    +0.000 NA
ATOM      7  C   UNL     1      50.524   2.319  17.207  0.00  0.00    +0.000 A 
ATOM      8  N   UNL     1      49.247   2.388  16.649  0.00  0.00    +0.000 N 
ATOM      9  N   UNL     1      51.116   3.393  17.754  0.00  0.00    +0.000 NA
ATOM     10  C   UNL     1      52.383   3.235  18.205  0.00  0.00    +0.000 A 
ATOM     11  H   UNL     1      48.943   1.438  16.483  0.00  0.00    +0.000 HD
BRANCH   4  13
ATOM     12  N   UNL     1      54.724   1.196  19.689  0.00  0.00    +0.000 N 
ATOM     13  C   UNL     1      54.470   1.950  18.575  0.00  0.00    +0.000 C 
ATOM     14  O   UNL     1      55.372   2.486  17.951  0.00  0.00    +0.000 OA
ATOM     15  H   UNL     1      55.701   1.045  19.911  0.00  0.00    +0.000 HD
ATOM     16  H   UNL     1      54.065   0.541  20.092  0.00  0.00    +0.000 HD
ENDBRANCH   4  13
ENDBRANCH   1   8
BRANCH   1  17
ATOM     17  C   UNL     1      48.024   4.516  16.074  0.00  0.00    +0.000 A 
ATOM     18  C   UNL     1      48.721   5.733  16.163  0.00  0.00    +0.000 A 
ATOM     19  C   UNL     1      48.614   6.700  15.166  0.00  0.00    +0.000 A 
ATOM     20  C   UNL     1      47.805   6.466  14.053  0.00  0.00    +0.000 A 
ATOM     21  C   UNL     1      47.067   5.278  13.928  0.00  0.00    +0.000 A 
ATOM     22  C   UNL     1      47.168   4.340  14.971  0.00  0.00    +0.000 A 
BRANCH  21  23
ATOM     23  C   UNL     1      46.274   4.982  12.716  0.00  0.00    +0.000 A 
ATOM     24  C   UNL     1      45.613   3.754  12.568  0.00  0.00    +0.000 A 
ATOM     25  C   UNL     1      44.845   3.524  11.438  0.00  0.00    +0.000 A 
ATOM     26  N   UNL     1      44.681   4.422  10.448  0.00  0.00    +0.000 NA
ATOM     27  C   UNL     1      45.314   5.603  10.599  0.00  0.00    +0.000 A 
ATOM     28  C   UNL     1      46.109   5.922  11.690  0.00  0.00    +0.000 A 
ENDBRANCH  21  23
ENDBRANCH   1  17
TORSDOF 4
ENDMDL
MODEL 5
REMARK VINA RESULT:    -6.975      3.051      7.398
REMARK INTER + INTRA:          -8.416
REMARK INTER:                  -7.997
REMARK INTRA:                  -0.419
REMARK UNBOUND:                 0.190
REMARK  Name = 
REMARK  4 active torsions:
REMARK  status: ('A' for Active; 'I' for Inactive)
REMARK    1  A    between atoms: C_2  and  C_4
REMARK    2  A    between atoms: N_8  and  C_9
REMARK    3  A    between atoms: C_9  and  C_10
REMARK    4  A    between atoms: C_14  and  C_15
REMARK                            x       y       z     vdW  Elec       q    Type
REMARK                         _______ _______ _______ _____ _____    ______ ____
ROOT
ATOM      1  C   UNL     1      44.520   4.137  12.625  0.00  0.00    +0.000 C 
ATOM      2  C   UNL     1      43.315   4.818  13.253  0.00  0.00    +0.000 C 
ATOM      3  C   UNL     1      43.163   3.438  12.709  0.00  0.00    +0.000 C 
ENDROOT
BRANCH   1   8
ATOM      4  C   UNL     1      48.319   5.954  15.498  0.00  0.00    +0.000 A 
ATOM      5  C   UNL     1      47.933   4.704  15.913  0.00  0.00    +0.000 A 
ATOM      6  N   UNL     1      47.029   3.946  15.255  0.00  0.00    +0.000 NA
ATOM      7  C   UNL     1      46.473   4.472  14.148  0.00  0.00    +0.000 A 
ATOM      8  N   UNL     1      45.593   3.622  13.476  0.00  0.00    +0.000 N 
ATOM      9  N   UNL     1      46.737   5.711  13.703  0.00  0.00    +0.000 NA
ATOM     10  C   UNL     1      47.658   6.429  14.390  0.00  0.00    +0.000 A 
ATOM     11  H   UNL     1      45.409   2.840  14.090  0.00  0.00    +0.000 HD
BRANCH   4  13
ATOM     12  N   UNL     1      50.303   6.076  16.890  0.00  0.00    +0.000 N 
ATOM     13  C   UNL     1      49.356   6.751  16.167  0.00  0.00    +0.000 C 
ATOM     14  O   UNL     1      49.396   7.966  16.045  0.00  0.00    +0.000 OA
ATOM     15  H   UNL     1      51.072   6.632  17.245  0.00  0.00    +0.000 HD
ATOM     16  H   UNL     1      50.461   5.078  16.822  0.00  0.00    +0.000 HD
ENDBRANCH   4  13
ENDBRANCH   1   8
BRANCH   1  17
ATOM     17  C   UNL     1      44.946   4.519  11.211  0.00  0.00    +0.000 A 
ATOM     18  C   UNL     1      45.135   5.863  10.848  0.00  0.00    +0.000 A 
ATOM     19  C   UNL     1      45.672   6.207   9.609  0.00  0.00    +0.000 A 
ATOM     20  C   UNL     1      46.033   5.207   8.706  0.00  0.00    +0.000 A 
ATOM     21  C   UNL     1      45.841   3.849   9.008  0.00  0.00    +0.000 A 
ATOM     22  C   UNL     1      45.261   3.539  10.251  0.00  0.00    +0.000 A 
BRANCH  21  23
ATOM     23  C   UNL     1      46.297   2.779   8.097  0.00  0.00    +0.000 A 
ATOM     24  C   UNL     1      46.968   3.083   6.904  0.00  0.00    +0.000 A 
ATOM     25  C   UNL     1      47.417   2.053   6.092  0.00  0.00    +0.000 A 
ATOM     26  N   UNL     1      47.255   0.747   6.378  0.00  0.00    +0.000 NA
ATOM     27  C   UNL     1      46.614   0.462   7.530  0.00  0.00    +0.000 A 
ATOM     28  C   UNL     1      46.123   1.422   8.402  0.00  0.00    +0.000 A 
ENDBRANCH  21  23
ENDBRANCH   1  17
TORSDOF 4
ENDMDL
MODEL 6
REMARK VINA RESULT:    -6.908      3.568      7.068
REMARK INTER + INTRA:          -8.333
REMARK INTER:                  -7.869
REMARK INTRA:                  -0.464
REMARK UNBOUND:                 0.190
REMARK  Name = 
REMARK  4 active torsions:
REMARK  status: ('A' for Active; 'I' for Inactive)
REMARK    1  A    between atoms: C_2  and  C_4
REMARK    2  A    between atoms: N_8  and  C_9
REMARK    3  A    between atoms: C_9  and  C_10
REMARK    4  A    between atoms: C_14  and  C_15
REMARK                            x       y       z     vdW  Elec       q    Type
REMARK                         _______ _______ _______ _____ _____    ______ ____
ROOT
ATOM      1  C   UNL     1      44.030   6.312  11.792  0.00  0.00    +0.000 C 
ATOM      2  C   UNL     1      43.621   7.339  10.748  0.00  0.00    +0.000 C 
ATOM      3  C   UNL     1      42.607   6.867  11.735  0.00  0.00    +0.000 C 
ENDROOT
BRANCH   1   8
ATOM      4  C   UNL     1      48.712   8.148  12.630  0.00  0.00    +0.000 A 
ATOM      5  C   UNL     1      47.858   8.470  13.655  0.00  0.00    +0.000 A 
ATOM      6  N   UNL     1      46.591   8.009  13.744  0.00  0.00    +0.000 NA
ATOM      7  C   UNL     1      46.156   7.211  12.752  0.00  0.00    +0.000 A 
ATOM      8  N   UNL     1      44.863   6.716  12.926  0.00  0.00    +0.000 N 
ATOM      9  N   UNL     1      46.895   6.896  11.675  0.00  0.00    +0.000 NA
ATOM     10  C   UNL     1      48.162   7.373  11.636  0.00  0.00    +0.000 A 
ATOM     11  H   UNL     1      44.447   7.234  13.688  0.00  0.00    +0.000 HD
BRANCH   4  13
ATOM     12  N   UNL     1      51.041   7.827  13.230  0.00  0.00    +0.000 N 
ATOM     13  C   UNL     1      50.113   8.585  12.568  0.00  0.00    +0.000 C 
ATOM     14  O   UNL     1      50.441   9.563  11.914  0.00  0.00    +0.000 OA
ATOM     15  H   UNL     1      52.011   8.077  13.078  0.00  0.00    +0.000 HD
ATOM     16  H   UNL     1      50.866   6.890  13.571  0.00  0.00    +0.000 HD
ENDBRANCH   4  13
ENDBRANCH   1   8
BRANCH   1  17
ATOM     17  C   UNL     1      44.151   4.845  11.394  0.00  0.00    +0.000 A 
ATOM     18  C   UNL     1      43.388   3.853  12.033  0.00  0.00    +0.000 A 
ATOM     19  C   UNL     1      43.380   2.539  11.570  0.00  0.00    +0.000 A 
ATOM     20  C   UNL     1      44.138   2.191  10.452  0.00  0.00    +0.000 A 
ATOM     21  C   UNL     1      44.938   3.136   9.792  0.00  0.00    +0.000 A 
ATOM     22  C   UNL     1      44.953   4.445  10.309  0.00  0.00    +0.000 A 
BRANCH  21  23
ATOM     23  C   UNL     1      45.678   2.801   8.558  0.00  0.00    +0.000 A 
ATOM     24  C   UNL     1      45.981   3.786   7.606  0.00  0.00    +0.000 A 
ATOM     25  C   UNL     1      46.711   3.445   6.479  0.00  0.00    +0.000 A 
ATOM     26  N   UNL     1      47.168   2.203   6.229  0.00  0.00    +0.000 NA
ATOM     27  C   UNL     1      46.879   1.262   7.151  0.00  0.00    +0.000 A 
ATOM     28  C   UNL     1      46.150   1.506   8.305  0.00  0.00    +0.000 A 
ENDBRANCH  21  23
ENDBRANCH   1  17
TORSDOF 4
ENDMDL
MODEL 7
REMARK VINA RESULT:    -6.757      2.450      3.082
REMARK INTER + INTRA:          -8.147
REMARK INTER:                  -7.816
REMARK INTRA:                  -0.330
REMARK UNBOUND:                 0.190
REMARK  Name = 
REMARK  4 active torsions:
REMARK  status: ('A' for Active; 'I' for Inactive)
REMARK    1  A    between atoms: C_2  and  C_4
REMARK    2  A    between atoms: N_8  and  C_9
REMARK    3  A    between atoms: C_9  and  C_10
REMARK    4  A    between atoms: C_14  and  C_15
REMARK                            x       y       z     vdW  Elec       q    Type
REMARK                         _______ _______ _______ _____ _____    ______ ____
ROOT
ATOM      1  C   UNL     1      44.080   5.252  11.572  0.00  0.00    +0.000 C 
ATOM      2  C   UNL     1      44.359   4.254  12.684  0.00  0.00    +0.000 C 
ATOM      3  C   UNL     1      43.101   5.054  12.730  0.00  0.00    +0.000 C 
ENDROOT
BRANCH   1   8
ATOM      4  C   UNL     1      46.220   3.476   7.299  0.00  0.00    +0.000 A 
ATOM      5  C   UNL     1      44.922   3.046   7.423  0.00  0.00    +0.000 A 
ATOM      6  N   UNL     1      44.089   3.464   8.401  0.00  0.00    +0.000 NA
ATOM      7  C   UNL     1      44.584   4.332   9.303  0.00  0.00    +0.000 A 
ATOM      8  N   UNL     1      43.662   4.776  10.252  0.00  0.00    +0.000 N 
ATOM      9  N   UNL     1      45.858   4.755   9.302  0.00  0.00    +0.000 NA
ATOM     10  C   UNL     1      46.653   4.316   8.297  0.00  0.00    +0.000 A 
ATOM     11  H   UNL     1      42.846   4.185  10.172  0.00  0.00    +0.000 HD
BRANCH   4  13
ATOM     12  N   UNL     1      48.328   2.558   6.524  0.00  0.00    +0.000 N 
ATOM     13  C   UNL     1      47.107   3.082   6.196  0.00  0.00    +0.000 C 
ATOM     14  O   UNL     1      46.749   3.179   5.032  0.00  0.00    +0.000 OA
ATOM     15  H   UNL     1      48.875   2.187   5.757  0.00  0.00    +0.000 HD
ATOM     16  H   UNL     1      48.573   2.231   7.451  0.00  0.00    +0.000 HD
ENDBRANCH   4  13
ENDBRANCH   1   8
BRANCH   1  17
ATOM     17  C   UNL     1      44.797   6.598  11.575  0.00  0.00    +0.000 A 
ATOM     18  C   UNL     1      44.104   7.791  11.309  0.00  0.00    +0.000 A 
ATOM     19  C   UNL     1      44.718   9.031  11.463  0.00  0.00    +0.000 A 
ATOM     20  C   UNL     1      46.045   9.103  11.890  0.00  0.00    +0.000 A 
ATOM     21  C   UNL     1      46.791   7.941  12.143  0.00  0.00    +0.000 A 
ATOM     22  C   UNL     1      46.151   6.704  11.940  0.00  0.00    +0.000 A 
BRANCH  21  23
ATOM     23  C   UNL     1      48.168   8.003  12.676  0.00  0.00    +0.000 A 
ATOM     24  C   UNL     1      49.144   8.801  12.063  0.00  0.00    +0.000 A 
ATOM     25  C   UNL     1      50.415   8.867  12.612  0.00  0.00    +0.000 A 
ATOM     26  N   UNL     1      50.786   8.207  13.726  0.00  0.00    +0.000 NA
ATOM     27  C   UNL     1      49.840   7.447  14.314  0.00  0.00    +0.000 A 
ATOM     28  C   UNL     1      48.546   7.312  13.835  0.00  0.00    +0.000 A 
ENDBRANCH  21  23
ENDBRANCH   1  17
TORSDOF 4
ENDMDL
MODEL 8
REMARK VINA RESULT:    -6.696      4.487      6.442
REMARK INTER + INTRA:          -8.071
REMARK INTER:                  -7.438
REMARK INTRA:                  -0.633
REMARK UNBOUND:                 0.190
REMARK  Name = 
REMARK  4 active torsions:
REMARK  status: ('A' for Active; 'I' for Inactive)
REMARK    1  A    between atoms: C_2  and  C_4
REMARK    2  A    between atoms: N_8  and  C_9
REMARK    3  A    between atoms: C_9  and  C_10
REMARK    4  A    between atoms: C_14  and  C_15
REMARK                            x       y       z     vdW  Elec       q    Type
REMARK                         _______ _______ _______ _____ _____    ______ ____
ROOT
ATOM      1  C   UNL     1      47.954   7.997  13.702  0.00  0.00    +0.000 C 
ATOM      2  C   UNL     1      48.727   6.920  14.445  0.00  0.00    +0.000 C 
ATOM      3  C   UNL     1      48.478   8.227  15.119  0.00  0.00    +0.000 C 
ENDROOT
BRANCH   1   8
ATOM      4  C   UNL     1      44.644   5.107  11.116  0.00  0.00    +0.000 A 
ATOM      5  C   UNL     1      44.066   5.646  12.238  0.00  0.00    +0.000 A 
ATOM      6  N   UNL     1      44.683   6.543  13.038  0.00  0.00    +0.000 NA
ATOM      7  C   UNL     1      45.940   6.897  12.710  0.00  0.00    +0.000 A 
ATOM      8  N   UNL     1      46.505   7.871  13.534  0.00  0.00    +0.000 N 
ATOM      9  N   UNL     1      46.611   6.373  11.672  0.00  0.00    +0.000 NA
ATOM     10  C   UNL     1      45.947   5.485  10.894  0.00  0.00    +0.000 A 
ATOM     11  H   UNL     1      45.902   7.965  14.341  0.00  0.00    +0.000 HD
BRANCH   4  13
ATOM     12  N   UNL     1      44.061   4.431   8.860  0.00  0.00    +0.000 N 
ATOM     13  C   UNL     1      43.950   4.189  10.203  0.00  0.00    +0.000 C 
ATOM     14  O   UNL     1      43.335   3.222  10.626  0.00  0.00    +0.000 OA
ATOM     15  H   UNL     1      43.676   3.724   8.247  0.00  0.00    +0.000 HD
ATOM     16  H   UNL     1      44.747   5.056   8.453  0.00  0.00    +0.000 HD
ENDBRANCH   4  13
ENDBRANCH   1   8
BRANCH   1  17
ATOM     17  C   UNL     1      48.657   8.820  12.628  0.00  0.00    +0.000 A 
ATOM     18  C   UNL     1      48.237  10.125  12.320  0.00  0.00    +0.000 A 
ATOM     19  C   UNL     1      48.969  10.934  11.455  0.00  0.00    +0.000 A 
ATOM     20  C   UNL     1      50.145  10.451  10.878  0.00  0.00    +0.000 A 
ATOM     21  C   UNL     1      50.596   9.146  11.131  0.00  0.00    +0.000 A 
ATOM     22  C   UNL     1      49.811   8.343  11.979  0.00  0.00    +0.000 A 
BRANCH  21  23
ATOM     23  C   UNL     1      51.881   8.651  10.595  0.00  0.00    +0.000 A 
ATOM     24  C   UNL     1      52.996   9.496  10.496  0.00  0.00    +0.000 A 
ATOM     25  C   UNL     1      54.197   8.990  10.027  0.00  0.00    +0.000 A 
ATOM     26  N   UNL     1      54.376   7.707   9.654  0.00  0.00    +0.000 NA
ATOM     27  C   UNL     1      53.302   6.899   9.758  0.00  0.00    +0.000 A 
ATOM     28  C   UNL     1      52.058   7.316  10.209  0.00  0.00    +0.000 A 
ENDBRANCH  21  23
ENDBRANCH   1  17
TORSDOF 4
ENDMDL
MODEL 9
REMARK VINA RESULT:    -6.614      3.762      6.517
REMARK INTER + INTRA:          -7.970
REMARK INTER:                  -8.003
REMARK INTRA:                   0.034
REMARK UNBOUND:                 0.190
REMARK  Name = 
REMARK  4 active torsions:
REMARK  status: ('A' for Active; 'I' for Inactive)
REMARK    1  A    between atoms: C_2  and  C_4
REMARK    2  A    between atoms: N_8  and  C_9
REMARK    3  A    between atoms: C_9  and  C_10
REMARK    4  A    between atoms: C_14  and  C_15
REMARK                            x       y       z     vdW  Elec       q    Type
REMARK                         _______ _______ _______ _____ _____    ______ ____
ROOT
ATOM      1  C   UNL     1      48.225   4.766  16.738  0.00  0.00    +0.000 C 
ATOM      2  C   UNL     1      47.473   3.507  17.139  0.00  0.00    +0.000 C 
ATOM      3  C   UNL     1      47.294   4.745  17.951  0.00  0.00    +0.000 C 
ENDROOT
BRANCH   1   8
ATOM      4  C   UNL     1      45.590   4.021  12.437  0.00  0.00    +0.000 A 
ATOM      5  C   UNL     1      45.562   5.339  12.818  0.00  0.00    +0.000 A 
ATOM      6  N   UNL     1      46.275   5.831  13.855  0.00  0.00    +0.000 NA
ATOM      7  C   UNL     1      47.029   4.961  14.552  0.00  0.00    +0.000 A 
ATOM      8  N   UNL     1      47.790   5.535  15.571  0.00  0.00    +0.000 N 
ATOM      9  N   UNL     1      47.068   3.644  14.296  0.00  0.00    +0.000 NA
ATOM     10  C   UNL     1      46.344   3.199  13.241  0.00  0.00    +0.000 A 
ATOM     11  H   UNL     1      47.454   6.480  15.696  0.00  0.00    +0.000 HD
BRANCH   4  13
ATOM     12  N   UNL     1      44.009   2.456  11.470  0.00  0.00    +0.000 N 
ATOM     13  C   UNL     1      44.876   3.495  11.266  0.00  0.00    +0.000 C 
ATOM     14  O   UNL     1      45.020   3.996  10.161  0.00  0.00    +0.000 OA
ATOM     15  H   UNL     1      43.442   2.186  10.675  0.00  0.00    +0.000 HD
ATOM     16  H   UNL     1      43.671   2.171  12.381  0.00  0.00    +0.000 HD
ENDBRANCH   4  13
ENDBRANCH   1   8
BRANCH   1  17
ATOM     17  C   UNL     1      49.705   4.896  17.081  0.00  0.00    +0.000 A 
ATOM     18  C   UNL     1      50.287   6.152  17.323  0.00  0.00    +0.000 A 
ATOM     19  C   UNL     1      51.595   6.264  17.786  0.00  0.00    +0.000 A 
ATOM     20  C   UNL     1      52.351   5.115  18.021  0.00  0.00    +0.000 A 
ATOM     21  C   UNL     1      51.827   3.836  17.771  0.00  0.00    +0.000 A 
ATOM     22  C   UNL     1      50.516   3.762  17.266  0.00  0.00    +0.000 A 
BRANCH  21  23
ATOM     23  C   UNL     1      52.585   2.610  18.095  0.00  0.00    +0.000 A 
ATOM     24  C   UNL     1      52.205   1.366  17.572  0.00  0.00    +0.000 A 
ATOM     25  C   UNL     1      52.962   0.242  17.863  0.00  0.00    +0.000 A 
ATOM     26  N   UNL     1      54.070   0.262  18.630  0.00  0.00    +0.000 NA
ATOM     27  C   UNL     1      54.433   1.463  19.124  0.00  0.00    +0.000 A 
ATOM     28  C   UNL     1      53.737   2.640  18.894  0.00  0.00    +0.000 A 
ENDBRANCH  21  23
ENDBRANCH   1  17
TORSDOF 4
ENDMDL
