MODEL 1
REMARK VINA RESULT:    -8.291      0.000      0.000
REMARK INTER + INTRA:         -12.130
REMARK INTER:                 -11.199
REMARK INTRA:                  -0.931
REMARK UNBOUND:                -0.931
REMARK  Name = 
REMARK  7 active torsions:
REMARK  status: ('A' for Active; 'I' for Inactive)
REMARK    1  A    between atoms: C_1  and  C_2
REMARK    2  A    between atoms: C_2  and  N_3
REMARK    3  A    between atoms: C_2  and  C_12
REMARK    4  A    between atoms: C_4  and  C_6
REMARK    5  A    between atoms: C_15  and  C_16
REMARK    6  A    between atoms: C_16  and  N_17
REMARK    7  A    between atoms: C_18  and  C_20
REMARK                            x       y       z     vdW  Elec       q    Type
REMARK                         _______ _______ _______ _____ _____    ______ ____
ROOT
ATOM      1  C   UNL     1      45.226   5.689  12.178  0.00  0.00    +0.000 A 
ATOM      2  C   UNL     1      46.262   5.023  12.840  0.00  0.00    +0.000 A 
ATOM      3  C   UNL     1      47.286   5.741  13.464  0.00  0.00    +0.000 A 
ATOM      4  C   UNL     1      47.284   7.145  13.470  0.00  0.00    +0.000 A 
ATOM      5  C   UNL     1      46.231   7.808  12.825  0.00  0.00    +0.000 A 
ATOM      6  C   UNL     1      45.195   7.091  12.219  0.00  0.00    +0.000 A 
ENDROOT
BRANCH   1   8
ATOM      7  C   UNL     1      42.959   5.728  11.135  0.00  0.00    +0.000 C 
ATOM      8  C   UNL     1      44.216   4.892  11.376  0.00  0.00    +0.000 C 
BRANCH   8   9
ATOM      9  N   UNL     1      44.807   4.433  10.130  0.00  0.00    +0.000 N 
ATOM     10  C   UNL     1      44.544   3.196   9.595  0.00  0.00    +0.000 C 
ATOM     11  O   UNL     1      43.832   2.363  10.170  0.00  0.00    +0.000 OA
ATOM     12  H   UNL     1      45.476   5.015   9.628  0.00  0.00    +0.000 HD
BRANCH  10  13
ATOM     13  C   UNL     1      45.248   2.857   8.271  0.00  0.00    +0.000 C 
ATOM     14  C   UNL     1      46.114   1.609   8.457  0.00  0.00    +0.000 C 
ATOM     15  C   UNL     1      46.809   1.225   7.154  0.00  0.00    +0.000 C 
ATOM     16  C   UNL     1      47.556   2.420   6.572  0.00  0.00    +0.000 C 
ATOM     17  C   UNL     1      46.651   3.647   6.470  0.00  0.00    +0.000 C 
ATOM     18  N   UNL     1      46.068   3.994   7.777  0.00  0.00    +0.000 NA
ATOM     19  H   UNL     1      45.447   4.795   7.644  0.00  0.00    +0.000 HD
ENDBRANCH  10  13
ENDBRANCH   8   9
ENDBRANCH   1   8
BRANCH   4  20
ATOM     20  C   UNL     1      48.376   7.929  14.165  0.00  0.00    +0.000 C 
BRANCH  20  21
ATOM     21  N   UNL     1      48.330   7.822  15.598  0.00  0.00    +0.000 N 
ATOM     22  C   UNL     1      49.224   7.058  16.316  0.00  0.00    +0.000 C 
ATOM     23  O   UNL     1      50.142   6.443  15.795  0.00  0.00    +0.000 OA
ATOM     24  H   UNL     1      47.481   8.132  16.059  0.00  0.00    +0.000 HD
BRANCH  22  25
ATOM     25  C   UNL     1      49.039   7.095  17.775  0.00  0.00    +0.000 A 
ATOM     26  C   UNL     1      49.012   8.307  18.448  0.00  0.00    +0.000 A 
ATOM     27  S   UNL     1      48.752   8.147  20.130  0.00  0.00    +0.000 S 
ATOM     28  C   UNL     1      48.699   6.449  20.017  0.00  0.00    +0.000 A 
ATOM     29  N   UNL     1      48.518   5.675  21.121  0.00  0.00    +0.000 NA
ATOM     30  C   UNL     1      48.505   4.404  20.885  0.00  0.00    +0.000 A 
ATOM     31  N   UNL     1      48.651   3.837  19.645  0.00  0.00    +0.000 N 
ATOM     32  C   UNL     1      48.825   4.579  18.504  0.00  0.00    +0.000 A 
ATOM     33  O   UNL     1      48.916   4.042  17.405  0.00  0.00    +0.000 OA
ATOM     34  C   UNL     1      48.856   6.012  18.714  0.00  0.00    +0.000 A 
ATOM     35  H   UNL     1      48.614   2.836  19.523  0.00  0.00    +0.000 HD
ENDBRANCH  22  25
ENDBRANCH  20  21
ENDBRANCH   4  20
TORSDOF 6
ENDMDL
MODEL 2
REMARK VINA RESULT:    -7.948      5.096     10.001
REMARK INTER + INTRA:         -11.667
REMARK INTER:                 -10.701
REMARK INTRA:                  -0.966
REMARK UNBOUND:                -0.931
REMARK  Name = 
REMARK  7 active torsions:
REMARK  status: ('A' for Active; 'I' for Inactive)
REMARK    1  A    between atoms: C_1  and  C_2
REMARK    2  A    between atoms: C_2  and  N_3
REMARK    3  A    between atoms: C_2  and  C_12
REMARK    4  A    between atoms: C_4  and  C_6
REMARK    5  A    between atoms: C_15  and  C_16
REMARK    6  A    between atoms: C_16  and  N_17
REMARK    7  A    between atoms: C_18  and  C_20
REMARK                            x       y       z     vdW  Elec       q    Type
REMARK                         _______ _______ _______ _____ _____    ______ ____
ROOT
ATOM      1  C   UNL     1      51.485   2.831  17.760  0.00  0.00    +0.000 A 
ATOM      2  C   UNL     1      50.926   4.052  18.146  0.00  0.00    +0.000 A 
ATOM      3  C   UNL     1      49.582   4.336  17.882  0.00  0.00    +0.000 A 
ATOM      4  C   UNL     1      48.755   3.392  17.252  0.00  0.00    +0.000 A 
ATOM      5  C   UNL     1      49.315   2.160  16.888  0.00  0.00    +0.000 A 
ATOM      6  C   UNL     1      50.653   1.867  17.171  0.00  0.00    +0.000 A 
ENDROOT
BRANCH   1   8
ATOM      7  C   UNL     1      53.586   3.710  18.782  0.00  0.00    +0.000 C 
ATOM      8  C   UNL     1      52.977   2.609  17.914  0.00  0.00    +0.000 C 
BRANCH   8   9
ATOM      9  N   UNL     1      53.238   1.286  18.458  0.00  0.00    +0.000 N 
ATOM     10  C   UNL     1      54.021   0.361  17.813  0.00  0.00    +0.000 C 
ATOM     11  O   UNL     1      54.509   0.568  16.695  0.00  0.00    +0.000 OA
ATOM     12  H   UNL     1      52.808   0.990  19.332  0.00  0.00    +0.000 HD
BRANCH  10  13
ATOM     13  C   UNL     1      54.202  -0.995  18.516  0.00  0.00    +0.000 C 
ATOM     14  C   UNL     1      54.929  -1.963  17.581  0.00  0.00    +0.000 C 
ATOM     15  C   UNL     1      55.151  -3.314  18.256  0.00  0.00    +0.000 C 
ATOM     16  C   UNL     1      53.841  -3.856  18.816  0.00  0.00    +0.000 C 
ATOM     17  C   UNL     1      53.137  -2.818  19.689  0.00  0.00    +0.000 C 
ATOM     18  N   UNL     1      52.901  -1.567  18.951  0.00  0.00    +0.000 NA
ATOM     19  H   UNL     1      52.463  -0.900  19.591  0.00  0.00    +0.000 HD
ENDBRANCH  10  13
ENDBRANCH   8   9
ENDBRANCH   1   8
BRANCH   4  20
ATOM     20  C   UNL     1      47.294   3.682  16.985  0.00  0.00    +0.000 C 
BRANCH  20  21
ATOM     21  N   UNL     1      47.085   4.622  15.917  0.00  0.00    +0.000 N 
ATOM     22  C   UNL     1      47.108   4.255  14.589  0.00  0.00    +0.000 C 
ATOM     23  O   UNL     1      47.272   3.102  14.220  0.00  0.00    +0.000 OA
ATOM     24  H   UNL     1      47.154   5.608  16.147  0.00  0.00    +0.000 HD
BRANCH  22  25
ATOM     25  C   UNL     1      46.845   5.348  13.640  0.00  0.00    +0.000 A 
ATOM     26  C   UNL     1      47.854   6.234  13.294  0.00  0.00    +0.000 A 
ATOM     27  S   UNL     1      47.364   7.410  12.154  0.00  0.00    +0.000 S 
ATOM     28  C   UNL     1      45.779   6.792  12.112  0.00  0.00    +0.000 A 
ATOM     29  N   UNL     1      44.821   7.362  11.332  0.00  0.00    +0.000 NA
ATOM     30  C   UNL     1      43.663   6.790  11.405  0.00  0.00    +0.000 A 
ATOM     31  N   UNL     1      43.378   5.698  12.184  0.00  0.00    +0.000 N 
ATOM     32  C   UNL     1      44.315   5.085  12.976  0.00  0.00    +0.000 A 
ATOM     33  O   UNL     1      44.037   4.086  13.633  0.00  0.00    +0.000 OA
ATOM     34  C   UNL     1      45.630   5.692  12.938  0.00  0.00    +0.000 A 
ATOM     35  H   UNL     1      42.457   5.285  12.184  0.00  0.00    +0.000 HD
ENDBRANCH  22  25
ENDBRANCH  20  21
ENDBRANCH   4  20
TORSDOF 6
ENDMDL
MODEL 3
REMARK VINA RESULT:    -7.870      1.984      2.139
REMARK INTER + INTRA:         -11.561
REMARK INTER:                 -10.468
REMARK INTRA:                  -1.093
REMARK UNBOUND:                -0.931
REMARK  Name = 
REMARK  7 active torsions:
REMARK  status: ('A' for Active; 'I' for Inactive)
REMARK    1  A    between atoms: C_1  and  C_2
REMARK    2  A    between atoms: C_2  and  N_3
REMARK    3  A    between atoms: C_2  and  C_12
REMARK    4  A    between atoms: C_4  and  C_6
REMARK    5  A    between atoms: C_15  and  C_16
REMARK    6  A    between atoms: C_16  and  N_17
REMARK    7  A    between atoms: C_18  and  C_20
REMARK                            x       y       z     vdW  Elec       q    Type
REMARK                         _______ _______ _______ _____ _____    ______ ____
ROOT
ATOM      1  C   UNL     1      45.293   5.808  12.293  0.00  0.00    +0.000 A 
ATOM      2  C   UNL     1      46.355   5.164  12.935  0.00  0.00    +0.000 A 
ATOM      3  C   UNL     1      47.374   5.904  13.543  0.00  0.00    +0.000 A 
ATOM      4  C   UNL     1      47.340   7.308  13.552  0.00  0.00    +0.000 A 
ATOM      5  C   UNL     1      46.261   7.948  12.928  0.00  0.00    +0.000 A 
ATOM      6  C   UNL     1      45.231   7.209  12.338  0.00  0.00    +0.000 A 
ENDROOT
BRANCH   1   8
ATOM      7  C   UNL     1      43.017   5.806  11.269  0.00  0.00    +0.000 C 
ATOM      8  C   UNL     1      44.287   4.990  11.507  0.00  0.00    +0.000 C 
BRANCH   8   9
ATOM      9  N   UNL     1      44.874   4.528  10.260  0.00  0.00    +0.000 N 
ATOM     10  C   UNL     1      44.552   3.321   9.691  0.00  0.00    +0.000 C 
ATOM     11  O   UNL     1      43.784   2.516  10.233  0.00  0.00    +0.000 OA
ATOM     12  H   UNL     1      45.584   5.083   9.784  0.00  0.00    +0.000 HD
BRANCH  10  13
ATOM     13  C   UNL     1      45.260   2.974   8.371  0.00  0.00    +0.000 C 
ATOM     14  C   UNL     1      46.068   1.686   8.547  0.00  0.00    +0.000 C 
ATOM     15  C   UNL     1      46.764   1.294   7.247  0.00  0.00    +0.000 C 
ATOM     16  C   UNL     1      47.570   2.465   6.696  0.00  0.00    +0.000 C 
ATOM     17  C   UNL     1      46.721   3.732   6.604  0.00  0.00    +0.000 C 
ATOM     18  N   UNL     1      46.136   4.082   7.908  0.00  0.00    +0.000 NA
ATOM     19  H   UNL     1      45.552   4.912   7.781  0.00  0.00    +0.000 HD
ENDBRANCH  10  13
ENDBRANCH   8   9
ENDBRANCH   1   8
BRANCH   4  20
ATOM     20  C   UNL     1      48.426   8.115  14.230  0.00  0.00    +0.000 C 
BRANCH  20  21
ATOM     21  N   UNL     1      49.406   7.304  14.899  0.00  0.00    +0.000 N 
ATOM     22  C   UNL     1      49.408   7.112  16.263  0.00  0.00    +0.000 C 
ATOM     23  O   UNL     1      48.559   7.587  17.002  0.00  0.00    +0.000 OA
ATOM     24  H   UNL     1      50.242   7.061  14.376  0.00  0.00    +0.000 HD
BRANCH  22  25
ATOM     25  C   UNL     1      50.471   6.226  16.763  0.00  0.00    +0.000 A 
ATOM     26  C   UNL     1      51.733   6.731  17.038  0.00  0.00    +0.000 A 
ATOM     27  S   UNL     1      52.818   5.557  17.642  0.00  0.00    +0.000 S 
ATOM     28  C   UNL     1      51.646   4.329  17.524  0.00  0.00    +0.000 A 
ATOM     29  N   UNL     1      51.932   3.046  17.872  0.00  0.00    +0.000 NA
ATOM     30  C   UNL     1      50.947   2.220  17.725  0.00  0.00    +0.000 A 
ATOM     31  N   UNL     1      49.701   2.564  17.265  0.00  0.00    +0.000 N 
ATOM     32  C   UNL     1      49.366   3.846  16.913  0.00  0.00    +0.000 A 
ATOM     33  O   UNL     1      48.231   4.126  16.540  0.00  0.00    +0.000 OA
ATOM     34  C   UNL     1      50.438   4.811  17.051  0.00  0.00    +0.000 A 
ATOM     35  H   UNL     1      48.967   1.875  17.189  0.00  0.00    +0.000 HD
ENDBRANCH  22  25
ENDBRANCH  20  21
ENDBRANCH   4  20
TORSDOF 6
ENDMDL
MODEL 4
REMARK VINA RESULT:    -7.751      3.679      5.107
REMARK INTER + INTRA:         -11.401
REMARK INTER:                 -10.291
REMARK INTRA:                  -1.110
REMARK UNBOUND:                -0.931
REMARK  Name = 
REMARK  7 active torsions:
REMARK  status: ('A' for Active; 'I' for Inactive)
REMARK    1  A    between atoms: C_1  and  C_2
REMARK    2  A    between atoms: C_2  and  N_3
REMARK    3  A    between atoms: C_2  and  C_12
REMARK    4  A    between atoms: C_4  and  C_6
REMARK    5  A    between atoms: C_15  and  C_16
REMARK    6  A    between atoms: C_16  and  N_17
REMARK    7  A    between atoms: C_18  and  C_20
REMARK                            x       y       z     vdW  Elec       q    Type
REMARK                         _______ _______ _______ _____ _____    ______ ____
ROOT
ATOM      1  C   UNL     1      47.605   5.864  14.377  0.00  0.00    +0.000 A 
ATOM      2  C   UNL     1      46.922   4.666  14.603  0.00  0.00    +0.000 A 
ATOM      3  C   UNL     1      47.174   3.907  15.751  0.00  0.00    +0.000 A 
ATOM      4  C   UNL     1      48.093   4.345  16.719  0.00  0.00    +0.000 A 
ATOM      5  C   UNL     1      48.758   5.559  16.499  0.00  0.00    +0.000 A 
ATOM      6  C   UNL     1      48.491   6.328  15.362  0.00  0.00    +0.000 A 
ENDROOT
BRANCH   1   8
ATOM      7  C   UNL     1      48.795   7.014  12.509  0.00  0.00    +0.000 C 
ATOM      8  C   UNL     1      47.433   6.586  13.055  0.00  0.00    +0.000 C 
BRANCH   8   9
ATOM      9  N   UNL     1      46.710   5.750  12.112  0.00  0.00    +0.000 N 
ATOM     10  C   UNL     1      45.519   6.129  11.545  0.00  0.00    +0.000 C 
ATOM     11  O   UNL     1      44.948   7.185  11.846  0.00  0.00    +0.000 OA
ATOM     12  H   UNL     1      47.057   4.823  11.869  0.00  0.00    +0.000 HD
BRANCH  10  13
ATOM     13  C   UNL     1      44.876   5.133  10.566  0.00  0.00    +0.000 C 
ATOM     14  C   UNL     1      44.815   3.747  11.213  0.00  0.00    +0.000 C 
ATOM     15  C   UNL     1      44.157   2.736  10.280  0.00  0.00    +0.000 C 
ATOM     16  C   UNL     1      44.827   2.753   8.911  0.00  0.00    +0.000 C 
ATOM     17  C   UNL     1      44.910   4.172   8.350  0.00  0.00    +0.000 C 
ATOM     18  N   UNL     1      45.613   5.075   9.277  0.00  0.00    +0.000 NA
ATOM     19  H   UNL     1      45.608   6.013   8.870  0.00  0.00    +0.000 HD
ENDBRANCH  10  13
ENDBRANCH   8   9
ENDBRANCH   1   8
BRANCH   4  20
ATOM     20  C   UNL     1      48.351   3.542  17.975  0.00  0.00    +0.000 C 
BRANCH  20  21
ATOM     21  N   UNL     1      49.728   3.159  18.133  0.00  0.00    +0.000 N 
ATOM     22  C   UNL     1      50.356   2.277  17.283  0.00  0.00    +0.000 C 
ATOM     23  O   UNL     1      49.805   1.782  16.311  0.00  0.00    +0.000 OA
ATOM     24  H   UNL     1      50.167   3.368  19.024  0.00  0.00    +0.000 HD
BRANCH  22  25
ATOM     25  C   UNL     1      51.774   2.028  17.585  0.00  0.00    +0.000 A 
ATOM     26  C   UNL     1      52.245   0.731  17.726  0.00  0.00    +0.000 A 
ATOM     27  S   UNL     1      53.923   0.646  18.040  0.00  0.00    +0.000 S 
ATOM     28  C   UNL     1      54.069   2.341  18.031  0.00  0.00    +0.000 A 
ATOM     29  N   UNL     1      55.265   2.947  18.259  0.00  0.00    +0.000 NA
ATOM     30  C   UNL     1      55.224   4.239  18.228  0.00  0.00    +0.000 A 
ATOM     31  N   UNL     1      54.095   4.980  17.985  0.00  0.00    +0.000 N 
ATOM     32  C   UNL     1      52.871   4.411  17.739  0.00  0.00    +0.000 A 
ATOM     33  O   UNL     1      51.889   5.103  17.488  0.00  0.00    +0.000 OA
ATOM     34  C   UNL     1      52.860   2.963  17.771  0.00  0.00    +0.000 A 
ATOM     35  H   UNL     1      54.131   5.988  17.956  0.00  0.00    +0.000 HD
ENDBRANCH  22  25
ENDBRANCH  20  21
ENDBRANCH   4  20
TORSDOF 6
ENDMDL
MODEL 5
REMARK VINA RESULT:    -7.634      5.083      9.802
REMARK INTER + INTRA:         -11.243
REMARK INTER:                  -9.973
REMARK INTRA:                  -1.269
REMARK UNBOUND:                -0.931
REMARK  Name = 
REMARK  7 active torsions:
REMARK  status: ('A' for Active; 'I' for Inactive)
REMARK    1  A    between atoms: C_1  and  C_2
REMARK    2  A    between atoms: C_2  and  N_3
REMARK    3  A    between atoms: C_2  and  C_12
REMARK    4  A    between atoms: C_4  and  C_6
REMARK    5  A    between atoms: C_15  and  C_16
REMARK    6  A    between atoms: C_16  and  N_17
REMARK    7  A    between atoms: C_18  and  C_20
REMARK                            x       y       z     vdW  Elec       q    Type
REMARK                         _______ _______ _______ _____ _____    ______ ____
ROOT
ATOM      1  C   UNL     1      51.398   2.835  17.778  0.00  0.00    +0.000 A 
ATOM      2  C   UNL     1      50.834   4.067  18.123  0.00  0.00    +0.000 A 
ATOM      3  C   UNL     1      49.504   4.357  17.801  0.00  0.00    +0.000 A 
ATOM      4  C   UNL     1      48.695   3.409  17.154  0.00  0.00    +0.000 A 
ATOM      5  C   UNL     1      49.259   2.167  16.831  0.00  0.00    +0.000 A 
ATOM      6  C   UNL     1      50.582   1.869  17.172  0.00  0.00    +0.000 A 
ENDROOT
BRANCH   1   8
ATOM      7  C   UNL     1      53.450   3.676  18.924  0.00  0.00    +0.000 C 
ATOM      8  C   UNL     1      52.881   2.604  17.994  0.00  0.00    +0.000 C 
BRANCH   8   9
ATOM      9  N   UNL     1      53.115   1.265  18.507  0.00  0.00    +0.000 N 
ATOM     10  C   UNL     1      53.993   0.388  17.919  0.00  0.00    +0.000 C 
ATOM     11  O   UNL     1      54.600   0.658  16.875  0.00  0.00    +0.000 OA
ATOM     12  H   UNL     1      52.595   0.919  19.312  0.00  0.00    +0.000 HD
BRANCH  10  13
ATOM     13  C   UNL     1      54.129  -0.994  18.579  0.00  0.00    +0.000 C 
ATOM     14  C   UNL     1      54.850  -1.948  17.624  0.00  0.00    +0.000 C 
ATOM     15  C   UNL     1      55.028  -3.325  18.257  0.00  0.00    +0.000 C 
ATOM     16  C   UNL     1      53.696  -3.854  18.777  0.00  0.00    +0.000 C 
ATOM     17  C   UNL     1      53.002  -2.829  19.673  0.00  0.00    +0.000 C 
ATOM     18  N   UNL     1      52.808  -1.548  18.973  0.00  0.00    +0.000 NA
ATOM     19  H   UNL     1      52.375  -0.892  19.628  0.00  0.00    +0.000 HD
ENDBRANCH  10  13
ENDBRANCH   8   9
ENDBRANCH   1   8
BRANCH   4  20
ATOM     20  C   UNL     1      47.248   3.706  16.826  0.00  0.00    +0.000 C 
BRANCH  20  21
ATOM     21  N   UNL     1      47.089   4.677  15.777  0.00  0.00    +0.000 N 
ATOM     22  C   UNL     1      47.102   4.339  14.442  0.00  0.00    +0.000 C 
ATOM     23  O   UNL     1      47.212   3.188  14.048  0.00  0.00    +0.000 OA
ATOM     24  H   UNL     1      47.203   5.654  16.030  0.00  0.00    +0.000 HD
BRANCH  22  25
ATOM     25  C   UNL     1      46.895   5.463  13.516  0.00  0.00    +0.000 A 
ATOM     26  C   UNL     1      45.803   5.475  12.660  0.00  0.00    +0.000 A 
ATOM     27  S   UNL     1      45.715   6.879  11.689  0.00  0.00    +0.000 S 
ATOM     28  C   UNL     1      47.151   7.501  12.358  0.00  0.00    +0.000 A 
ATOM     29  N   UNL     1      47.663   8.692  11.945  0.00  0.00    +0.000 NA
ATOM     30  C   UNL     1      48.760   9.035  12.537  0.00  0.00    +0.000 A 
ATOM     31  N   UNL     1      49.390   8.297  13.506  0.00  0.00    +0.000 N 
ATOM     32  C   UNL     1      48.905   7.097  13.960  0.00  0.00    +0.000 A 
ATOM     33  O   UNL     1      49.473   6.479  14.855  0.00  0.00    +0.000 OA
ATOM     34  C   UNL     1      47.679   6.661  13.323  0.00  0.00    +0.000 A 
ATOM     35  H   UNL     1      50.237   8.628  13.943  0.00  0.00    +0.000 HD
ENDBRANCH  22  25
ENDBRANCH  20  21
ENDBRANCH   4  20
TORSDOF 6
ENDMDL
MODEL 6
REMARK VINA RESULT:    -7.542      3.516      4.670
REMARK INTER + INTRA:         -11.118
REMARK INTER:                 -10.010
REMARK INTRA:                  -1.108
REMARK UNBOUND:                -0.931
REMARK  Name = 
REMARK  7 active torsions:
REMARK  status: ('A' for Active; 'I' for Inactive)
REMARK    1  A    between atoms: C_1  and  C_2
REMARK    2  A    between atoms: C_2  and  N_3
REMARK    3  A    between atoms: C_2  and  C_12
REMARK    4  A    between atoms: C_4  and  C_6
REMARK    5  A    between atoms: C_15  and  C_16
REMARK    6  A    between atoms: C_16  and  N_17
REMARK    7  A    between atoms: C_18  and  C_20
REMARK                            x       y       z     vdW  Elec       q    Type
REMARK                         _______ _______ _______ _____ _____    ______ ____
ROOT
ATOM      1  C   UNL     1      47.605   6.641  13.655  0.00  0.00    +0.000 A 
ATOM      2  C   UNL     1      47.092   5.399  14.043  0.00  0.00    +0.000 A 
ATOM      3  C   UNL     1      47.475   4.818  15.256  0.00  0.00    +0.000 A 
ATOM      4  C   UNL     1      48.356   5.478  16.127  0.00  0.00    +0.000 A 
ATOM      5  C   UNL     1      48.848   6.734  15.744  0.00  0.00    +0.000 A 
ATOM      6  C   UNL     1      48.450   7.325  14.541  0.00  0.00    +0.000 A 
ENDROOT
BRANCH   1   8
ATOM      7  C   UNL     1      48.582   7.683  11.609  0.00  0.00    +0.000 C 
ATOM      8  C   UNL     1      47.301   7.176  12.269  0.00  0.00    +0.000 C 
BRANCH   8   9
ATOM      9  N   UNL     1      46.645   6.158  11.466  0.00  0.00    +0.000 N 
ATOM     10  C   UNL     1      45.342   6.268  11.047  0.00  0.00    +0.000 C 
ATOM     11  O   UNL     1      44.617   7.215  11.377  0.00  0.00    +0.000 OA
ATOM     12  H   UNL     1      47.133   5.299  11.218  0.00  0.00    +0.000 HD
BRANCH  10  13
ATOM     13  C   UNL     1      44.791   5.106  10.205  0.00  0.00    +0.000 C 
ATOM     14  C   UNL     1      44.855   3.810  11.016  0.00  0.00    +0.000 C 
ATOM     15  C   UNL     1      44.290   2.637  10.221  0.00  0.00    +0.000 C 
ATOM     16  C   UNL     1      44.954   2.547   8.852  0.00  0.00    +0.000 C 
ATOM     17  C   UNL     1      44.909   3.889   8.122  0.00  0.00    +0.000 C 
ATOM     18  N   UNL     1      45.529   4.957   8.923  0.00  0.00    +0.000 NA
ATOM     19  H   UNL     1      45.438   5.835   8.405  0.00  0.00    +0.000 HD
ENDBRANCH  10  13
ENDBRANCH   8   9
ENDBRANCH   1   8
BRANCH   4  20
ATOM     20  C   UNL     1      48.754   4.867  17.453  0.00  0.00    +0.000 C 
BRANCH  20  21
ATOM     21  N   UNL     1      50.108   4.384  17.474  0.00  0.00    +0.000 N 
ATOM     22  C   UNL     1      50.863   4.338  18.625  0.00  0.00    +0.000 C 
ATOM     23  O   UNL     1      50.431   4.670  19.718  0.00  0.00    +0.000 OA
ATOM     24  H   UNL     1      50.582   4.296  16.581  0.00  0.00    +0.000 HD
BRANCH  22  25
ATOM     25  C   UNL     1      52.216   3.786  18.456  0.00  0.00    +0.000 A 
ATOM     26  C   UNL     1      53.328   4.531  18.819  0.00  0.00    +0.000 A 
ATOM     27  S   UNL     1      54.807   3.707  18.582  0.00  0.00    +0.000 S 
ATOM     28  C   UNL     1      54.010   2.340  17.955  0.00  0.00    +0.000 A 
ATOM     29  N   UNL     1      54.706   1.251  17.532  0.00  0.00    +0.000 NA
ATOM     30  C   UNL     1      53.970   0.290  17.075  0.00  0.00    +0.000 A 
ATOM     31  N   UNL     1      52.600   0.320  17.008  0.00  0.00    +0.000 N 
ATOM     32  C   UNL     1      51.858   1.392  17.433  0.00  0.00    +0.000 A 
ATOM     33  O   UNL     1      50.631   1.371  17.393  0.00  0.00    +0.000 OA
ATOM     34  C   UNL     1      52.636   2.501  17.947  0.00  0.00    +0.000 A 
ATOM     35  H   UNL     1      52.080  -0.470  16.656  0.00  0.00    +0.000 HD
ENDBRANCH  22  25
ENDBRANCH  20  21
ENDBRANCH   4  20
TORSDOF 6
ENDMDL
MODEL 7
REMARK VINA RESULT:    -7.313      1.709      2.427
REMARK INTER + INTRA:         -10.809
REMARK INTER:                  -9.805
REMARK INTRA:                  -1.004
REMARK UNBOUND:                -0.931
REMARK  Name = 
REMARK  7 active torsions:
REMARK  status: ('A' for Active; 'I' for Inactive)
REMARK    1  A    between atoms: C_1  and  C_2
REMARK    2  A    between atoms: C_2  and  N_3
REMARK    3  A    between atoms: C_2  and  C_12
REMARK    4  A    between atoms: C_4  and  C_6
REMARK    5  A    between atoms: C_15  and  C_16
REMARK    6  A    between atoms: C_16  and  N_17
REMARK    7  A    between atoms: C_18  and  C_20
REMARK                            x       y       z     vdW  Elec       q    Type
REMARK                         _______ _______ _______ _____ _____    ______ ____
ROOT
ATOM      1  C   UNL     1      45.732   4.955  12.254  0.00  0.00    +0.000 A 
ATOM      2  C   UNL     1      46.226   5.935  13.121  0.00  0.00    +0.000 A 
ATOM      3  C   UNL     1      46.871   5.576  14.309  0.00  0.00    +0.000 A 
ATOM      4  C   UNL     1      47.066   4.227  14.645  0.00  0.00    +0.000 A 
ATOM      5  C   UNL     1      46.590   3.249  13.762  0.00  0.00    +0.000 A 
ATOM      6  C   UNL     1      45.964   3.607  12.563  0.00  0.00    +0.000 A 
ENDROOT
BRANCH   1   8
ATOM      7  C   UNL     1      44.895   6.889  10.917  0.00  0.00    +0.000 C 
ATOM      8  C   UNL     1      44.900   5.367  11.055  0.00  0.00    +0.000 C 
BRANCH   8   9
ATOM      9  N   UNL     1      45.391   4.716   9.852  0.00  0.00    +0.000 N 
ATOM     10  C   UNL     1      44.771   3.627   9.292  0.00  0.00    +0.000 C 
ATOM     11  O   UNL     1      43.786   3.086   9.810  0.00  0.00    +0.000 OA
ATOM     12  H   UNL     1      46.248   5.036   9.402  0.00  0.00    +0.000 HD
BRANCH  10  13
ATOM     13  C   UNL     1      45.413   3.050   8.019  0.00  0.00    +0.000 C 
ATOM     14  C   UNL     1      46.198   1.785   8.370  0.00  0.00    +0.000 C 
ATOM     15  C   UNL     1      46.828   1.168   7.125  0.00  0.00    +0.000 C 
ATOM     16  C   UNL     1      47.636   2.210   6.360  0.00  0.00    +0.000 C 
ATOM     17  C   UNL     1      46.813   3.470   6.097  0.00  0.00    +0.000 C 
ATOM     18  N   UNL     1      46.293   4.043   7.349  0.00  0.00    +0.000 NA
ATOM     19  H   UNL     1      45.723   4.858   7.111  0.00  0.00    +0.000 HD
ENDBRANCH  10  13
ENDBRANCH   8   9
ENDBRANCH   1   8
BRANCH   4  20
ATOM     20  C   UNL     1      47.785   3.831  15.917  0.00  0.00    +0.000 C 
BRANCH  20  21
ATOM     21  N   UNL     1      48.273   4.955  16.669  0.00  0.00    +0.000 N 
ATOM     22  C   UNL     1      49.545   5.000  17.197  0.00  0.00    +0.000 C 
ATOM     23  O   UNL     1      50.364   4.108  17.038  0.00  0.00    +0.000 OA
ATOM     24  H   UNL     1      47.585   5.620  17.007  0.00  0.00    +0.000 HD
BRANCH  22  25
ATOM     25  C   UNL     1      49.875   6.244  17.910  0.00  0.00    +0.000 A 
ATOM     26  C   UNL     1      51.070   6.901  17.657  0.00  0.00    +0.000 A 
ATOM     27  S   UNL     1      51.256   8.344  18.555  0.00  0.00    +0.000 S 
ATOM     28  C   UNL     1      49.761   8.119  19.336  0.00  0.00    +0.000 A 
ATOM     29  N   UNL     1      49.312   9.003  20.266  0.00  0.00    +0.000 NA
ATOM     30  C   UNL     1      48.164   8.702  20.779  0.00  0.00    +0.000 A 
ATOM     31  N   UNL     1      47.423   7.597  20.444  0.00  0.00    +0.000 N 
ATOM     32  C   UNL     1      47.833   6.685  19.504  0.00  0.00    +0.000 A 
ATOM     33  O   UNL     1      47.129   5.727  19.201  0.00  0.00    +0.000 OA
ATOM     34  C   UNL     1      49.119   6.972  18.903  0.00  0.00    +0.000 A 
ATOM     35  H   UNL     1      46.524   7.425  20.868  0.00  0.00    +0.000 HD
ENDBRANCH  22  25
ENDBRANCH  20  21
ENDBRANCH   4  20
TORSDOF 6
ENDMDL
MODEL 8
REMARK VINA RESULT:    -7.227      1.799      3.149
REMARK INTER + INTRA:         -10.693
REMARK INTER:                  -9.522
REMARK INTRA:                  -1.172
REMARK UNBOUND:                -0.931
REMARK  Name = 
REMARK  7 active torsions:
REMARK  status: ('A' for Active; 'I' for Inactive)
REMARK    1  A    between atoms: C_1  and  C_2
REMARK    2  A    between atoms: C_2  and  N_3
REMARK    3  A    between atoms: C_2  and  C_12
REMARK    4  A    between atoms: C_4  and  C_6
REMARK    5  A    between atoms: C_15  and  C_16
REMARK    6  A    between atoms: C_16  and  N_17
REMARK    7  A    between atoms: C_18  and  C_20
REMARK                            x       y       z     vdW  Elec       q    Type
REMARK                         _______ _______ _______ _____ _____    ______ ____
ROOT
ATOM      1  C   UNL     1      45.764   4.995  12.266  0.00  0.00    +0.000 A 
ATOM      2  C   UNL     1      46.257   5.944  13.166  0.00  0.00    +0.000 A 
ATOM      3  C   UNL     1      46.867   5.546  14.360  0.00  0.00    +0.000 A 
ATOM      4  C   UNL     1      47.028   4.186  14.669  0.00  0.00    +0.000 A 
ATOM      5  C   UNL     1      46.553   3.237  13.753  0.00  0.00    +0.000 A 
ATOM      6  C   UNL     1      45.963   3.635  12.549  0.00  0.00    +0.000 A 
ENDROOT
BRANCH   1   8
ATOM      7  C   UNL     1      45.046   6.970  10.921  0.00  0.00    +0.000 C 
ATOM      8  C   UNL     1      44.969   5.450  11.058  0.00  0.00    +0.000 C 
BRANCH   8   9
ATOM      9  N   UNL     1      45.438   4.775   9.860  0.00  0.00    +0.000 N 
ATOM     10  C   UNL     1      44.777   3.708   9.303  0.00  0.00    +0.000 C 
ATOM     11  O   UNL     1      43.769   3.210   9.819  0.00  0.00    +0.000 OA
ATOM     12  H   UNL     1      46.308   5.058   9.412  0.00  0.00    +0.000 HD
BRANCH  10  13
ATOM     13  C   UNL     1      45.400   3.101   8.035  0.00  0.00    +0.000 C 
ATOM     14  C   UNL     1      46.156   1.821   8.399  0.00  0.00    +0.000 C 
ATOM     15  C   UNL     1      46.766   1.174   7.159  0.00  0.00    +0.000 C 
ATOM     16  C   UNL     1      47.596   2.187   6.379  0.00  0.00    +0.000 C 
ATOM     17  C   UNL     1      46.802   3.463   6.102  0.00  0.00    +0.000 C 
ATOM     18  N   UNL     1      46.301   4.064   7.349  0.00  0.00    +0.000 NA
ATOM     19  H   UNL     1      45.749   4.889   7.103  0.00  0.00    +0.000 HD
ENDBRANCH  10  13
ENDBRANCH   8   9
ENDBRANCH   1   8
BRANCH   4  20
ATOM     20  C   UNL     1      47.710   3.747  15.947  0.00  0.00    +0.000 C 
BRANCH  20  21
ATOM     21  N   UNL     1      48.387   4.816  16.628  0.00  0.00    +0.000 N 
ATOM     22  C   UNL     1      49.641   4.671  17.179  0.00  0.00    +0.000 C 
ATOM     23  O   UNL     1      50.287   3.637  17.100  0.00  0.00    +0.000 OA
ATOM     24  H   UNL     1      47.827   5.617  16.905  0.00  0.00    +0.000 HD
BRANCH  22  25
ATOM     25  C   UNL     1      50.185   5.884  17.810  0.00  0.00    +0.000 A 
ATOM     26  C   UNL     1      50.423   5.917  19.176  0.00  0.00    +0.000 A 
ATOM     27  S   UNL     1      51.087   7.398  19.714  0.00  0.00    +0.000 S 
ATOM     28  C   UNL     1      51.048   8.053  18.144  0.00  0.00    +0.000 A 
ATOM     29  N   UNL     1      51.468   9.323  17.900  0.00  0.00    +0.000 NA
ATOM     30  C   UNL     1      51.375   9.688  16.663  0.00  0.00    +0.000 A 
ATOM     31  N   UNL     1      50.903   8.895  15.647  0.00  0.00    +0.000 N 
ATOM     32  C   UNL     1      50.479   7.606  15.846  0.00  0.00    +0.000 A 
ATOM     33  O   UNL     1      50.098   6.911  14.909  0.00  0.00    +0.000 OA
ATOM     34  C   UNL     1      50.555   7.149  17.219  0.00  0.00    +0.000 A 
ATOM     35  H   UNL     1      50.872   9.232  14.697  0.00  0.00    +0.000 HD
ENDBRANCH  22  25
ENDBRANCH  20  21
ENDBRANCH   4  20
TORSDOF 6
ENDMDL
MODEL 9
REMARK VINA RESULT:    -6.971      3.993      9.257
REMARK INTER + INTRA:         -10.347
REMARK INTER:                  -9.222
REMARK INTRA:                  -1.125
REMARK UNBOUND:                -0.931
REMARK  Name = 
REMARK  7 active torsions:
REMARK  status: ('A' for Active; 'I' for Inactive)
REMARK    1  A    between atoms: C_1  and  C_2
REMARK    2  A    between atoms: C_2  and  N_3
REMARK    3  A    between atoms: C_2  and  C_12
REMARK    4  A    between atoms: C_4  and  C_6
REMARK    5  A    between atoms: C_15  and  C_16
REMARK    6  A    between atoms: C_16  and  N_17
REMARK    7  A    between atoms: C_18  and  C_20
REMARK                            x       y       z     vdW  Elec       q    Type
REMARK                         _______ _______ _______ _____ _____    ______ ____
ROOT
ATOM      1  C   UNL     1      51.322   3.966  17.855  0.00  0.00    +0.000 A 
ATOM      2  C   UNL     1      50.404   5.016  17.958  0.00  0.00    +0.000 A 
ATOM      3  C   UNL     1      49.069   4.834  17.584  0.00  0.00    +0.000 A 
ATOM      4  C   UNL     1      48.610   3.588  17.127  0.00  0.00    +0.000 A 
ATOM      5  C   UNL     1      49.529   2.533  17.047  0.00  0.00    +0.000 A 
ATOM      6  C   UNL     1      50.860   2.708  17.441  0.00  0.00    +0.000 A 
ENDROOT
BRANCH   1   8
ATOM      7  C   UNL     1      53.528   2.911  18.354  0.00  0.00    +0.000 C 
ATOM      8  C   UNL     1      52.793   4.229  18.115  0.00  0.00    +0.000 C 
BRANCH   8   9
ATOM      9  N   UNL     1      53.374   4.981  17.015  0.00  0.00    +0.000 N 
ATOM     10  C   UNL     1      53.738   6.300  17.128  0.00  0.00    +0.000 C 
ATOM     11  O   UNL     1      53.538   6.957  18.157  0.00  0.00    +0.000 OA
ATOM     12  H   UNL     1      53.496   4.550  16.099  0.00  0.00    +0.000 HD
BRANCH  10  13
ATOM     13  C   UNL     1      54.339   6.956  15.874  0.00  0.00    +0.000 C 
ATOM     14  C   UNL     1      53.252   7.742  15.137  0.00  0.00    +0.000 C 
ATOM     15  C   UNL     1      53.818   8.431  13.899  0.00  0.00    +0.000 C 
ATOM     16  C   UNL     1      54.567   7.432  13.024  0.00  0.00    +0.000 C 
ATOM     17  C   UNL     1      55.592   6.641  13.834  0.00  0.00    +0.000 C 
ATOM     18  N   UNL     1      54.961   5.953  14.972  0.00  0.00    +0.000 NA
ATOM     19  H   UNL     1      55.695   5.471  15.497  0.00  0.00    +0.000 HD
ENDBRANCH  10  13
ENDBRANCH   8   9
ENDBRANCH   1   8
BRANCH   4  20
ATOM     20  C   UNL     1      47.161   3.378  16.744  0.00  0.00    +0.000 C 
BRANCH  20  21
ATOM     21  N   UNL     1      46.689   4.314  15.761  0.00  0.00    +0.000 N 
ATOM     22  C   UNL     1      46.764   4.072  14.407  0.00  0.00    +0.000 C 
ATOM     23  O   UNL     1      47.202   3.032  13.940  0.00  0.00    +0.000 OA
ATOM     24  H   UNL     1      46.513   5.264  16.073  0.00  0.00    +0.000 HD
BRANCH  22  25
ATOM     25  C   UNL     1      46.204   5.133  13.556  0.00  0.00    +0.000 A 
ATOM     26  C   UNL     1      46.928   6.290  13.309  0.00  0.00    +0.000 A 
ATOM     27  S   UNL     1      46.127   7.387  12.272  0.00  0.00    +0.000 S 
ATOM     28  C   UNL     1      44.771   6.366  12.146  0.00  0.00    +0.000 A 
ATOM     29  N   UNL     1      43.688   6.721  11.404  0.00  0.00    +0.000 NA
ATOM     30  C   UNL     1      42.731   5.850  11.405  0.00  0.00    +0.000 A 
ATOM     31  N   UNL     1      42.763   4.655  12.076  0.00  0.00    +0.000 N 
ATOM     32  C   UNL     1      43.838   4.251  12.827  0.00  0.00    +0.000 A 
ATOM     33  O   UNL     1      43.849   3.159  13.385  0.00  0.00    +0.000 OA
ATOM     34  C   UNL     1      44.936   5.196  12.867  0.00  0.00    +0.000 A 
ATOM     35  H   UNL     1      41.990   4.008  12.023  0.00  0.00    +0.000 HD
ENDBRANCH  22  25
ENDBRANCH  20  21
ENDBRANCH   4  20
TORSDOF 6
ENDMDL
