MODEL 1
REMARK VINA RESULT:    -7.887      0.000      0.000
REMARK INTER + INTRA:         -11.547
REMARK INTER:                 -10.192
REMARK INTRA:                  -1.355
REMARK UNBOUND:                -1.355
REMARK  Name = 
REMARK  6 active torsions:
REMARK  status: ('A' for Active; 'I' for Inactive)
REMARK    1  A    between atoms: C_1  and  N_2
REMARK    2  A    between atoms: N_2  and  C_3
REMARK    3  A    between atoms: C_3  and  C_4
REMARK    4  A    between atoms: C_7  and  C_8
REMARK    5  A    between atoms: C_8  and  C_9
REMARK    6  A    between atoms: C_17  and  C_19
REMARK                            x       y       z     vdW  Elec       q    Type
REMARK                         _______ _______ _______ _____ _____    ______ ____
ROOT
ATOM      1  C   UNL     1      46.241   8.624  12.176  0.00  0.00    +0.000 C 
ATOM      2  N   UNL     1      46.007   7.186  12.129  0.00  0.00    +0.000 N 
ATOM      3  C   UNL     1      44.780   6.780  11.572  0.00  0.00    +0.000 C 
ATOM      4  O   UNL     1      43.959   7.603  11.172  0.00  0.00    +0.000 OA
ENDROOT
BRANCH   3   5
ATOM      5  C   UNL     1      44.457   5.347  11.505  0.00  0.00    +0.000 A 
ATOM      6  C   UNL     1      43.715   4.661  12.455  0.00  0.00    +0.000 A 
ATOM      7  S   UNL     1      43.447   3.021  12.066  0.00  0.00    +0.000 S 
ATOM      8  C   UNL     1      44.184   3.209  10.546  0.00  0.00    +0.000 A 
ATOM      9  N   UNL     1      44.191   2.196   9.643  0.00  0.00    +0.000 NA
ATOM     10  C   UNL     1      44.728   2.504   8.510  0.00  0.00    +0.000 A 
ATOM     11  N   UNL     1      45.296   3.715   8.215  0.00  0.00    +0.000 N 
ATOM     12  C   UNL     1      45.437   4.722   9.146  0.00  0.00    +0.000 A 
ATOM     13  O   UNL     1      46.169   5.681   8.931  0.00  0.00    +0.000 OA
ATOM     14  C   UNL     1      44.727   4.473  10.387  0.00  0.00    +0.000 A 
ATOM     15  H   UNL     1      45.771   3.862   7.337  0.00  0.00    +0.000 HD
ENDBRANCH   3   5
BRANCH   2  16
ATOM     16  C   UNL     1      47.115   6.258  12.351  0.00  0.00    +0.000 C 
BRANCH  16  17
ATOM     17  C   UNL     1      47.427   5.853  13.765  0.00  0.00    +0.000 A 
ATOM     18  C   UNL     1      46.851   4.698  14.316  0.00  0.00    +0.000 A 
ATOM     19  C   UNL     1      47.194   4.281  15.598  0.00  0.00    +0.000 A 
ATOM     20  C   UNL     1      48.123   5.011  16.357  0.00  0.00    +0.000 A 
ATOM     21  C   UNL     1      48.679   6.176  15.811  0.00  0.00    +0.000 A 
ATOM     22  C   UNL     1      48.330   6.600  14.529  0.00  0.00    +0.000 A 
BRANCH  20  23
ATOM     23  C   UNL     1      48.565   4.511  17.709  0.00  0.00    +0.000 C 
BRANCH  23  24
ATOM     24  C   UNL     1      49.860   3.735  17.646  0.00  0.00    +0.000 A 
ATOM     25  C   UNL     1      49.871   2.391  17.258  0.00  0.00    +0.000 A 
ATOM     26  C   UNL     1      51.074   1.704  17.275  0.00  0.00    +0.000 A 
ATOM     27  N   UNL     1      52.250   2.254  17.642  0.00  0.00    +0.000 NA
ATOM     28  C   UNL     1      52.219   3.552  18.014  0.00  0.00    +0.000 A 
ATOM     29  C   UNL     1      51.067   4.322  18.032  0.00  0.00    +0.000 A 
ENDBRANCH  23  24
ENDBRANCH  20  23
ENDBRANCH  16  17
ENDBRANCH   2  16
TORSDOF 5
ENDMDL
MODEL 2
REMARK VINA RESULT:    -7.434      3.820      7.846
REMARK INTER + INTRA:         -10.962
REMARK INTER:                 -10.801
REMARK INTRA:                  -0.162
REMARK UNBOUND:                -1.355
REMARK  Name = 
REMARK  6 active torsions:
REMARK  status: ('A' for Active; 'I' for Inactive)
REMARK    1  A    between atoms: C_1  and  N_2
REMARK    2  A    between atoms: N_2  and  C_3
REMARK    3  A    between atoms: C_3  and  C_4
REMARK    4  A    between atoms: C_7  and  C_8
REMARK    5  A    between atoms: C_8  and  C_9
REMARK    6  A    between atoms: C_17  and  C_19
REMARK                            x       y       z     vdW  Elec       q    Type
REMARK                         _______ _______ _______ _____ _____    ______ ____
ROOT
ATOM      1  C   UNL     1      46.814   4.357  14.587  0.00  0.00    +0.000 C 
ATOM      2  N   UNL     1      46.473   5.593  13.892  0.00  0.00    +0.000 N 
ATOM      3  C   UNL     1      47.520   6.521  13.739  0.00  0.00    +0.000 C 
ATOM      4  O   UNL     1      48.642   6.296  14.187  0.00  0.00    +0.000 OA
ENDROOT
BRANCH   3   5
ATOM      5  C   UNL     1      47.254   7.802  13.065  0.00  0.00    +0.000 A 
ATOM      6  C   UNL     1      46.092   8.544  13.215  0.00  0.00    +0.000 A 
ATOM      7  S   UNL     1      46.106  10.022  12.361  0.00  0.00    +0.000 S 
ATOM      8  C   UNL     1      47.722   9.790  11.886  0.00  0.00    +0.000 A 
ATOM      9  N   UNL     1      48.396  10.756  11.212  0.00  0.00    +0.000 NA
ATOM     10  C   UNL     1      49.632  10.466  10.975  0.00  0.00    +0.000 A 
ATOM     11  N   UNL     1      50.239   9.285  11.310  0.00  0.00    +0.000 N 
ATOM     12  C   UNL     1      49.556   8.224  11.866  0.00  0.00    +0.000 A 
ATOM     13  O   UNL     1      50.058   7.107  11.915  0.00  0.00    +0.000 OA
ATOM     14  C   UNL     1      48.203   8.552  12.277  0.00  0.00    +0.000 A 
ATOM     15  H   UNL     1      51.187   9.092  11.022  0.00  0.00    +0.000 HD
ENDBRANCH   3   5
BRANCH   2  16
ATOM     16  C   UNL     1      45.222   5.687  13.141  0.00  0.00    +0.000 C 
BRANCH  16  17
ATOM     17  C   UNL     1      45.177   5.089  11.763  0.00  0.00    +0.000 A 
ATOM     18  C   UNL     1      44.580   3.836  11.553  0.00  0.00    +0.000 A 
ATOM     19  C   UNL     1      44.471   3.312  10.268  0.00  0.00    +0.000 A 
ATOM     20  C   UNL     1      44.958   4.031   9.166  0.00  0.00    +0.000 A 
ATOM     21  C   UNL     1      45.572   5.272   9.382  0.00  0.00    +0.000 A 
ATOM     22  C   UNL     1      45.689   5.794  10.670  0.00  0.00    +0.000 A 
BRANCH  20  23
ATOM     23  C   UNL     1      44.759   3.508   7.766  0.00  0.00    +0.000 C 
BRANCH  23  24
ATOM     24  C   UNL     1      45.986   2.811   7.226  0.00  0.00    +0.000 A 
ATOM     25  C   UNL     1      46.607   3.258   6.056  0.00  0.00    +0.000 A 
ATOM     26  C   UNL     1      47.693   2.549   5.567  0.00  0.00    +0.000 A 
ATOM     27  N   UNL     1      48.197   1.444   6.155  0.00  0.00    +0.000 NA
ATOM     28  C   UNL     1      47.583   1.027   7.282  0.00  0.00    +0.000 A 
ATOM     29  C   UNL     1      46.491   1.666   7.849  0.00  0.00    +0.000 A 
ENDBRANCH  23  24
ENDBRANCH  20  23
ENDBRANCH  16  17
ENDBRANCH   2  16
TORSDOF 5
ENDMDL
MODEL 3
REMARK VINA RESULT:    -7.114      3.379      8.293
REMARK INTER + INTRA:         -10.548
REMARK INTER:                 -10.002
REMARK INTRA:                  -0.546
REMARK UNBOUND:                -1.355
REMARK  Name = 
REMARK  6 active torsions:
REMARK  status: ('A' for Active; 'I' for Inactive)
REMARK    1  A    between atoms: C_1  and  N_2
REMARK    2  A    between atoms: N_2  and  C_3
REMARK    3  A    between atoms: C_3  and  C_4
REMARK    4  A    between atoms: C_7  and  C_8
REMARK    5  A    between atoms: C_8  and  C_9
REMARK    6  A    between atoms: C_17  and  C_19
REMARK                            x       y       z     vdW  Elec       q    Type
REMARK                         _______ _______ _______ _____ _____    ______ ____
ROOT
ATOM      1  C   UNL     1      48.696   7.168  12.471  0.00  0.00    +0.000 C 
ATOM      2  N   UNL     1      48.036   6.476  13.572  0.00  0.00    +0.000 N 
ATOM      3  C   UNL     1      48.803   6.304  14.739  0.00  0.00    +0.000 C 
ATOM      4  O   UNL     1      49.964   6.701  14.802  0.00  0.00    +0.000 OA
ENDROOT
BRANCH   3   5
ATOM      5  C   UNL     1      48.217   5.599  15.890  0.00  0.00    +0.000 A 
ATOM      6  C   UNL     1      47.757   4.291  15.861  0.00  0.00    +0.000 A 
ATOM      7  S   UNL     1      47.196   3.726  17.371  0.00  0.00    +0.000 S 
ATOM      8  C   UNL     1      47.688   5.157  18.145  0.00  0.00    +0.000 A 
ATOM      9  N   UNL     1      47.599   5.287  19.493  0.00  0.00    +0.000 NA
ATOM     10  C   UNL     1      48.068   6.401  19.946  0.00  0.00    +0.000 A 
ATOM     11  N   UNL     1      48.575   7.411  19.173  0.00  0.00    +0.000 N 
ATOM     12  C   UNL     1      48.554   7.380  17.794  0.00  0.00    +0.000 A 
ATOM     13  O   UNL     1      48.774   8.392  17.138  0.00  0.00    +0.000 OA
ATOM     14  C   UNL     1      48.166   6.094  17.245  0.00  0.00    +0.000 A 
ATOM     15  H   UNL     1      48.851   8.290  19.586  0.00  0.00    +0.000 HD
ENDBRANCH   3   5
BRANCH   2  16
ATOM     16  C   UNL     1      46.587   6.281  13.548  0.00  0.00    +0.000 C 
BRANCH  16  17
ATOM     17  C   UNL     1      45.992   5.534  12.386  0.00  0.00    +0.000 A 
ATOM     18  C   UNL     1      45.790   6.180  11.156  0.00  0.00    +0.000 A 
ATOM     19  C   UNL     1      45.308   5.472  10.059  0.00  0.00    +0.000 A 
ATOM     20  C   UNL     1      45.019   4.103  10.169  0.00  0.00    +0.000 A 
ATOM     21  C   UNL     1      45.202   3.468  11.404  0.00  0.00    +0.000 A 
ATOM     22  C   UNL     1      45.677   4.177  12.507  0.00  0.00    +0.000 A 
BRANCH  20  23
ATOM     23  C   UNL     1      44.585   3.316   8.959  0.00  0.00    +0.000 C 
BRANCH  23  24
ATOM     24  C   UNL     1      45.745   2.657   8.248  0.00  0.00    +0.000 A 
ATOM     25  C   UNL     1      46.639   3.413   7.483  0.00  0.00    +0.000 A 
ATOM     26  C   UNL     1      47.650   2.756   6.800  0.00  0.00    +0.000 A 
ATOM     27  N   UNL     1      47.833   1.420   6.828  0.00  0.00    +0.000 NA
ATOM     28  C   UNL     1      46.960   0.707   7.571  0.00  0.00    +0.000 A 
ATOM     29  C   UNL     1      45.916   1.271   8.289  0.00  0.00    +0.000 A 
ENDBRANCH  23  24
ENDBRANCH  20  23
ENDBRANCH  16  17
ENDBRANCH   2  16
TORSDOF 5
ENDMDL
MODEL 4
REMARK VINA RESULT:    -6.903      4.217      8.023
REMARK INTER + INTRA:         -10.276
REMARK INTER:                  -9.258
REMARK INTRA:                  -1.018
REMARK UNBOUND:                -1.355
REMARK  Name = 
REMARK  6 active torsions:
REMARK  status: ('A' for Active; 'I' for Inactive)
REMARK    1  A    between atoms: C_1  and  N_2
REMARK    2  A    between atoms: N_2  and  C_3
REMARK    3  A    between atoms: C_3  and  C_4
REMARK    4  A    between atoms: C_7  and  C_8
REMARK    5  A    between atoms: C_8  and  C_9
REMARK    6  A    between atoms: C_17  and  C_19
REMARK                            x       y       z     vdW  Elec       q    Type
REMARK                         _______ _______ _______ _____ _____    ______ ____
ROOT
ATOM      1  C   UNL     1      44.749   9.175  12.379  0.00  0.00    +0.000 C 
ATOM      2  N   UNL     1      46.056   8.533  12.451  0.00  0.00    +0.000 N 
ATOM      3  C   UNL     1      47.167   9.396  12.447  0.00  0.00    +0.000 C 
ATOM      4  O   UNL     1      47.027  10.615  12.365  0.00  0.00    +0.000 OA
ENDROOT
BRANCH   3   5
ATOM      5  C   UNL     1      48.523   8.827  12.498  0.00  0.00    +0.000 A 
ATOM      6  C   UNL     1      49.266   8.464  11.385  0.00  0.00    +0.000 A 
ATOM      7  S   UNL     1      50.833   7.899  11.760  0.00  0.00    +0.000 S 
ATOM      8  C   UNL     1      50.624   8.262  13.408  0.00  0.00    +0.000 A 
ATOM      9  N   UNL     1      51.647   8.122  14.288  0.00  0.00    +0.000 NA
ATOM     10  C   UNL     1      51.361   8.496  15.491  0.00  0.00    +0.000 A 
ATOM     11  N   UNL     1      50.136   8.953  15.899  0.00  0.00    +0.000 N 
ATOM     12  C   UNL     1      49.032   8.977  15.072  0.00  0.00    +0.000 A 
ATOM     13  O   UNL     1      47.907   9.144  15.529  0.00  0.00    +0.000 OA
ATOM     14  C   UNL     1      49.339   8.699  13.681  0.00  0.00    +0.000 A 
ATOM     15  H   UNL     1      49.957   9.152  16.872  0.00  0.00    +0.000 HD
ENDBRANCH   3   5
BRANCH   2  16
ATOM     16  C   UNL     1      46.157   7.123  12.828  0.00  0.00    +0.000 C 
BRANCH  16  17
ATOM     17  C   UNL     1      45.837   6.087  11.786  0.00  0.00    +0.000 A 
ATOM     18  C   UNL     1      45.203   4.889  12.149  0.00  0.00    +0.000 A 
ATOM     19  C   UNL     1      44.840   3.960  11.179  0.00  0.00    +0.000 A 
ATOM     20  C   UNL     1      45.102   4.212   9.823  0.00  0.00    +0.000 A 
ATOM     21  C   UNL     1      45.754   5.400   9.467  0.00  0.00    +0.000 A 
ATOM     22  C   UNL     1      46.127   6.328  10.440  0.00  0.00    +0.000 A 
BRANCH  20  23
ATOM     23  C   UNL     1      44.627   3.251   8.763  0.00  0.00    +0.000 C 
BRANCH  23  24
ATOM     24  C   UNL     1      45.768   2.589   8.025  0.00  0.00    +0.000 A 
ATOM     25  C   UNL     1      46.047   1.232   8.209  0.00  0.00    +0.000 A 
ATOM     26  C   UNL     1      47.141   0.684   7.558  0.00  0.00    +0.000 A 
ATOM     27  N   UNL     1      47.962   1.382   6.747  0.00  0.00    +0.000 NA
ATOM     28  C   UNL     1      47.677   2.692   6.583  0.00  0.00    +0.000 A 
ATOM     29  C   UNL     1      46.608   3.331   7.191  0.00  0.00    +0.000 A 
ENDBRANCH  23  24
ENDBRANCH  20  23
ENDBRANCH  16  17
ENDBRANCH   2  16
TORSDOF 5
ENDMDL
MODEL 5
REMARK VINA RESULT:    -6.899      3.647      8.186
REMARK INTER + INTRA:         -10.271
REMARK INTER:                  -9.178
REMARK INTRA:                  -1.092
REMARK UNBOUND:                -1.355
REMARK  Name = 
REMARK  6 active torsions:
REMARK  status: ('A' for Active; 'I' for Inactive)
REMARK    1  A    between atoms: C_1  and  N_2
REMARK    2  A    between atoms: N_2  and  C_3
REMARK    3  A    between atoms: C_3  and  C_4
REMARK    4  A    between atoms: C_7  and  C_8
REMARK    5  A    between atoms: C_8  and  C_9
REMARK    6  A    between atoms: C_17  and  C_19
REMARK                            x       y       z     vdW  Elec       q    Type
REMARK                         _______ _______ _______ _____ _____    ______ ____
ROOT
ATOM      1  C   UNL     1      49.358   7.042  12.302  0.00  0.00    +0.000 C 
ATOM      2  N   UNL     1      48.768   7.417  13.581  0.00  0.00    +0.000 N 
ATOM      3  C   UNL     1      49.671   7.819  14.582  0.00  0.00    +0.000 C 
ATOM      4  O   UNL     1      50.883   7.828  14.380  0.00  0.00    +0.000 OA
ENDROOT
BRANCH   3   5
ATOM      5  C   UNL     1      49.157   8.194  15.909  0.00  0.00    +0.000 A 
ATOM      6  C   UNL     1      48.910   9.496  16.317  0.00  0.00    +0.000 A 
ATOM      7  S   UNL     1      48.249   9.610  17.888  0.00  0.00    +0.000 S 
ATOM      8  C   UNL     1      48.132   7.919  18.015  0.00  0.00    +0.000 A 
ATOM      9  N   UNL     1      47.535   7.340  19.087  0.00  0.00    +0.000 NA
ATOM     10  C   UNL     1      47.462   6.053  19.017  0.00  0.00    +0.000 A 
ATOM     11  N   UNL     1      47.968   5.293  17.996  0.00  0.00    +0.000 N 
ATOM     12  C   UNL     1      48.705   5.828  16.960  0.00  0.00    +0.000 A 
ATOM     13  O   UNL     1      49.356   5.106  16.212  0.00  0.00    +0.000 OA
ATOM     14  C   UNL     1      48.694   7.278  16.924  0.00  0.00    +0.000 A 
ATOM     15  H   UNL     1      47.948   4.285  18.044  0.00  0.00    +0.000 HD
ENDBRANCH   3   5
BRANCH   2  16
ATOM     16  C   UNL     1      47.328   7.658  13.678  0.00  0.00    +0.000 C 
BRANCH  16  17
ATOM     17  C   UNL     1      46.408   6.788  12.867  0.00  0.00    +0.000 A 
ATOM     18  C   UNL     1      45.669   7.334  11.806  0.00  0.00    +0.000 A 
ATOM     19  C   UNL     1      44.873   6.519  11.008  0.00  0.00    +0.000 A 
ATOM     20  C   UNL     1      44.800   5.139  11.254  0.00  0.00    +0.000 A 
ATOM     21  C   UNL     1      45.523   4.601  12.327  0.00  0.00    +0.000 A 
ATOM     22  C   UNL     1      46.315   5.419  13.133  0.00  0.00    +0.000 A 
BRANCH  20  23
ATOM     23  C   UNL     1      44.012   4.240  10.334  0.00  0.00    +0.000 C 
BRANCH  23  24
ATOM     24  C   UNL     1      44.881   3.558   9.304  0.00  0.00    +0.000 A 
ATOM     25  C   UNL     1      45.037   2.168   9.306  0.00  0.00    +0.000 A 
ATOM     26  C   UNL     1      45.892   1.593   8.380  0.00  0.00    +0.000 A 
ATOM     27  N   UNL     1      46.590   2.295   7.463  0.00  0.00    +0.000 NA
ATOM     28  C   UNL     1      46.428   3.635   7.477  0.00  0.00    +0.000 A 
ATOM     29  C   UNL     1      45.597   4.303   8.364  0.00  0.00    +0.000 A 
ENDBRANCH  23  24
ENDBRANCH  20  23
ENDBRANCH  16  17
ENDBRANCH   2  16
TORSDOF 5
ENDMDL
MODEL 6
REMARK VINA RESULT:    -6.804      1.524      2.412
REMARK INTER + INTRA:         -10.148
REMARK INTER:                  -8.957
REMARK INTRA:                  -1.191
REMARK UNBOUND:                -1.355
REMARK  Name = 
REMARK  6 active torsions:
REMARK  status: ('A' for Active; 'I' for Inactive)
REMARK    1  A    between atoms: C_1  and  N_2
REMARK    2  A    between atoms: N_2  and  C_3
REMARK    3  A    between atoms: C_3  and  C_4
REMARK    4  A    between atoms: C_7  and  C_8
REMARK    5  A    between atoms: C_8  and  C_9
REMARK    6  A    between atoms: C_17  and  C_19
REMARK                            x       y       z     vdW  Elec       q    Type
REMARK                         _______ _______ _______ _____ _____    ______ ____
ROOT
ATOM      1  C   UNL     1      46.332   8.648  13.240  0.00  0.00    +0.000 C 
ATOM      2  N   UNL     1      46.209   7.371  12.549  0.00  0.00    +0.000 N 
ATOM      3  C   UNL     1      45.182   7.286  11.590  0.00  0.00    +0.000 C 
ATOM      4  O   UNL     1      44.430   8.235  11.376  0.00  0.00    +0.000 OA
ENDROOT
BRANCH   3   5
ATOM      5  C   UNL     1      44.978   6.024  10.862  0.00  0.00    +0.000 A 
ATOM      6  C   UNL     1      45.533   5.730   9.626  0.00  0.00    +0.000 A 
ATOM      7  S   UNL     1      45.172   4.158   9.066  0.00  0.00    +0.000 S 
ATOM      8  C   UNL     1      44.389   3.765  10.523  0.00  0.00    +0.000 A 
ATOM      9  N   UNL     1      43.935   2.508  10.754  0.00  0.00    +0.000 NA
ATOM     10  C   UNL     1      43.421   2.341  11.927  0.00  0.00    +0.000 A 
ATOM     11  N   UNL     1      43.280   3.326  12.869  0.00  0.00    +0.000 N 
ATOM     12  C   UNL     1      43.597   4.646  12.624  0.00  0.00    +0.000 A 
ATOM     13  O   UNL     1      43.224   5.534  13.383  0.00  0.00    +0.000 OA
ATOM     14  C   UNL     1      44.305   4.854  11.374  0.00  0.00    +0.000 A 
ATOM     15  H   UNL     1      42.795   3.146  13.735  0.00  0.00    +0.000 HD
ENDBRANCH   3   5
BRANCH   2  16
ATOM     16  C   UNL     1      47.288   6.387  12.634  0.00  0.00    +0.000 C 
BRANCH  16  17
ATOM     17  C   UNL     1      47.586   5.778  13.976  0.00  0.00    +0.000 A 
ATOM     18  C   UNL     1      48.478   6.407  14.859  0.00  0.00    +0.000 A 
ATOM     19  C   UNL     1      48.700   5.885  16.129  0.00  0.00    +0.000 A 
ATOM     20  C   UNL     1      48.033   4.721  16.544  0.00  0.00    +0.000 A 
ATOM     21  C   UNL     1      47.160   4.085  15.652  0.00  0.00    +0.000 A 
ATOM     22  C   UNL     1      46.943   4.602  14.376  0.00  0.00    +0.000 A 
BRANCH  20  23
ATOM     23  C   UNL     1      48.202   4.207  17.951  0.00  0.00    +0.000 C 
BRANCH  23  24
ATOM     24  C   UNL     1      49.645   4.200  18.398  0.00  0.00    +0.000 A 
ATOM     25  C   UNL     1      50.601   3.436  17.721  0.00  0.00    +0.000 A 
ATOM     26  C   UNL     1      51.899   3.413  18.205  0.00  0.00    +0.000 A 
ATOM     27  N   UNL     1      52.307   4.091  19.298  0.00  0.00    +0.000 NA
ATOM     28  C   UNL     1      51.370   4.822  19.939  0.00  0.00    +0.000 A 
ATOM     29  C   UNL     1      50.047   4.907  19.534  0.00  0.00    +0.000 A 
ENDBRANCH  23  24
ENDBRANCH  20  23
ENDBRANCH  16  17
ENDBRANCH   2  16
TORSDOF 5
ENDMDL
MODEL 7
REMARK VINA RESULT:    -6.532      3.110      8.119
REMARK INTER + INTRA:          -9.796
REMARK INTER:                  -8.733
REMARK INTRA:                  -1.062
REMARK UNBOUND:                -1.355
REMARK  Name = 
REMARK  6 active torsions:
REMARK  status: ('A' for Active; 'I' for Inactive)
REMARK    1  A    between atoms: C_1  and  N_2
REMARK    2  A    between atoms: N_2  and  C_3
REMARK    3  A    between atoms: C_3  and  C_4
REMARK    4  A    between atoms: C_7  and  C_8
REMARK    5  A    between atoms: C_8  and  C_9
REMARK    6  A    between atoms: C_17  and  C_19
REMARK                            x       y       z     vdW  Elec       q    Type
REMARK                         _______ _______ _______ _____ _____    ______ ____
ROOT
ATOM      1  C   UNL     1      48.711   9.012  15.296  0.00  0.00    +0.000 C 
ATOM      2  N   UNL     1      48.879   7.579  15.503  0.00  0.00    +0.000 N 
ATOM      3  C   UNL     1      48.606   7.108  16.802  0.00  0.00    +0.000 C 
ATOM      4  O   UNL     1      48.268   7.876  17.699  0.00  0.00    +0.000 OA
ENDROOT
BRANCH   3   5
ATOM      5  C   UNL     1      48.770   5.677  17.099  0.00  0.00    +0.000 A 
ATOM      6  C   UNL     1      47.759   4.732  17.002  0.00  0.00    +0.000 A 
ATOM      7  S   UNL     1      48.272   3.139  17.343  0.00  0.00    +0.000 S 
ATOM      8  C   UNL     1      49.891   3.638  17.486  0.00  0.00    +0.000 A 
ATOM      9  N   UNL     1      50.886   2.733  17.664  0.00  0.00    +0.000 NA
ATOM     10  C   UNL     1      52.069   3.250  17.690  0.00  0.00    +0.000 A 
ATOM     11  N   UNL     1      52.342   4.589  17.598  0.00  0.00    +0.000 N 
ATOM     12  C   UNL     1      51.355   5.553  17.559  0.00  0.00    +0.000 A 
ATOM     13  O   UNL     1      51.623   6.736  17.736  0.00  0.00    +0.000 OA
ATOM     14  C   UNL     1      50.019   5.013  17.388  0.00  0.00    +0.000 A 
ATOM     15  H   UNL     1      53.284   4.933  17.707  0.00  0.00    +0.000 HD
ENDBRANCH   3   5
BRANCH   2  16
ATOM     16  C   UNL     1      49.003   6.684  14.353  0.00  0.00    +0.000 C 
BRANCH  16  17
ATOM     17  C   UNL     1      47.768   6.389  13.549  0.00  0.00    +0.000 A 
ATOM     18  C   UNL     1      47.328   7.291  12.567  0.00  0.00    +0.000 A 
ATOM     19  C   UNL     1      46.227   6.987  11.772  0.00  0.00    +0.000 A 
ATOM     20  C   UNL     1      45.543   5.773  11.941  0.00  0.00    +0.000 A 
ATOM     21  C   UNL     1      45.973   4.885  12.937  0.00  0.00    +0.000 A 
ATOM     22  C   UNL     1      47.070   5.192  13.740  0.00  0.00    +0.000 A 
BRANCH  20  23
ATOM     23  C   UNL     1      44.409   5.402  11.020  0.00  0.00    +0.000 C 
BRANCH  23  24
ATOM     24  C   UNL     1      44.817   4.388   9.976  0.00  0.00    +0.000 A 
ATOM     25  C   UNL     1      44.467   3.041  10.111  0.00  0.00    +0.000 A 
ATOM     26  C   UNL     1      44.916   2.139   9.159  0.00  0.00    +0.000 A 
ATOM     27  N   UNL     1      45.675   2.480   8.098  0.00  0.00    +0.000 NA
ATOM     28  C   UNL     1      46.004   3.785   7.985  0.00  0.00    +0.000 A 
ATOM     29  C   UNL     1      45.605   4.762   8.884  0.00  0.00    +0.000 A 
ENDBRANCH  23  24
ENDBRANCH  20  23
ENDBRANCH  16  17
ENDBRANCH   2  16
TORSDOF 5
ENDMDL
MODEL 8
REMARK VINA RESULT:    -6.450      3.472      5.216
REMARK INTER + INTRA:          -9.690
REMARK INTER:                  -8.698
REMARK INTRA:                  -0.992
REMARK UNBOUND:                -1.355
REMARK  Name = 
REMARK  6 active torsions:
REMARK  status: ('A' for Active; 'I' for Inactive)
REMARK    1  A    between atoms: C_1  and  N_2
REMARK    2  A    between atoms: N_2  and  C_3
REMARK    3  A    between atoms: C_3  and  C_4
REMARK    4  A    between atoms: C_7  and  C_8
REMARK    5  A    between atoms: C_8  and  C_9
REMARK    6  A    between atoms: C_17  and  C_19
REMARK                            x       y       z     vdW  Elec       q    Type
REMARK                         _______ _______ _______ _____ _____    ______ ____
ROOT
ATOM      1  C   UNL     1      45.332   8.524  12.662  0.00  0.00    +0.000 C 
ATOM      2  N   UNL     1      45.299   7.076  12.506  0.00  0.00    +0.000 N 
ATOM      3  C   UNL     1      44.283   6.569  11.673  0.00  0.00    +0.000 C 
ATOM      4  O   UNL     1      43.469   7.317  11.135  0.00  0.00    +0.000 OA
ENDROOT
BRANCH   3   5
ATOM      5  C   UNL     1      44.168   5.115  11.478  0.00  0.00    +0.000 A 
ATOM      6  C   UNL     1      43.419   4.270  12.282  0.00  0.00    +0.000 A 
ATOM      7  S   UNL     1      43.424   2.643  11.762  0.00  0.00    +0.000 S 
ATOM      8  C   UNL     1      44.303   3.042  10.362  0.00  0.00    +0.000 A 
ATOM      9  N   UNL     1      44.553   2.111   9.407  0.00  0.00    +0.000 NA
ATOM     10  C   UNL     1      45.173   2.572   8.373  0.00  0.00    +0.000 A 
ATOM     11  N   UNL     1      45.602   3.864   8.227  0.00  0.00    +0.000 N 
ATOM     12  C   UNL     1      45.495   4.806   9.229  0.00  0.00    +0.000 A 
ATOM     13  O   UNL     1      46.110   5.864   9.168  0.00  0.00    +0.000 OA
ATOM     14  C   UNL     1      44.683   4.373  10.352  0.00  0.00    +0.000 A 
ATOM     15  H   UNL     1      46.153   4.139   7.427  0.00  0.00    +0.000 HD
ENDBRANCH   3   5
BRANCH   2  16
ATOM     16  C   UNL     1      46.442   6.268  12.930  0.00  0.00    +0.000 C 
BRANCH  16  17
ATOM     17  C   UNL     1      47.819   6.847  12.759  0.00  0.00    +0.000 A 
ATOM     18  C   UNL     1      48.233   7.339  11.511  0.00  0.00    +0.000 A 
ATOM     19  C   UNL     1      49.479   7.941  11.366  0.00  0.00    +0.000 A 
ATOM     20  C   UNL     1      50.338   8.065  12.469  0.00  0.00    +0.000 A 
ATOM     21  C   UNL     1      49.930   7.554  13.709  0.00  0.00    +0.000 A 
ATOM     22  C   UNL     1      48.685   6.943  13.853  0.00  0.00    +0.000 A 
BRANCH  20  23
ATOM     23  C   UNL     1      51.648   8.799  12.336  0.00  0.00    +0.000 C 
BRANCH  23  24
ATOM     24  C   UNL     1      52.262   8.648  10.963  0.00  0.00    +0.000 A 
ATOM     25  C   UNL     1      52.328   9.734  10.085  0.00  0.00    +0.000 A 
ATOM     26  C   UNL     1      52.844   9.532   8.815  0.00  0.00    +0.000 A 
ATOM     27  N   UNL     1      53.294   8.342   8.366  0.00  0.00    +0.000 NA
ATOM     28  C   UNL     1      53.221   7.305   9.227  0.00  0.00    +0.000 A 
ATOM     29  C   UNL     1      52.721   7.406  10.516  0.00  0.00    +0.000 A 
ENDBRANCH  23  24
ENDBRANCH  20  23
ENDBRANCH  16  17
ENDBRANCH   2  16
TORSDOF 5
ENDMDL
MODEL 9
REMARK VINA RESULT:    -6.284      2.256      2.957
REMARK INTER + INTRA:          -9.476
REMARK INTER:                  -8.263
REMARK INTRA:                  -1.213
REMARK UNBOUND:                -1.355
REMARK  Name = 
REMARK  6 active torsions:
REMARK  status: ('A' for Active; 'I' for Inactive)
REMARK    1  A    between atoms: C_1  and  N_2
REMARK    2  A    between atoms: N_2  and  C_3
REMARK    3  A    between atoms: C_3  and  C_4
REMARK    4  A    between atoms: C_7  and  C_8
REMARK    5  A    between atoms: C_8  and  C_9
REMARK    6  A    between atoms: C_17  and  C_19
REMARK                            x       y       z     vdW  Elec       q    Type
REMARK                         _______ _______ _______ _____ _____    ______ ____
ROOT
ATOM      1  C   UNL     1      46.361   8.818  11.953  0.00  0.00    +0.000 C 
ATOM      2  N   UNL     1      46.160   7.375  11.996  0.00  0.00    +0.000 N 
ATOM      3  C   UNL     1      44.881   6.920  11.626  0.00  0.00    +0.000 C 
ATOM      4  O   UNL     1      43.993   7.707  11.307  0.00  0.00    +0.000 OA
ENDROOT
BRANCH   3   5
ATOM      5  C   UNL     1      44.590   5.478  11.661  0.00  0.00    +0.000 A 
ATOM      6  C   UNL     1      43.950   4.830  12.706  0.00  0.00    +0.000 A 
ATOM      7  S   UNL     1      43.691   3.165  12.427  0.00  0.00    +0.000 S 
ATOM      8  C   UNL     1      44.290   3.287  10.841  0.00  0.00    +0.000 A 
ATOM      9  N   UNL     1      44.245   2.227   9.995  0.00  0.00    +0.000 NA
ATOM     10  C   UNL     1      44.675   2.486   8.805  0.00  0.00    +0.000 A 
ATOM     11  N   UNL     1      45.185   3.690   8.400  0.00  0.00    +0.000 N 
ATOM     12  C   UNL     1      45.380   4.749   9.262  0.00  0.00    +0.000 A 
ATOM     13  O   UNL     1      46.067   5.710   8.935  0.00  0.00    +0.000 OA
ATOM     14  C   UNL     1      44.785   4.552  10.571  0.00  0.00    +0.000 A 
ATOM     15  H   UNL     1      45.580   3.800   7.477  0.00  0.00    +0.000 HD
ENDBRANCH   3   5
BRANCH   2  16
ATOM     16  C   UNL     1      47.312   6.480  12.104  0.00  0.00    +0.000 C 
BRANCH  16  17
ATOM     17  C   UNL     1      48.093   6.483  13.389  0.00  0.00    +0.000 A 
ATOM     18  C   UNL     1      49.243   7.277  13.519  0.00  0.00    +0.000 A 
ATOM     19  C   UNL     1      49.926   7.338  14.729  0.00  0.00    +0.000 A 
ATOM     20  C   UNL     1      49.472   6.606  15.838  0.00  0.00    +0.000 A 
ATOM     21  C   UNL     1      48.336   5.798  15.698  0.00  0.00    +0.000 A 
ATOM     22  C   UNL     1      47.655   5.729  14.483  0.00  0.00    +0.000 A 
BRANCH  20  23
ATOM     23  C   UNL     1      50.156   6.743  17.174  0.00  0.00    +0.000 C 
BRANCH  23  24
ATOM     24  C   UNL     1      49.177   6.889  18.316  0.00  0.00    +0.000 A 
ATOM     25  C   UNL     1      48.438   8.065  18.479  0.00  0.00    +0.000 A 
ATOM     26  C   UNL     1      47.598   8.175  19.576  0.00  0.00    +0.000 A 
ATOM     27  N   UNL     1      47.442   7.210  20.505  0.00  0.00    +0.000 NA
ATOM     28  C   UNL     1      48.164   6.083  20.331  0.00  0.00    +0.000 A 
ATOM     29  C   UNL     1      49.031   5.877  19.269  0.00  0.00    +0.000 A 
ENDBRANCH  23  24
ENDBRANCH  20  23
ENDBRANCH  16  17
ENDBRANCH   2  16
TORSDOF 5
ENDMDL
