MODEL 1
REMARK VINA RESULT:    -7.454      0.000      0.000
REMARK INTER + INTRA:         -11.768
REMARK INTER:                 -10.940
REMARK INTRA:                  -0.828
REMARK UNBOUND:                -0.828
REMARK  Name = 
REMARK  11 active torsions:
REMARK  status: ('A' for Active; 'I' for Inactive)
REMARK    1  A    between atoms: C_1  and  C_2
REMARK    2  A    between atoms: C_2  and  N_3
REMARK    3  A    between atoms: N_3  and  C_4
REMARK    4  A    between atoms: N_3  and  C_16
REMARK    5  A    between atoms: C_4  and  C_5
REMARK    6  A    between atoms: C_5  and  C_6
REMARK    7  A    between atoms: C_5  and  C_7
REMARK    8  A    between atoms: C_11  and  C_12
REMARK    9  A    between atoms: C_12  and  N_13
REMARK   10  A    between atoms: N_13  and  C_14
REMARK   11  A    between atoms: C_19  and  C_20
REMARK                            x       y       z     vdW  Elec       q    Type
REMARK                         _______ _______ _______ _____ _____    ______ ____
ROOT
ATOM      1  N   UNL     1      44.445   4.776  10.644  0.00  0.00    +0.000 N 
ENDROOT
BRANCH   1   2
ATOM      2  C   UNL     1      45.114   4.084   9.634  0.00  0.00    +0.000 A 
ATOM      3  C   UNL     1      45.086   2.683   9.543  0.00  0.00    +0.000 A 
ATOM      4  C   UNL     1      45.791   1.977   8.558  0.00  0.00    +0.000 A 
ATOM      5  C   UNL     1      46.503   2.660   7.577  0.00  0.00    +0.000 A 
ATOM      6  C   UNL     1      46.537   4.051   7.619  0.00  0.00    +0.000 A 
ATOM      7  C   UNL     1      45.869   4.740   8.646  0.00  0.00    +0.000 A 
BRANCH   5   8
ATOM      8  C   UNL     1      47.214   1.870   6.540  0.00  0.00    +0.000 C 
ATOM      9  N   UNL     1      47.888   2.565   5.575  0.00  0.00    +0.000 N 
ATOM     10  O   UNL     1      47.168   0.648   6.519  0.00  0.00    +0.000 OA
ATOM     11  H   UNL     1      47.735   3.550   5.412  0.00  0.00    +0.000 HD
ATOM     12  H   UNL     1      48.257   2.014   4.811  0.00  0.00    +0.000 HD
ENDBRANCH   5   8
ENDBRANCH   1   2
BRANCH   1  14
ATOM     13  C   UNL     1      42.308   5.460  11.788  0.00  0.00    +0.000 C 
ATOM     14  C   UNL     1      43.094   4.372  11.069  0.00  0.00    +0.000 C 
ENDBRANCH   1  14
BRANCH   1  15
ATOM     15  C   UNL     1      45.072   5.946  11.315  0.00  0.00    +0.000 C 
BRANCH  15  16
ATOM     16  C   UNL     1      45.749   5.632  12.676  0.00  0.00    +0.000 C 
ATOM     17  C   UNL     1      45.944   4.139  12.938  0.00  0.00    +0.000 C 
BRANCH  16  18
ATOM     18  C   UNL     1      47.088   6.356  12.783  0.00  0.00    +0.000 A 
ATOM     19  C   UNL     1      47.628   6.994  11.665  0.00  0.00    +0.000 A 
ATOM     20  C   UNL     1      48.852   7.645  11.777  0.00  0.00    +0.000 A 
ATOM     21  C   UNL     1      49.511   7.654  13.001  0.00  0.00    +0.000 A 
ATOM     22  C   UNL     1      48.921   7.003  14.078  0.00  0.00    +0.000 A 
ATOM     23  N   UNL     1      47.721   6.359  13.984  0.00  0.00    +0.000 NA
BRANCH  22  24
ATOM     24  C   UNL     1      49.645   6.955  15.413  0.00  0.00    +0.000 C 
BRANCH  24  25
ATOM     25  N   UNL     1      49.404   5.721  16.179  0.00  0.00    +0.000 NA
ATOM     26  C   UNL     1      48.791   5.996  17.475  0.00  0.00    +0.000 C 
ATOM     27  H   UNL     1      50.322   5.306  16.343  0.00  0.00    +0.000 HD
ENDBRANCH  24  25
ENDBRANCH  22  24
ENDBRANCH  16  18
ENDBRANCH  15  16
ENDBRANCH   1  15
TORSDOF 8
ENDMDL
MODEL 2
REMARK VINA RESULT:    -6.972      1.238      2.303
REMARK INTER + INTRA:         -11.062
REMARK INTER:                 -10.147
REMARK INTRA:                  -0.914
REMARK UNBOUND:                -0.828
REMARK  Name = 
REMARK  11 active torsions:
REMARK  status: ('A' for Active; 'I' for Inactive)
REMARK    1  A    between atoms: C_1  and  C_2
REMARK    2  A    between atoms: C_2  and  N_3
REMARK    3  A    between atoms: N_3  and  C_4
REMARK    4  A    between atoms: N_3  and  C_16
REMARK    5  A    between atoms: C_4  and  C_5
REMARK    6  A    between atoms: C_5  and  C_6
REMARK    7  A    between atoms: C_5  and  C_7
REMARK    8  A    between atoms: C_11  and  C_12
REMARK    9  A    between atoms: C_12  and  N_13
REMARK   10  A    between atoms: N_13  and  C_14
REMARK   11  A    between atoms: C_19  and  C_20
REMARK                            x       y       z     vdW  Elec       q    Type
REMARK                         _______ _______ _______ _____ _____    ______ ____
ROOT
ATOM      1  N   UNL     1      44.598   4.919  10.928  0.00  0.00    +0.000 N 
ENDROOT
BRANCH   1   2
ATOM      2  C   UNL     1      45.167   4.220   9.865  0.00  0.00    +0.000 A 
ATOM      3  C   UNL     1      45.865   4.867   8.832  0.00  0.00    +0.000 A 
ATOM      4  C   UNL     1      46.401   4.176   7.737  0.00  0.00    +0.000 A 
ATOM      5  C   UNL     1      46.316   2.789   7.670  0.00  0.00    +0.000 A 
ATOM      6  C   UNL     1      45.653   2.107   8.686  0.00  0.00    +0.000 A 
ATOM      7  C   UNL     1      45.073   2.821   9.748  0.00  0.00    +0.000 A 
BRANCH   5   8
ATOM      8  C   UNL     1      46.922   2.099   6.502  0.00  0.00    +0.000 C 
ATOM      9  N   UNL     1      47.173   2.852   5.390  0.00  0.00    +0.000 N 
ATOM     10  O   UNL     1      47.149   0.896   6.513  0.00  0.00    +0.000 OA
ATOM     11  H   UNL     1      46.768   3.767   5.254  0.00  0.00    +0.000 HD
ATOM     12  H   UNL     1      47.467   2.341   4.567  0.00  0.00    +0.000 HD
ENDBRANCH   5   8
ENDBRANCH   1   2
BRANCH   1  14
ATOM     13  C   UNL     1      42.316   5.515  11.813  0.00  0.00    +0.000 C 
ATOM     14  C   UNL     1      43.376   5.718  10.739  0.00  0.00    +0.000 C 
ENDBRANCH   1  14
BRANCH   1  15
ATOM     15  C   UNL     1      45.212   4.887  12.283  0.00  0.00    +0.000 C 
BRANCH  15  16
ATOM     16  C   UNL     1      46.511   5.722  12.431  0.00  0.00    +0.000 C 
ATOM     17  C   UNL     1      46.314   7.218  12.186  0.00  0.00    +0.000 C 
BRANCH  16  18
ATOM     18  C   UNL     1      47.133   5.500  13.807  0.00  0.00    +0.000 A 
ATOM     19  C   UNL     1      46.709   4.433  14.600  0.00  0.00    +0.000 A 
ATOM     20  C   UNL     1      47.281   4.247  15.854  0.00  0.00    +0.000 A 
ATOM     21  C   UNL     1      48.269   5.122  16.291  0.00  0.00    +0.000 A 
ATOM     22  C   UNL     1      48.650   6.164  15.454  0.00  0.00    +0.000 A 
ATOM     23  N   UNL     1      48.098   6.361  14.221  0.00  0.00    +0.000 NA
BRANCH  22  24
ATOM     24  C   UNL     1      49.692   7.164  15.928  0.00  0.00    +0.000 C 
BRANCH  24  25
ATOM     25  N   UNL     1      51.001   7.018  15.270  0.00  0.00    +0.000 NA
ATOM     26  C   UNL     1      52.068   6.757  16.231  0.00  0.00    +0.000 C 
ATOM     27  H   UNL     1      51.192   7.913  14.818  0.00  0.00    +0.000 HD
ENDBRANCH  24  25
ENDBRANCH  22  24
ENDBRANCH  16  18
ENDBRANCH  15  16
ENDBRANCH   1  15
TORSDOF 8
ENDMDL
MODEL 3
REMARK VINA RESULT:    -6.738      1.463      2.409
REMARK INTER + INTRA:         -10.717
REMARK INTER:                  -9.851
REMARK INTRA:                  -0.867
REMARK UNBOUND:                -0.828
REMARK  Name = 
REMARK  11 active torsions:
REMARK  status: ('A' for Active; 'I' for Inactive)
REMARK    1  A    between atoms: C_1  and  C_2
REMARK    2  A    between atoms: C_2  and  N_3
REMARK    3  A    between atoms: N_3  and  C_4
REMARK    4  A    between atoms: N_3  and  C_16
REMARK    5  A    between atoms: C_4  and  C_5
REMARK    6  A    between atoms: C_5  and  C_6
REMARK    7  A    between atoms: C_5  and  C_7
REMARK    8  A    between atoms: C_11  and  C_12
REMARK    9  A    between atoms: C_12  and  N_13
REMARK   10  A    between atoms: N_13  and  C_14
REMARK   11  A    between atoms: C_19  and  C_20
REMARK                            x       y       z     vdW  Elec       q    Type
REMARK                         _______ _______ _______ _____ _____    ______ ____
ROOT
ATOM      1  N   UNL     1      44.702   5.250  11.204  0.00  0.00    +0.000 N 
ENDROOT
BRANCH   1   2
ATOM      2  C   UNL     1      45.195   4.531  10.116  0.00  0.00    +0.000 A 
ATOM      3  C   UNL     1      45.875   5.151   9.055  0.00  0.00    +0.000 A 
ATOM      4  C   UNL     1      46.334   4.442   7.936  0.00  0.00    +0.000 A 
ATOM      5  C   UNL     1      46.188   3.060   7.871  0.00  0.00    +0.000 A 
ATOM      6  C   UNL     1      45.540   2.404   8.914  0.00  0.00    +0.000 A 
ATOM      7  C   UNL     1      45.037   3.138  10.001  0.00  0.00    +0.000 A 
BRANCH   5   8
ATOM      8  C   UNL     1      46.713   2.349   6.678  0.00  0.00    +0.000 C 
ATOM      9  N   UNL     1      46.832   3.068   5.521  0.00  0.00    +0.000 N 
ATOM     10  O   UNL     1      46.990   1.157   6.710  0.00  0.00    +0.000 OA
ATOM     11  H   UNL     1      46.379   3.961   5.391  0.00  0.00    +0.000 HD
ATOM     12  H   UNL     1      47.071   2.537   4.694  0.00  0.00    +0.000 HD
ENDBRANCH   5   8
ENDBRANCH   1   2
BRANCH   1  14
ATOM     13  C   UNL     1      42.262   5.439  11.799  0.00  0.00    +0.000 C 
ATOM     14  C   UNL     1      43.465   6.042  11.088  0.00  0.00    +0.000 C 
ENDBRANCH   1  14
BRANCH   1  15
ATOM     15  C   UNL     1      45.413   5.248  12.510  0.00  0.00    +0.000 C 
BRANCH  15  16
ATOM     16  C   UNL     1      46.832   5.875  12.482  0.00  0.00    +0.000 C 
ATOM     17  C   UNL     1      46.862   7.310  11.955  0.00  0.00    +0.000 C 
BRANCH  16  18
ATOM     18  C   UNL     1      47.466   5.820  13.869  0.00  0.00    +0.000 A 
ATOM     19  C   UNL     1      48.280   6.867  14.307  0.00  0.00    +0.000 A 
ATOM     20  C   UNL     1      48.855   6.800  15.571  0.00  0.00    +0.000 A 
ATOM     21  C   UNL     1      48.602   5.696  16.379  0.00  0.00    +0.000 A 
ATOM     22  C   UNL     1      47.781   4.688  15.888  0.00  0.00    +0.000 A 
ATOM     23  N   UNL     1      47.210   4.739  14.649  0.00  0.00    +0.000 NA
BRANCH  22  24
ATOM     24  C   UNL     1      47.530   3.449  16.731  0.00  0.00    +0.000 C 
BRANCH  24  25
ATOM     25  N   UNL     1      47.172   3.742  18.129  0.00  0.00    +0.000 NA
ATOM     26  C   UNL     1      48.296   3.528  19.034  0.00  0.00    +0.000 C 
ATOM     27  H   UNL     1      46.434   3.082  18.377  0.00  0.00    +0.000 HD
ENDBRANCH  24  25
ENDBRANCH  22  24
ENDBRANCH  16  18
ENDBRANCH  15  16
ENDBRANCH   1  15
TORSDOF 8
ENDMDL
MODEL 4
REMARK VINA RESULT:    -6.587      2.887      7.539
REMARK INTER + INTRA:         -10.495
REMARK INTER:                  -9.586
REMARK INTRA:                  -0.909
REMARK UNBOUND:                -0.828
REMARK  Name = 
REMARK  11 active torsions:
REMARK  status: ('A' for Active; 'I' for Inactive)
REMARK    1  A    between atoms: C_1  and  C_2
REMARK    2  A    between atoms: C_2  and  N_3
REMARK    3  A    between atoms: N_3  and  C_4
REMARK    4  A    between atoms: N_3  and  C_16
REMARK    5  A    between atoms: C_4  and  C_5
REMARK    6  A    between atoms: C_5  and  C_6
REMARK    7  A    between atoms: C_5  and  C_7
REMARK    8  A    between atoms: C_11  and  C_12
REMARK    9  A    between atoms: C_12  and  N_13
REMARK   10  A    between atoms: N_13  and  C_14
REMARK   11  A    between atoms: C_19  and  C_20
REMARK                            x       y       z     vdW  Elec       q    Type
REMARK                         _______ _______ _______ _____ _____    ______ ____
ROOT
ATOM      1  N   UNL     1      48.182   6.938  12.786  0.00  0.00    +0.000 N 
ENDROOT
BRANCH   1   2
ATOM      2  C   UNL     1      47.999   6.182  13.944  0.00  0.00    +0.000 A 
ATOM      3  C   UNL     1      47.248   4.996  13.951  0.00  0.00    +0.000 A 
ATOM      4  C   UNL     1      47.022   4.254  15.119  0.00  0.00    +0.000 A 
ATOM      5  C   UNL     1      47.604   4.641  16.322  0.00  0.00    +0.000 A 
ATOM      6  C   UNL     1      48.376   5.799  16.352  0.00  0.00    +0.000 A 
ATOM      7  C   UNL     1      48.545   6.560  15.183  0.00  0.00    +0.000 A 
BRANCH   5   8
ATOM      8  C   UNL     1      47.357   3.809  17.527  0.00  0.00    +0.000 C 
ATOM      9  N   UNL     1      47.999   4.168  18.679  0.00  0.00    +0.000 N 
ATOM     10  O   UNL     1      46.642   2.817  17.488  0.00  0.00    +0.000 OA
ATOM     11  H   UNL     1      48.780   4.807  18.685  0.00  0.00    +0.000 HD
ATOM     12  H   UNL     1      47.916   3.518  19.451  0.00  0.00    +0.000 HD
ENDBRANCH   5   8
ENDBRANCH   1   2
BRANCH   1  14
ATOM     13  C   UNL     1      49.217   8.997  11.769  0.00  0.00    +0.000 C 
ATOM     14  C   UNL     1      49.410   7.726  12.584  0.00  0.00    +0.000 C 
ENDBRANCH   1  14
BRANCH   1  15
ATOM     15  C   UNL     1      47.140   6.978  11.725  0.00  0.00    +0.000 C 
BRANCH  15  16
ATOM     16  C   UNL     1      45.705   7.284  12.230  0.00  0.00    +0.000 C 
ATOM     17  C   UNL     1      45.097   8.552  11.629  0.00  0.00    +0.000 C 
BRANCH  16  18
ATOM     18  C   UNL     1      44.785   6.096  11.970  0.00  0.00    +0.000 A 
ATOM     19  C   UNL     1      43.785   5.773  12.890  0.00  0.00    +0.000 A 
ATOM     20  C   UNL     1      42.958   4.683  12.642  0.00  0.00    +0.000 A 
ATOM     21  C   UNL     1      43.136   3.940  11.480  0.00  0.00    +0.000 A 
ATOM     22  C   UNL     1      44.147   4.314  10.601  0.00  0.00    +0.000 A 
ATOM     23  N   UNL     1      44.968   5.380  10.831  0.00  0.00    +0.000 NA
BRANCH  22  24
ATOM     24  C   UNL     1      44.394   3.488   9.349  0.00  0.00    +0.000 C 
BRANCH  24  25
ATOM     25  N   UNL     1      44.976   2.162   9.615  0.00  0.00    +0.000 NA
ATOM     26  C   UNL     1      45.807   1.701   8.508  0.00  0.00    +0.000 C 
ATOM     27  H   UNL     1      44.188   1.521   9.709  0.00  0.00    +0.000 HD
ENDBRANCH  24  25
ENDBRANCH  22  24
ENDBRANCH  16  18
ENDBRANCH  15  16
ENDBRANCH   1  15
TORSDOF 8
ENDMDL
MODEL 5
REMARK VINA RESULT:    -6.511      2.794      5.179
REMARK INTER + INTRA:         -10.385
REMARK INTER:                  -9.277
REMARK INTRA:                  -1.108
REMARK UNBOUND:                -0.828
REMARK  Name = 
REMARK  11 active torsions:
REMARK  status: ('A' for Active; 'I' for Inactive)
REMARK    1  A    between atoms: C_1  and  C_2
REMARK    2  A    between atoms: C_2  and  N_3
REMARK    3  A    between atoms: N_3  and  C_4
REMARK    4  A    between atoms: N_3  and  C_16
REMARK    5  A    between atoms: C_4  and  C_5
REMARK    6  A    between atoms: C_5  and  C_6
REMARK    7  A    between atoms: C_5  and  C_7
REMARK    8  A    between atoms: C_11  and  C_12
REMARK    9  A    between atoms: C_12  and  N_13
REMARK   10  A    between atoms: N_13  and  C_14
REMARK   11  A    between atoms: C_19  and  C_20
REMARK                            x       y       z     vdW  Elec       q    Type
REMARK                         _______ _______ _______ _____ _____    ______ ____
ROOT
ATOM      1  N   UNL     1      47.639   7.357  12.857  0.00  0.00    +0.000 N 
ENDROOT
BRANCH   1   2
ATOM      2  C   UNL     1      46.807   6.333  12.406  0.00  0.00    +0.000 A 
ATOM      3  C   UNL     1      46.263   6.327  11.111  0.00  0.00    +0.000 A 
ATOM      4  C   UNL     1      45.390   5.326  10.665  0.00  0.00    +0.000 A 
ATOM      5  C   UNL     1      45.080   4.246  11.485  0.00  0.00    +0.000 A 
ATOM      6  C   UNL     1      45.617   4.202  12.769  0.00  0.00    +0.000 A 
ATOM      7  C   UNL     1      46.446   5.244  13.219  0.00  0.00    +0.000 A 
BRANCH   5   8
ATOM      8  C   UNL     1      44.170   3.197  10.959  0.00  0.00    +0.000 C 
ATOM      9  N   UNL     1      44.667   2.360   9.999  0.00  0.00    +0.000 N 
ATOM     10  O   UNL     1      43.009   3.105  11.334  0.00  0.00    +0.000 OA
ATOM     11  H   UNL     1      45.513   2.565   9.489  0.00  0.00    +0.000 HD
ATOM     12  H   UNL     1      43.996   1.737   9.566  0.00  0.00    +0.000 HD
ENDBRANCH   5   8
ENDBRANCH   1   2
BRANCH   1  14
ATOM     13  C   UNL     1      49.723   7.641  11.470  0.00  0.00    +0.000 C 
ATOM     14  C   UNL     1      48.378   8.205  11.906  0.00  0.00    +0.000 C 
ENDBRANCH   1  14
BRANCH   1  15
ATOM     15  C   UNL     1      47.814   7.619  14.312  0.00  0.00    +0.000 C 
BRANCH  15  16
ATOM     16  C   UNL     1      49.111   7.034  14.929  0.00  0.00    +0.000 C 
ATOM     17  C   UNL     1      50.148   8.093  15.304  0.00  0.00    +0.000 C 
BRANCH  16  18
ATOM     18  C   UNL     1      48.782   6.177  16.148  0.00  0.00    +0.000 A 
ATOM     19  C   UNL     1      48.677   6.768  17.408  0.00  0.00    +0.000 A 
ATOM     20  C   UNL     1      48.382   5.973  18.511  0.00  0.00    +0.000 A 
ATOM     21  C   UNL     1      48.189   4.607  18.335  0.00  0.00    +0.000 A 
ATOM     22  C   UNL     1      48.303   4.078  17.055  0.00  0.00    +0.000 A 
ATOM     23  N   UNL     1      48.594   4.845  15.963  0.00  0.00    +0.000 NA
BRANCH  22  24
ATOM     24  C   UNL     1      48.146   2.581  16.845  0.00  0.00    +0.000 C 
BRANCH  24  25
ATOM     25  N   UNL     1      49.306   1.945  16.199  0.00  0.00    +0.000 NA
ATOM     26  C   UNL     1      50.489   1.978  17.052  0.00  0.00    +0.000 C 
ATOM     27  H   UNL     1      49.501   2.495  15.362  0.00  0.00    +0.000 HD
ENDBRANCH  24  25
ENDBRANCH  22  24
ENDBRANCH  16  18
ENDBRANCH  15  16
ENDBRANCH   1  15
TORSDOF 8
ENDMDL
MODEL 6
REMARK VINA RESULT:    -6.393      2.753      4.310
REMARK INTER + INTRA:         -10.211
REMARK INTER:                  -9.153
REMARK INTRA:                  -1.058
REMARK UNBOUND:                -0.828
REMARK  Name = 
REMARK  11 active torsions:
REMARK  status: ('A' for Active; 'I' for Inactive)
REMARK    1  A    between atoms: C_1  and  C_2
REMARK    2  A    between atoms: C_2  and  N_3
REMARK    3  A    between atoms: N_3  and  C_4
REMARK    4  A    between atoms: N_3  and  C_16
REMARK    5  A    between atoms: C_4  and  C_5
REMARK    6  A    between atoms: C_5  and  C_6
REMARK    7  A    between atoms: C_5  and  C_7
REMARK    8  A    between atoms: C_11  and  C_12
REMARK    9  A    between atoms: C_12  and  N_13
REMARK   10  A    between atoms: N_13  and  C_14
REMARK   11  A    between atoms: C_19  and  C_20
REMARK                            x       y       z     vdW  Elec       q    Type
REMARK                         _______ _______ _______ _____ _____    ______ ____
ROOT
ATOM      1  N   UNL     1      45.772   8.153  12.158  0.00  0.00    +0.000 N 
ENDROOT
BRANCH   1   2
ATOM      2  C   UNL     1      45.316   6.868  11.864  0.00  0.00    +0.000 A 
ATOM      3  C   UNL     1      44.535   6.127  12.766  0.00  0.00    +0.000 A 
ATOM      4  C   UNL     1      44.110   4.819  12.497  0.00  0.00    +0.000 A 
ATOM      5  C   UNL     1      44.398   4.223  11.273  0.00  0.00    +0.000 A 
ATOM      6  C   UNL     1      45.152   4.933  10.342  0.00  0.00    +0.000 A 
ATOM      7  C   UNL     1      45.616   6.223  10.652  0.00  0.00    +0.000 A 
BRANCH   5   8
ATOM      8  C   UNL     1      43.906   2.845  11.024  0.00  0.00    +0.000 C 
ATOM      9  N   UNL     1      44.497   2.141  10.012  0.00  0.00    +0.000 N 
ATOM     10  O   UNL     1      42.980   2.367  11.666  0.00  0.00    +0.000 OA
ATOM     11  H   UNL     1      45.068   2.584   9.308  0.00  0.00    +0.000 HD
ATOM     12  H   UNL     1      44.064   1.257   9.778  0.00  0.00    +0.000 HD
ENDBRANCH   5   8
ENDBRANCH   1   2
BRANCH   1  14
ATOM     13  C   UNL     1      45.791  10.640  11.758  0.00  0.00    +0.000 C 
ATOM     14  C   UNL     1      44.999   9.340  11.756  0.00  0.00    +0.000 C 
ENDBRANCH   1  14
BRANCH   1  15
ATOM     15  C   UNL     1      47.056   8.364  12.880  0.00  0.00    +0.000 C 
BRANCH  15  16
ATOM     16  C   UNL     1      48.016   7.145  12.875  0.00  0.00    +0.000 C 
ATOM     17  C   UNL     1      49.337   7.403  12.148  0.00  0.00    +0.000 C 
BRANCH  16  18
ATOM     18  C   UNL     1      48.292   6.679  14.301  0.00  0.00    +0.000 A 
ATOM     19  C   UNL     1      49.003   7.500  15.178  0.00  0.00    +0.000 A 
ATOM     20  C   UNL     1      49.251   7.059  16.473  0.00  0.00    +0.000 A 
ATOM     21  C   UNL     1      48.781   5.813  16.873  0.00  0.00    +0.000 A 
ATOM     22  C   UNL     1      48.077   5.043  15.954  0.00  0.00    +0.000 A 
ATOM     23  N   UNL     1      47.826   5.461  14.679  0.00  0.00    +0.000 NA
BRANCH  22  24
ATOM     24  C   UNL     1      47.596   3.657  16.350  0.00  0.00    +0.000 C 
BRANCH  24  25
ATOM     25  N   UNL     1      48.467   2.567  15.882  0.00  0.00    +0.000 NA
ATOM     26  C   UNL     1      49.493   2.230  16.863  0.00  0.00    +0.000 C 
ATOM     27  H   UNL     1      48.932   2.916  15.043  0.00  0.00    +0.000 HD
ENDBRANCH  24  25
ENDBRANCH  22  24
ENDBRANCH  16  18
ENDBRANCH  15  16
ENDBRANCH   1  15
TORSDOF 8
ENDMDL
MODEL 7
REMARK VINA RESULT:    -6.080      2.957      7.544
REMARK INTER + INTRA:          -9.752
REMARK INTER:                  -9.159
REMARK INTRA:                  -0.594
REMARK UNBOUND:                -0.828
REMARK  Name = 
REMARK  11 active torsions:
REMARK  status: ('A' for Active; 'I' for Inactive)
REMARK    1  A    between atoms: C_1  and  C_2
REMARK    2  A    between atoms: C_2  and  N_3
REMARK    3  A    between atoms: N_3  and  C_4
REMARK    4  A    between atoms: N_3  and  C_16
REMARK    5  A    between atoms: C_4  and  C_5
REMARK    6  A    between atoms: C_5  and  C_6
REMARK    7  A    between atoms: C_5  and  C_7
REMARK    8  A    between atoms: C_11  and  C_12
REMARK    9  A    between atoms: C_12  and  N_13
REMARK   10  A    between atoms: N_13  and  C_14
REMARK   11  A    between atoms: C_19  and  C_20
REMARK                            x       y       z     vdW  Elec       q    Type
REMARK                         _______ _______ _______ _____ _____    ______ ____
ROOT
ATOM      1  N   UNL     1      46.892   6.885  12.475  0.00  0.00    +0.000 N 
ENDROOT
BRANCH   1   2
ATOM      2  C   UNL     1      47.185   6.110  13.597  0.00  0.00    +0.000 A 
ATOM      3  C   UNL     1      46.618   4.841  13.798  0.00  0.00    +0.000 A 
ATOM      4  C   UNL     1      46.872   4.075  14.944  0.00  0.00    +0.000 A 
ATOM      5  C   UNL     1      47.766   4.528  15.909  0.00  0.00    +0.000 A 
ATOM      6  C   UNL     1      48.367   5.772  15.736  0.00  0.00    +0.000 A 
ATOM      7  C   UNL     1      48.058   6.550  14.608  0.00  0.00    +0.000 A 
BRANCH   5   8
ATOM      8  C   UNL     1      48.022   3.670  17.094  0.00  0.00    +0.000 C 
ATOM      9  N   UNL     1      46.990   2.892  17.539  0.00  0.00    +0.000 N 
ATOM     10  O   UNL     1      49.097   3.686  17.679  0.00  0.00    +0.000 OA
ATOM     11  H   UNL     1      46.035   3.044  17.251  0.00  0.00    +0.000 HD
ATOM     12  H   UNL     1      47.146   2.413  18.417  0.00  0.00    +0.000 HD
ENDBRANCH   5   8
ENDBRANCH   1   2
BRANCH   1  14
ATOM     13  C   UNL     1      45.750   9.119  12.698  0.00  0.00    +0.000 C 
ATOM     14  C   UNL     1      47.049   8.349  12.506  0.00  0.00    +0.000 C 
ENDBRANCH   1  14
BRANCH   1  15
ATOM     15  C   UNL     1      46.405   6.258  11.217  0.00  0.00    +0.000 C 
BRANCH  15  16
ATOM     16  C   UNL     1      45.052   5.510  11.342  0.00  0.00    +0.000 C 
ATOM     17  C   UNL     1      43.829   6.412  11.169  0.00  0.00    +0.000 C 
BRANCH  16  18
ATOM     18  C   UNL     1      44.988   4.355  10.346  0.00  0.00    +0.000 A 
ATOM     19  C   UNL     1      44.331   3.172  10.690  0.00  0.00    +0.000 A 
ATOM     20  C   UNL     1      44.287   2.127   9.774  0.00  0.00    +0.000 A 
ATOM     21  C   UNL     1      44.889   2.282   8.531  0.00  0.00    +0.000 A 
ATOM     22  C   UNL     1      45.526   3.485   8.246  0.00  0.00    +0.000 A 
ATOM     23  N   UNL     1      45.579   4.520   9.135  0.00  0.00    +0.000 NA
BRANCH  22  24
ATOM     24  C   UNL     1      46.235   3.660   6.914  0.00  0.00    +0.000 C 
BRANCH  24  25
ATOM     25  N   UNL     1      47.651   3.256   6.935  0.00  0.00    +0.000 NA
ATOM     26  C   UNL     1      47.931   2.205   5.962  0.00  0.00    +0.000 C 
ATOM     27  H   UNL     1      47.824   2.880   7.868  0.00  0.00    +0.000 HD
ENDBRANCH  24  25
ENDBRANCH  22  24
ENDBRANCH  16  18
ENDBRANCH  15  16
ENDBRANCH   1  15
TORSDOF 8
ENDMDL
MODEL 8
REMARK VINA RESULT:    -5.777      4.028      5.865
REMARK INTER + INTRA:          -9.308
REMARK INTER:                  -8.327
REMARK INTRA:                  -0.981
REMARK UNBOUND:                -0.828
REMARK  Name = 
REMARK  11 active torsions:
REMARK  status: ('A' for Active; 'I' for Inactive)
REMARK    1  A    between atoms: C_1  and  C_2
REMARK    2  A    between atoms: C_2  and  N_3
REMARK    3  A    between atoms: N_3  and  C_4
REMARK    4  A    between atoms: N_3  and  C_16
REMARK    5  A    between atoms: C_4  and  C_5
REMARK    6  A    between atoms: C_5  and  C_6
REMARK    7  A    between atoms: C_5  and  C_7
REMARK    8  A    between atoms: C_11  and  C_12
REMARK    9  A    between atoms: C_12  and  N_13
REMARK   10  A    between atoms: N_13  and  C_14
REMARK   11  A    between atoms: C_19  and  C_20
REMARK                            x       y       z     vdW  Elec       q    Type
REMARK                         _______ _______ _______ _____ _____    ______ ____
ROOT
ATOM      1  N   UNL     1      48.297   7.828  12.926  0.00  0.00    +0.000 N 
ENDROOT
BRANCH   1   2
ATOM      2  C   UNL     1      47.202   6.966  12.949  0.00  0.00    +0.000 A 
ATOM      3  C   UNL     1      45.903   7.397  12.630  0.00  0.00    +0.000 A 
ATOM      4  C   UNL     1      44.790   6.548  12.694  0.00  0.00    +0.000 A 
ATOM      5  C   UNL     1      44.948   5.205  13.018  0.00  0.00    +0.000 A 
ATOM      6  C   UNL     1      46.222   4.732  13.318  0.00  0.00    +0.000 A 
ATOM      7  C   UNL     1      47.319   5.610  13.303  0.00  0.00    +0.000 A 
BRANCH   5   8
ATOM      8  C   UNL     1      43.742   4.338  13.048  0.00  0.00    +0.000 C 
ATOM      9  N   UNL     1      43.920   3.006  12.797  0.00  0.00    +0.000 N 
ATOM     10  O   UNL     1      42.625   4.798  13.248  0.00  0.00    +0.000 OA
ATOM     11  H   UNL     1      44.765   2.644  12.381  0.00  0.00    +0.000 HD
ATOM     12  H   UNL     1      43.075   2.459  12.699  0.00  0.00    +0.000 HD
ENDBRANCH   5   8
ENDBRANCH   1   2
BRANCH   1  14
ATOM     13  C   UNL     1      49.522   9.473  11.462  0.00  0.00    +0.000 C 
ATOM     14  C   UNL     1      48.238   9.105  12.194  0.00  0.00    +0.000 C 
ENDBRANCH   1  14
BRANCH   1  15
ATOM     15  C   UNL     1      49.560   7.482  13.631  0.00  0.00    +0.000 C 
BRANCH  15  16
ATOM     16  C   UNL     1      49.639   7.966  15.104  0.00  0.00    +0.000 C 
ATOM     17  C   UNL     1      48.453   8.829  15.534  0.00  0.00    +0.000 C 
BRANCH  16  18
ATOM     18  C   UNL     1      49.782   6.775  16.048  0.00  0.00    +0.000 A 
ATOM     19  C   UNL     1      51.051   6.327  16.419  0.00  0.00    +0.000 A 
ATOM     20  C   UNL     1      51.165   5.238  17.275  0.00  0.00    +0.000 A 
ATOM     21  C   UNL     1      50.014   4.620  17.752  0.00  0.00    +0.000 A 
ATOM     22  C   UNL     1      48.779   5.115  17.349  0.00  0.00    +0.000 A 
ATOM     23  N   UNL     1      48.650   6.182  16.508  0.00  0.00    +0.000 NA
BRANCH  22  24
ATOM     24  C   UNL     1      47.507   4.427  17.817  0.00  0.00    +0.000 C 
BRANCH  24  25
ATOM     25  N   UNL     1      46.593   5.306  18.564  0.00  0.00    +0.000 NA
ATOM     26  C   UNL     1      47.259   5.951  19.691  0.00  0.00    +0.000 C 
ATOM     27  H   UNL     1      45.857   4.703  18.932  0.00  0.00    +0.000 HD
ENDBRANCH  24  25
ENDBRANCH  22  24
ENDBRANCH  16  18
ENDBRANCH  15  16
ENDBRANCH   1  15
TORSDOF 8
ENDMDL
MODEL 9
REMARK VINA RESULT:    -5.273      3.122      4.748
REMARK INTER + INTRA:          -8.567
REMARK INTER:                  -8.045
REMARK INTRA:                  -0.523
REMARK UNBOUND:                -0.828
REMARK  Name = 
REMARK  11 active torsions:
REMARK  status: ('A' for Active; 'I' for Inactive)
REMARK    1  A    between atoms: C_1  and  C_2
REMARK    2  A    between atoms: C_2  and  N_3
REMARK    3  A    between atoms: N_3  and  C_4
REMARK    4  A    between atoms: N_3  and  C_16
REMARK    5  A    between atoms: C_4  and  C_5
REMARK    6  A    between atoms: C_5  and  C_6
REMARK    7  A    between atoms: C_5  and  C_7
REMARK    8  A    between atoms: C_11  and  C_12
REMARK    9  A    between atoms: C_12  and  N_13
REMARK   10  A    between atoms: N_13  and  C_14
REMARK   11  A    between atoms: C_19  and  C_20
REMARK                            x       y       z     vdW  Elec       q    Type
REMARK                         _______ _______ _______ _____ _____    ______ ____
ROOT
ATOM      1  N   UNL     1      47.727   7.565  12.004  0.00  0.00    +0.000 N 
ENDROOT
BRANCH   1   2
ATOM      2  C   UNL     1      46.868   6.467  12.025  0.00  0.00    +0.000 A 
ATOM      3  C   UNL     1      46.101   6.096  10.908  0.00  0.00    +0.000 A 
ATOM      4  C   UNL     1      45.202   5.021  10.935  0.00  0.00    +0.000 A 
ATOM      5  C   UNL     1      45.087   4.228  12.072  0.00  0.00    +0.000 A 
ATOM      6  C   UNL     1      45.848   4.548  13.193  0.00  0.00    +0.000 A 
ATOM      7  C   UNL     1      46.702   5.663  13.167  0.00  0.00    +0.000 A 
BRANCH   5   8
ATOM      8  C   UNL     1      44.140   3.084  12.044  0.00  0.00    +0.000 C 
ATOM      9  N   UNL     1      43.998   2.417  10.860  0.00  0.00    +0.000 N 
ATOM     10  O   UNL     1      43.479   2.773  13.026  0.00  0.00    +0.000 OA
ATOM     11  H   UNL     1      44.321   2.797   9.983  0.00  0.00    +0.000 HD
ATOM     12  H   UNL     1      43.259   1.725  10.829  0.00  0.00    +0.000 HD
ENDBRANCH   5   8
ENDBRANCH   1   2
BRANCH   1  14
ATOM     13  C   UNL     1      45.899   9.038  12.919  0.00  0.00    +0.000 C 
ATOM     14  C   UNL     1      47.205   8.936  12.142  0.00  0.00    +0.000 C 
ENDBRANCH   1  14
BRANCH   1  15
ATOM     15  C   UNL     1      49.194   7.388  11.833  0.00  0.00    +0.000 C 
BRANCH  15  16
ATOM     16  C   UNL     1      50.069   8.201  12.823  0.00  0.00    +0.000 C 
ATOM     17  C   UNL     1      50.213   9.677  12.451  0.00  0.00    +0.000 C 
BRANCH  16  18
ATOM     18  C   UNL     1      49.524   8.076  14.242  0.00  0.00    +0.000 A 
ATOM     19  C   UNL     1      49.214   9.223  14.975  0.00  0.00    +0.000 A 
ATOM     20  C   UNL     1      48.724   9.093  16.270  0.00  0.00    +0.000 A 
ATOM     21  C   UNL     1      48.543   7.823  16.807  0.00  0.00    +0.000 A 
ATOM     22  C   UNL     1      48.867   6.719  16.027  0.00  0.00    +0.000 A 
ATOM     23  N   UNL     1      49.351   6.830  14.755  0.00  0.00    +0.000 NA
BRANCH  22  24
ATOM     24  C   UNL     1      48.726   5.322  16.609  0.00  0.00    +0.000 C 
BRANCH  24  25
ATOM     25  N   UNL     1      47.336   4.845  16.683  0.00  0.00    +0.000 NA
ATOM     26  C   UNL     1      47.249   3.506  17.257  0.00  0.00    +0.000 C 
ATOM     27  H   UNL     1      47.000   4.801  15.720  0.00  0.00    +0.000 HD
ENDBRANCH  24  25
ENDBRANCH  22  24
ENDBRANCH  16  18
ENDBRANCH  15  16
ENDBRANCH   1  15
TORSDOF 8
ENDMDL
