MODEL 1
REMARK VINA RESULT:    -7.500      0.000      0.000
REMARK INTER + INTRA:          -8.894
REMARK INTER:                  -8.596
REMARK INTRA:                  -0.298
REMARK UNBOUND:                -0.298
REMARK  Name = 
REMARK  3 active torsions:
REMARK  status: ('A' for Active; 'I' for Inactive)
REMARK    1  A    between atoms: O_1  and  C_2
REMARK    2  A    between atoms: C_7  and  C_8
REMARK    3  A    between atoms: C_8  and  N_9
REMARK                            x       y       z     vdW  Elec       q    Type
REMARK                         _______ _______ _______ _____ _____    ______ ____
ROOT
ATOM      1  C   UNL     1      44.652   3.677   8.603  0.00  0.00    +0.000 C 
ENDROOT
BRANCH   1   2
ATOM      2  N   UNL     1      44.654   3.698  10.061  0.00  0.00    +0.000 N 
ATOM      3  C   UNL     1      43.914   2.831  10.838  0.00  0.00    +0.000 A 
ATOM      4  C   UNL     1      44.129   3.154  12.161  0.00  0.00    +0.000 A 
ATOM      5  C   UNL     1      44.820   4.381  12.177  0.00  0.00    +0.000 A 
ATOM      6  N   UNL     1      45.076   5.185  13.239  0.00  0.00    +0.000 NA
ATOM      7  C   UNL     1      45.681   6.348  12.930  0.00  0.00    +0.000 A 
ATOM      8  C   UNL     1      46.125   6.715  11.670  0.00  0.00    +0.000 A 
ATOM      9  C   UNL     1      45.908   5.859  10.591  0.00  0.00    +0.000 A 
ATOM     10  C   UNL     1      45.182   4.692  10.865  0.00  0.00    +0.000 A 
ENDBRANCH   1   2
BRANCH   1  16
ATOM     11  C   UNL     1      46.805   3.347   7.305  0.00  0.00    +0.000 A 
ATOM     12  C   UNL     1      47.778   2.451   6.892  0.00  0.00    +0.000 A 
ATOM     13  N   UNL     1      47.734   1.128   7.141  0.00  0.00    +0.000 NA
ATOM     14  C   UNL     1      46.666   0.708   7.830  0.00  0.00    +0.000 A 
ATOM     15  N   UNL     1      45.666   1.481   8.290  0.00  0.00    +0.000 NA
ATOM     16  C   UNL     1      45.746   2.811   8.023  0.00  0.00    +0.000 A 
BRANCH  11  17
ATOM     17  O   UNL     1      46.904   4.674   7.049  0.00  0.00    +0.000 OA
ATOM     18  H   UNL     1      47.575   5.076   7.631  0.00  0.00    +0.000 HD
ENDBRANCH  11  17
ENDBRANCH   1  16
TORSDOF 3
ENDMDL
MODEL 2
REMARK VINA RESULT:    -7.128      1.527      2.567
REMARK INTER + INTRA:          -8.468
REMARK INTER:                  -8.101
REMARK INTRA:                  -0.367
REMARK UNBOUND:                -0.298
REMARK  Name = 
REMARK  3 active torsions:
REMARK  status: ('A' for Active; 'I' for Inactive)
REMARK    1  A    between atoms: O_1  and  C_2
REMARK    2  A    between atoms: C_7  and  C_8
REMARK    3  A    between atoms: C_8  and  N_9
REMARK                            x       y       z     vdW  Elec       q    Type
REMARK                         _______ _______ _______ _____ _____    ______ ____
ROOT
ATOM      1  C   UNL     1      44.717   3.823   8.092  0.00  0.00    +0.000 C 
ENDROOT
BRANCH   1   2
ATOM      2  N   UNL     1      44.998   4.582   9.305  0.00  0.00    +0.000 N 
ATOM      3  C   UNL     1      45.991   5.535   9.397  0.00  0.00    +0.000 A 
ATOM      4  C   UNL     1      45.996   6.025  10.685  0.00  0.00    +0.000 A 
ATOM      5  C   UNL     1      45.154   5.189  11.445  0.00  0.00    +0.000 A 
ATOM      6  N   UNL     1      45.000   5.157  12.792  0.00  0.00    +0.000 NA
ATOM      7  C   UNL     1      44.187   4.183  13.241  0.00  0.00    +0.000 A 
ATOM      8  C   UNL     1      43.456   3.312  12.446  0.00  0.00    +0.000 A 
ATOM      9  C   UNL     1      43.578   3.388  11.059  0.00  0.00    +0.000 A 
ATOM     10  C   UNL     1      44.502   4.320  10.569  0.00  0.00    +0.000 A 
ENDBRANCH   1   2
BRANCH   1  16
ATOM     11  C   UNL     1      46.022   1.649   8.145  0.00  0.00    +0.000 A 
ATOM     12  C   UNL     1      47.079   0.924   7.618  0.00  0.00    +0.000 A 
ATOM     13  N   UNL     1      47.937   1.409   6.700  0.00  0.00    +0.000 NA
ATOM     14  C   UNL     1      47.711   2.670   6.311  0.00  0.00    +0.000 A 
ATOM     15  N   UNL     1      46.718   3.466   6.743  0.00  0.00    +0.000 NA
ATOM     16  C   UNL     1      45.869   2.942   7.666  0.00  0.00    +0.000 A 
BRANCH  11  17
ATOM     17  O   UNL     1      45.170   1.110   9.051  0.00  0.00    +0.000 OA
ATOM     18  H   UNL     1      44.654   1.815   9.482  0.00  0.00    +0.000 HD
ENDBRANCH  11  17
ENDBRANCH   1  16
TORSDOF 3
ENDMDL
MODEL 3
REMARK VINA RESULT:    -6.505      1.983      3.043
REMARK INTER + INTRA:          -7.753
REMARK INTER:                  -7.439
REMARK INTRA:                  -0.314
REMARK UNBOUND:                -0.298
REMARK  Name = 
REMARK  3 active torsions:
REMARK  status: ('A' for Active; 'I' for Inactive)
REMARK    1  A    between atoms: O_1  and  C_2
REMARK    2  A    between atoms: C_7  and  C_8
REMARK    3  A    between atoms: C_8  and  N_9
REMARK                            x       y       z     vdW  Elec       q    Type
REMARK                         _______ _______ _______ _____ _____    ______ ____
ROOT
ATOM      1  C   UNL     1      43.892   4.720  10.246  0.00  0.00    +0.000 C 
ENDROOT
BRANCH   1   2
ATOM      2  N   UNL     1      44.615   5.530  11.219  0.00  0.00    +0.000 N 
ATOM      3  C   UNL     1      44.789   6.893  11.099  0.00  0.00    +0.000 A 
ATOM      4  C   UNL     1      45.541   7.325  12.170  0.00  0.00    +0.000 A 
ATOM      5  C   UNL     1      46.028   6.173  12.820  0.00  0.00    +0.000 A 
ATOM      6  N   UNL     1      46.963   6.095  13.798  0.00  0.00    +0.000 NA
ATOM      7  C   UNL     1      47.293   4.842  14.161  0.00  0.00    +0.000 A 
ATOM      8  C   UNL     1      46.697   3.682  13.690  0.00  0.00    +0.000 A 
ATOM      9  C   UNL     1      45.696   3.773  12.724  0.00  0.00    +0.000 A 
ATOM     10  C   UNL     1      45.410   5.059  12.247  0.00  0.00    +0.000 A 
ENDBRANCH   1   2
BRANCH   1  16
ATOM     11  C   UNL     1      44.852   2.519   9.430  0.00  0.00    +0.000 A 
ATOM     12  C   UNL     1      45.677   1.889   8.513  0.00  0.00    +0.000 A 
ATOM     13  N   UNL     1      46.416   2.543   7.596  0.00  0.00    +0.000 NA
ATOM     14  C   UNL     1      46.310   3.877   7.618  0.00  0.00    +0.000 A 
ATOM     15  N   UNL     1      45.539   4.597   8.451  0.00  0.00    +0.000 NA
ATOM     16  C   UNL     1      44.805   3.904   9.361  0.00  0.00    +0.000 A 
BRANCH  11  17
ATOM     17  O   UNL     1      44.109   1.817  10.321  0.00  0.00    +0.000 OA
ATOM     18  H   UNL     1      44.044   0.886  10.039  0.00  0.00    +0.000 HD
ENDBRANCH  11  17
ENDBRANCH   1  16
TORSDOF 3
ENDMDL
MODEL 4
REMARK VINA RESULT:    -6.369      2.339      3.502
REMARK INTER + INTRA:          -7.597
REMARK INTER:                  -7.166
REMARK INTRA:                  -0.432
REMARK UNBOUND:                -0.298
REMARK  Name = 
REMARK  3 active torsions:
REMARK  status: ('A' for Active; 'I' for Inactive)
REMARK    1  A    between atoms: O_1  and  C_2
REMARK    2  A    between atoms: C_7  and  C_8
REMARK    3  A    between atoms: C_8  and  N_9
REMARK                            x       y       z     vdW  Elec       q    Type
REMARK                         _______ _______ _______ _____ _____    ______ ____
ROOT
ATOM      1  C   UNL     1      44.630   5.235  11.462  0.00  0.00    +0.000 C 
ENDROOT
BRANCH   1   2
ATOM      2  N   UNL     1      45.709   5.183  12.442  0.00  0.00    +0.000 N 
ATOM      3  C   UNL     1      45.642   4.457  13.613  0.00  0.00    +0.000 A 
ATOM      4  C   UNL     1      46.814   4.659  14.310  0.00  0.00    +0.000 A 
ATOM      5  C   UNL     1      47.499   5.708  13.664  0.00  0.00    +0.000 A 
ATOM      6  N   UNL     1      48.593   6.383  14.094  0.00  0.00    +0.000 NA
ATOM      7  C   UNL     1      48.971   7.403  13.300  0.00  0.00    +0.000 A 
ATOM      8  C   UNL     1      48.400   7.729  12.079  0.00  0.00    +0.000 A 
ATOM      9  C   UNL     1      47.309   6.994  11.617  0.00  0.00    +0.000 A 
ATOM     10  C   UNL     1      46.825   5.998  12.476  0.00  0.00    +0.000 A 
ENDBRANCH   1   2
BRANCH   1  16
ATOM     11  C   UNL     1      44.386   3.000  10.289  0.00  0.00    +0.000 A 
ATOM     12  C   UNL     1      44.590   2.280   9.124  0.00  0.00    +0.000 A 
ATOM     13  N   UNL     1      45.209   2.775   8.034  0.00  0.00    +0.000 NA
ATOM     14  C   UNL     1      45.630   4.041   8.139  0.00  0.00    +0.000 A 
ATOM     15  N   UNL     1      45.482   4.840   9.211  0.00  0.00    +0.000 NA
ATOM     16  C   UNL     1      44.851   4.308  10.290  0.00  0.00    +0.000 A 
BRANCH  11  17
ATOM     17  O   UNL     1      43.738   2.465  11.353  0.00  0.00    +0.000 OA
ATOM     18  H   UNL     1      44.296   1.786  11.775  0.00  0.00    +0.000 HD
ENDBRANCH  11  17
ENDBRANCH   1  16
TORSDOF 3
ENDMDL
MODEL 5
REMARK VINA RESULT:    -5.947      2.614      5.508
REMARK INTER + INTRA:          -7.114
REMARK INTER:                  -6.973
REMARK INTRA:                  -0.141
REMARK UNBOUND:                -0.298
REMARK  Name = 
REMARK  3 active torsions:
REMARK  status: ('A' for Active; 'I' for Inactive)
REMARK    1  A    between atoms: O_1  and  C_2
REMARK    2  A    between atoms: C_7  and  C_8
REMARK    3  A    between atoms: C_8  and  N_9
REMARK                            x       y       z     vdW  Elec       q    Type
REMARK                         _______ _______ _______ _____ _____    ______ ____
ROOT
ATOM      1  C   UNL     1      44.485   6.826  11.268  0.00  0.00    +0.000 C 
ENDROOT
BRANCH   1   2
ATOM      2  N   UNL     1      44.122   5.420  11.139  0.00  0.00    +0.000 N 
ATOM      3  C   UNL     1      43.504   4.696  12.138  0.00  0.00    +0.000 A 
ATOM      4  C   UNL     1      43.340   3.403  11.690  0.00  0.00    +0.000 A 
ATOM      5  C   UNL     1      44.081   3.285  10.497  0.00  0.00    +0.000 A 
ATOM      6  N   UNL     1      44.379   2.158   9.805  0.00  0.00    +0.000 NA
ATOM      7  C   UNL     1      45.188   2.348   8.745  0.00  0.00    +0.000 A 
ATOM      8  C   UNL     1      45.635   3.575   8.282  0.00  0.00    +0.000 A 
ATOM      9  C   UNL     1      45.278   4.736   8.968  0.00  0.00    +0.000 A 
ATOM     10  C   UNL     1      44.529   4.557  10.138  0.00  0.00    +0.000 A 
ENDBRANCH   1   2
BRANCH   1  16
ATOM     11  C   UNL     1      45.888   8.172  12.896  0.00  0.00    +0.000 A 
ATOM     12  C   UNL     1      47.035   8.212  13.673  0.00  0.00    +0.000 A 
ATOM     13  N   UNL     1      47.967   7.239  13.686  0.00  0.00    +0.000 NA
ATOM     14  C   UNL     1      47.720   6.197  12.882  0.00  0.00    +0.000 A 
ATOM     15  N   UNL     1      46.643   6.043  12.092  0.00  0.00    +0.000 NA
ATOM     16  C   UNL     1      45.723   7.042  12.107  0.00  0.00    +0.000 A 
BRANCH  11  17
ATOM     17  O   UNL     1      44.968   9.166  12.933  0.00  0.00    +0.000 OA
ATOM     18  H   UNL     1      44.906   9.595  12.061  0.00  0.00    +0.000 HD
ENDBRANCH  11  17
ENDBRANCH   1  16
TORSDOF 3
ENDMDL
MODEL 6
REMARK VINA RESULT:    -5.877      2.425      3.650
REMARK INTER + INTRA:          -7.034
REMARK INTER:                  -6.682
REMARK INTRA:                  -0.351
REMARK UNBOUND:                -0.298
REMARK  Name = 
REMARK  3 active torsions:
REMARK  status: ('A' for Active; 'I' for Inactive)
REMARK    1  A    between atoms: O_1  and  C_2
REMARK    2  A    between atoms: C_7  and  C_8
REMARK    3  A    between atoms: C_8  and  N_9
REMARK                            x       y       z     vdW  Elec       q    Type
REMARK                         _______ _______ _______ _____ _____    ______ ____
ROOT
ATOM      1  C   UNL     1      43.900   5.099  11.207  0.00  0.00    +0.000 C 
ENDROOT
BRANCH   1   2
ATOM      2  N   UNL     1      44.914   5.959  11.803  0.00  0.00    +0.000 N 
ATOM      3  C   UNL     1      45.836   5.522  12.732  0.00  0.00    +0.000 A 
ATOM      4  C   UNL     1      46.614   6.599  13.102  0.00  0.00    +0.000 A 
ATOM      5  C   UNL     1      46.001   7.750  12.568  0.00  0.00    +0.000 A 
ATOM      6  N   UNL     1      46.289   9.049  12.828  0.00  0.00    +0.000 NA
ATOM      7  C   UNL     1      45.468   9.936  12.235  0.00  0.00    +0.000 A 
ATOM      8  C   UNL     1      44.455   9.624  11.341  0.00  0.00    +0.000 A 
ATOM      9  C   UNL     1      44.200   8.288  11.036  0.00  0.00    +0.000 A 
ATOM     10  C   UNL     1      44.968   7.339  11.724  0.00  0.00    +0.000 A 
ENDBRANCH   1   2
BRANCH   1  16
ATOM     11  C   UNL     1      44.192   2.782  10.217  0.00  0.00    +0.000 A 
ATOM     12  C   UNL     1      44.711   2.028   9.177  0.00  0.00    +0.000 A 
ATOM     13  N   UNL     1      45.450   2.542   8.174  0.00  0.00    +0.000 NA
ATOM     14  C   UNL     1      45.666   3.861   8.237  0.00  0.00    +0.000 A 
ATOM     15  N   UNL     1      45.209   4.695   9.189  0.00  0.00    +0.000 NA
ATOM     16  C   UNL     1      44.464   4.143  10.182  0.00  0.00    +0.000 A 
BRANCH  11  17
ATOM     17  O   UNL     1      43.434   2.224  11.192  0.00  0.00    +0.000 OA
ATOM     18  H   UNL     1      42.663   1.776  10.799  0.00  0.00    +0.000 HD
ENDBRANCH  11  17
ENDBRANCH   1  16
TORSDOF 3
ENDMDL
MODEL 7
REMARK VINA RESULT:    -5.763      3.436      5.215
REMARK INTER + INTRA:          -6.904
REMARK INTER:                  -6.467
REMARK INTRA:                  -0.436
REMARK UNBOUND:                -0.298
REMARK  Name = 
REMARK  3 active torsions:
REMARK  status: ('A' for Active; 'I' for Inactive)
REMARK    1  A    between atoms: O_1  and  C_2
REMARK    2  A    between atoms: C_7  and  C_8
REMARK    3  A    between atoms: C_8  and  N_9
REMARK                            x       y       z     vdW  Elec       q    Type
REMARK                         _______ _______ _______ _____ _____    ______ ____
ROOT
ATOM      1  C   UNL     1      45.794   5.353  13.658  0.00  0.00    +0.000 C 
ENDROOT
BRANCH   1   2
ATOM      2  N   UNL     1      46.732   6.291  13.055  0.00  0.00    +0.000 N 
ATOM      3  C   UNL     1      48.097   6.096  13.029  0.00  0.00    +0.000 A 
ATOM      4  C   UNL     1      48.674   7.187  12.414  0.00  0.00    +0.000 A 
ATOM      5  C   UNL     1      47.665   8.162  12.279  0.00  0.00    +0.000 A 
ATOM      6  N   UNL     1      47.800   9.461  11.915  0.00  0.00    +0.000 NA
ATOM      7  C   UNL     1      46.662  10.179  11.965  0.00  0.00    +0.000 A 
ATOM      8  C   UNL     1      45.404   9.676  12.257  0.00  0.00    +0.000 A 
ATOM      9  C   UNL     1      45.264   8.326  12.577  0.00  0.00    +0.000 A 
ATOM     10  C   UNL     1      46.449   7.580  12.641  0.00  0.00    +0.000 A 
ENDBRANCH   1   2
BRANCH   1  16
ATOM     11  C   UNL     1      43.564   4.898  12.539  0.00  0.00    +0.000 A 
ATOM     12  C   UNL     1      42.897   4.241  11.517  0.00  0.00    +0.000 A 
ATOM     13  N   UNL     1      43.494   3.394  10.657  0.00  0.00    +0.000 NA
ATOM     14  C   UNL     1      44.806   3.211  10.847  0.00  0.00    +0.000 A 
ATOM     15  N   UNL     1      45.559   3.797  11.794  0.00  0.00    +0.000 NA
ATOM     16  C   UNL     1      44.925   4.649  12.642  0.00  0.00    +0.000 A 
BRANCH  11  17
ATOM     17  O   UNL     1      42.925   5.760  13.368  0.00  0.00    +0.000 OA
ATOM     18  H   UNL     1      43.488   5.962  14.137  0.00  0.00    +0.000 HD
ENDBRANCH  11  17
ENDBRANCH   1  16
TORSDOF 3
ENDMDL
MODEL 8
REMARK VINA RESULT:    -5.547      3.188      5.012
REMARK INTER + INTRA:          -6.656
REMARK INTER:                  -6.458
REMARK INTRA:                  -0.198
REMARK UNBOUND:                -0.298
REMARK  Name = 
REMARK  3 active torsions:
REMARK  status: ('A' for Active; 'I' for Inactive)
REMARK    1  A    between atoms: O_1  and  C_2
REMARK    2  A    between atoms: C_7  and  C_8
REMARK    3  A    between atoms: C_8  and  N_9
REMARK                            x       y       z     vdW  Elec       q    Type
REMARK                         _______ _______ _______ _____ _____    ______ ____
ROOT
ATOM      1  C   UNL     1      46.623   5.510  12.455  0.00  0.00    +0.000 C 
ENDROOT
BRANCH   1   2
ATOM      2  N   UNL     1      46.465   6.956  12.554  0.00  0.00    +0.000 N 
ATOM      3  C   UNL     1      45.249   7.580  12.737  0.00  0.00    +0.000 A 
ATOM      4  C   UNL     1      45.465   8.942  12.754  0.00  0.00    +0.000 A 
ATOM      5  C   UNL     1      46.795   9.151  12.338  0.00  0.00    +0.000 A 
ATOM      6  N   UNL     1      47.397  10.321  12.013  0.00  0.00    +0.000 NA
ATOM      7  C   UNL     1      48.659  10.197  11.560  0.00  0.00    +0.000 A 
ATOM      8  C   UNL     1      49.381   9.015  11.499  0.00  0.00    +0.000 A 
ATOM      9  C   UNL     1      48.773   7.822  11.888  0.00  0.00    +0.000 A 
ATOM     10  C   UNL     1      47.425   7.907  12.258  0.00  0.00    +0.000 A 
ENDBRANCH   1   2
BRANCH   1  16
ATOM     11  C   UNL     1      44.938   4.847  10.679  0.00  0.00    +0.000 A 
ATOM     12  C   UNL     1      43.810   4.101  10.379  0.00  0.00    +0.000 A 
ATOM     13  N   UNL     1      43.130   3.373  11.286  0.00  0.00    +0.000 NA
ATOM     14  C   UNL     1      43.615   3.409  12.533  0.00  0.00    +0.000 A 
ATOM     15  N   UNL     1      44.703   4.087  12.941  0.00  0.00    +0.000 NA
ATOM     16  C   UNL     1      45.365   4.808  11.999  0.00  0.00    +0.000 A 
BRANCH  11  17
ATOM     17  O   UNL     1      45.602   5.548   9.728  0.00  0.00    +0.000 OA
ATOM     18  H   UNL     1      45.251   5.326   8.846  0.00  0.00    +0.000 HD
ENDBRANCH  11  17
ENDBRANCH   1  16
TORSDOF 3
ENDMDL
MODEL 9
REMARK VINA RESULT:    -5.219      3.169      5.007
REMARK INTER + INTRA:          -6.280
REMARK INTER:                  -6.094
REMARK INTRA:                  -0.186
REMARK UNBOUND:                -0.298
REMARK  Name = 
REMARK  3 active torsions:
REMARK  status: ('A' for Active; 'I' for Inactive)
REMARK    1  A    between atoms: O_1  and  C_2
REMARK    2  A    between atoms: C_7  and  C_8
REMARK    3  A    between atoms: C_8  and  N_9
REMARK                            x       y       z     vdW  Elec       q    Type
REMARK                         _______ _______ _______ _____ _____    ______ ____
ROOT
ATOM      1  C   UNL     1      45.652   6.432  11.679  0.00  0.00    +0.000 C 
ENDROOT
BRANCH   1   2
ATOM      2  N   UNL     1      46.746   6.271  12.629  0.00  0.00    +0.000 N 
ATOM      3  C   UNL     1      46.636   5.565  13.809  0.00  0.00    +0.000 A 
ATOM      4  C   UNL     1      47.843   5.646  14.470  0.00  0.00    +0.000 A 
ATOM      5  C   UNL     1      48.617   6.610  13.795  0.00  0.00    +0.000 A 
ATOM      6  N   UNL     1      49.788   7.169  14.187  0.00  0.00    +0.000 NA
ATOM      7  C   UNL     1      50.250   8.137  13.373  0.00  0.00    +0.000 A 
ATOM      8  C   UNL     1      49.681   8.514  12.166  0.00  0.00    +0.000 A 
ATOM      9  C   UNL     1      48.505   7.896  11.742  0.00  0.00    +0.000 A 
ATOM     10  C   UNL     1      47.944   6.963  12.624  0.00  0.00    +0.000 A 
ENDBRANCH   1   2
BRANCH   1  16
ATOM     11  C   UNL     1      43.693   4.921  12.235  0.00  0.00    +0.000 A 
ATOM     12  C   UNL     1      43.000   3.763  11.916  0.00  0.00    +0.000 A 
ATOM     13  N   UNL     1      43.387   2.898  10.959  0.00  0.00    +0.000 NA
ATOM     14  C   UNL     1      44.512   3.224  10.310  0.00  0.00    +0.000 A 
ATOM     15  N   UNL     1      45.262   4.319  10.524  0.00  0.00    +0.000 NA
ATOM     16  C   UNL     1      44.839   5.171  11.495  0.00  0.00    +0.000 A 
BRANCH  11  17
ATOM     17  O   UNL     1      43.252   5.773  13.192  0.00  0.00    +0.000 OA
ATOM     18  H   UNL     1      42.302   5.950  13.068  0.00  0.00    +0.000 HD
ENDBRANCH  11  17
ENDBRANCH   1  16
TORSDOF 3
ENDMDL
