MODEL 1
REMARK VINA RESULT:    -7.644      0.000      0.000
REMARK INTER + INTRA:          -9.353
REMARK INTER:                  -8.984
REMARK INTRA:                  -0.369
REMARK UNBOUND:                -0.369
REMARK  Name = 
REMARK  3 active torsions:
REMARK  status: ('A' for Active; 'I' for Inactive)
REMARK    1  A    between atoms: C_2  and  C_4
REMARK    2  A    between atoms: N_8  and  C_9
REMARK    3  A    between atoms: C_9  and  C_10
REMARK                            x       y       z     vdW  Elec       q    Type
REMARK                         _______ _______ _______ _____ _____    ______ ____
ROOT
ATOM      1  C   UNL     1      46.237   2.030   7.890  0.00  0.00    +0.000 A 
ATOM      2  C   UNL     1      46.181   3.305   7.333  0.00  0.00    +0.000 A 
ATOM      3  C   UNL     1      45.402   4.281   7.958  0.00  0.00    +0.000 A 
ATOM      4  C   UNL     1      44.708   3.975   9.129  0.00  0.00    +0.000 A 
ATOM      5  N   UNL     1      43.945   4.993   9.722  0.00  0.00    +0.000 N 
ATOM      6  N   UNL     1      44.732   2.733   9.654  0.00  0.00    +0.000 NA
ATOM      7  C   UNL     1      45.482   1.790   9.027  0.00  0.00    +0.000 A 
ATOM      8  H   UNL     1      44.519   5.822   9.822  0.00  0.00    +0.000 HD
ENDROOT
BRANCH   1  10
ATOM      9  N   UNL     1      46.698  -0.343   7.658  0.00  0.00    +0.000 N 
ATOM     10  C   UNL     1      47.045   0.935   7.316  0.00  0.00    +0.000 C 
ATOM     11  O   UNL     1      47.959   1.155   6.534  0.00  0.00    +0.000 OA
ATOM     12  H   UNL     1      47.186  -1.085   7.172  0.00  0.00    +0.000 HD
ATOM     13  H   UNL     1      45.813  -0.572   8.087  0.00  0.00    +0.000 HD
ENDBRANCH   1  10
BRANCH   5  14
ATOM     14  C   UNL     1      43.284   4.616  10.970  0.00  0.00    +0.000 C 
BRANCH  14  15
ATOM     15  C   UNL     1      44.033   5.224  12.170  0.00  0.00    +0.000 C 
ATOM     16  C   UNL     1      44.710   6.540  11.762  0.00  0.00    +0.000 C 
ATOM     17  C   UNL     1      45.578   7.089  12.887  0.00  0.00    +0.000 C 
ATOM     18  O   UNL     1      46.532   6.120  13.312  0.00  0.00    +0.000 OA
ATOM     19  C   UNL     1      45.908   4.947  13.828  0.00  0.00    +0.000 C 
ATOM     20  C   UNL     1      45.075   4.260  12.757  0.00  0.00    +0.000 C 
ENDBRANCH  14  15
ENDBRANCH   5  14
TORSDOF 3
ENDMDL
MODEL 2
REMARK VINA RESULT:    -7.389      1.363      1.706
REMARK INTER + INTRA:          -9.053
REMARK INTER:                  -8.732
REMARK INTRA:                  -0.321
REMARK UNBOUND:                -0.369
REMARK  Name = 
REMARK  3 active torsions:
REMARK  status: ('A' for Active; 'I' for Inactive)
REMARK    1  A    between atoms: C_2  and  C_4
REMARK    2  A    between atoms: N_8  and  C_9
REMARK    3  A    between atoms: C_9  and  C_10
REMARK                            x       y       z     vdW  Elec       q    Type
REMARK                         _______ _______ _______ _____ _____    ______ ____
ROOT
ATOM      1  C   UNL     1      46.555   2.574   7.363  0.00  0.00    +0.000 A 
ATOM      2  C   UNL     1      46.031   1.544   8.140  0.00  0.00    +0.000 A 
ATOM      3  C   UNL     1      45.139   1.860   9.166  0.00  0.00    +0.000 A 
ATOM      4  C   UNL     1      44.774   3.188   9.389  0.00  0.00    +0.000 A 
ATOM      5  N   UNL     1      43.868   3.452  10.428  0.00  0.00    +0.000 N 
ATOM      6  N   UNL     1      45.304   4.192   8.661  0.00  0.00    +0.000 NA
ATOM      7  C   UNL     1      46.182   3.871   7.676  0.00  0.00    +0.000 A 
ATOM      8  H   UNL     1      43.062   2.845  10.328  0.00  0.00    +0.000 HD
ENDROOT
BRANCH   1  10
ATOM      9  N   UNL     1      47.429   3.210   5.188  0.00  0.00    +0.000 N 
ATOM     10  C   UNL     1      47.491   2.343   6.244  0.00  0.00    +0.000 C 
ATOM     11  O   UNL     1      48.317   1.442   6.276  0.00  0.00    +0.000 OA
ATOM     12  H   UNL     1      48.149   3.108   4.483  0.00  0.00    +0.000 HD
ATOM     13  H   UNL     1      46.948   4.096   5.237  0.00  0.00    +0.000 HD
ENDBRANCH   1  10
BRANCH   5  14
ATOM     14  C   UNL     1      43.494   4.857  10.574  0.00  0.00    +0.000 C 
BRANCH  14  15
ATOM     15  C   UNL     1      44.189   5.465  11.806  0.00  0.00    +0.000 C 
ATOM     16  C   UNL     1      45.078   6.645  11.386  0.00  0.00    +0.000 C 
ATOM     17  C   UNL     1      45.890   7.172  12.561  0.00  0.00    +0.000 C 
ATOM     18  O   UNL     1      46.654   6.128  13.160  0.00  0.00    +0.000 OA
ATOM     19  C   UNL     1      45.826   5.093  13.682  0.00  0.00    +0.000 C 
ATOM     20  C   UNL     1      45.024   4.430  12.574  0.00  0.00    +0.000 C 
ENDBRANCH  14  15
ENDBRANCH   5  14
TORSDOF 3
ENDMDL
MODEL 3
REMARK VINA RESULT:    -7.236      2.250      6.168
REMARK INTER + INTRA:          -8.874
REMARK INTER:                  -8.495
REMARK INTRA:                  -0.379
REMARK UNBOUND:                -0.369
REMARK  Name = 
REMARK  3 active torsions:
REMARK  status: ('A' for Active; 'I' for Inactive)
REMARK    1  A    between atoms: C_2  and  C_4
REMARK    2  A    between atoms: N_8  and  C_9
REMARK    3  A    between atoms: C_9  and  C_10
REMARK                            x       y       z     vdW  Elec       q    Type
REMARK                         _______ _______ _______ _____ _____    ______ ____
ROOT
ATOM      1  C   UNL     1      46.581   4.931  13.611  0.00  0.00    +0.000 A 
ATOM      2  C   UNL     1      46.777   6.081  12.850  0.00  0.00    +0.000 A 
ATOM      3  C   UNL     1      46.244   6.136  11.561  0.00  0.00    +0.000 A 
ATOM      4  C   UNL     1      45.517   5.055  11.060  0.00  0.00    +0.000 A 
ATOM      5  N   UNL     1      44.996   5.164   9.761  0.00  0.00    +0.000 N 
ATOM      6  N   UNL     1      45.354   3.926  11.780  0.00  0.00    +0.000 NA
ATOM      7  C   UNL     1      45.891   3.882  13.027  0.00  0.00    +0.000 A 
ATOM      8  H   UNL     1      44.489   6.038   9.678  0.00  0.00    +0.000 HD
ENDROOT
BRANCH   1  10
ATOM      9  N   UNL     1      47.900   5.772  15.469  0.00  0.00    +0.000 N 
ATOM     10  C   UNL     1      47.089   4.781  14.990  0.00  0.00    +0.000 C 
ATOM     11  O   UNL     1      46.765   3.833  15.691  0.00  0.00    +0.000 OA
ATOM     12  H   UNL     1      48.149   5.713  16.449  0.00  0.00    +0.000 HD
ATOM     13  H   UNL     1      47.982   6.674  15.022  0.00  0.00    +0.000 HD
ENDBRANCH   1  10
BRANCH   5  14
ATOM     14  C   UNL     1      44.207   4.015   9.320  0.00  0.00    +0.000 C 
BRANCH  14  15
ATOM     15  C   UNL     1      44.981   3.219   8.253  0.00  0.00    +0.000 C 
ATOM     16  C   UNL     1      45.490   1.896   8.844  0.00  0.00    +0.000 C 
ATOM     17  C   UNL     1      46.383   1.156   7.857  0.00  0.00    +0.000 C 
ATOM     18  O   UNL     1      47.459   1.984   7.426  0.00  0.00    +0.000 OA
ATOM     19  C   UNL     1      46.997   3.148   6.746  0.00  0.00    +0.000 C 
ATOM     20  C   UNL     1      46.157   4.017   7.669  0.00  0.00    +0.000 C 
ENDBRANCH  14  15
ENDBRANCH   5  14
TORSDOF 3
ENDMDL
MODEL 4
REMARK VINA RESULT:    -6.878      1.848      6.511
REMARK INTER + INTRA:          -8.453
REMARK INTER:                  -8.115
REMARK INTRA:                  -0.338
REMARK UNBOUND:                -0.369
REMARK  Name = 
REMARK  3 active torsions:
REMARK  status: ('A' for Active; 'I' for Inactive)
REMARK    1  A    between atoms: C_2  and  C_4
REMARK    2  A    between atoms: N_8  and  C_9
REMARK    3  A    between atoms: C_9  and  C_10
REMARK                            x       y       z     vdW  Elec       q    Type
REMARK                         _______ _______ _______ _____ _____    ______ ____
ROOT
ATOM      1  C   UNL     1      46.390   6.219  12.421  0.00  0.00    +0.000 A 
ATOM      2  C   UNL     1      45.843   5.021  12.873  0.00  0.00    +0.000 A 
ATOM      3  C   UNL     1      45.276   4.146  11.944  0.00  0.00    +0.000 A 
ATOM      4  C   UNL     1      45.279   4.472  10.587  0.00  0.00    +0.000 A 
ATOM      5  N   UNL     1      44.704   3.554   9.693  0.00  0.00    +0.000 N 
ATOM      6  N   UNL     1      45.777   5.646  10.148  0.00  0.00    +0.000 NA
ATOM      7  C   UNL     1      46.311   6.494  11.065  0.00  0.00    +0.000 A 
ATOM      8  H   UNL     1      45.091   2.634   9.867  0.00  0.00    +0.000 HD
ENDROOT
BRANCH   1  10
ATOM      9  N   UNL     1      46.321   8.339  13.605  0.00  0.00    +0.000 N 
ATOM     10  C   UNL     1      47.027   7.203  13.320  0.00  0.00    +0.000 C 
ATOM     11  O   UNL     1      48.123   6.996  13.822  0.00  0.00    +0.000 OA
ATOM     12  H   UNL     1      46.719   8.949  14.308  0.00  0.00    +0.000 HD
ATOM     13  H   UNL     1      45.332   8.428  13.419  0.00  0.00    +0.000 HD
ENDBRANCH   1  10
BRANCH   5  14
ATOM     14  C   UNL     1      44.784   3.938   8.285  0.00  0.00    +0.000 C 
BRANCH  14  15
ATOM     15  C   UNL     1      45.544   2.864   7.486  0.00  0.00    +0.000 C 
ATOM     16  C   UNL     1      45.970   1.716   8.412  0.00  0.00    +0.000 C 
ATOM     17  C   UNL     1      46.850   0.711   7.680  0.00  0.00    +0.000 C 
ATOM     18  O   UNL     1      47.977   1.355   7.093  0.00  0.00    +0.000 OA
ATOM     19  C   UNL     1      47.592   2.325   6.123  0.00  0.00    +0.000 C 
ATOM     20  C   UNL     1      46.773   3.435   6.763  0.00  0.00    +0.000 C 
ENDBRANCH  14  15
ENDBRANCH   5  14
TORSDOF 3
ENDMDL
MODEL 5
REMARK VINA RESULT:    -6.067      4.119      5.974
REMARK INTER + INTRA:          -7.500
REMARK INTER:                  -7.190
REMARK INTRA:                  -0.310
REMARK UNBOUND:                -0.369
REMARK  Name = 
REMARK  3 active torsions:
REMARK  status: ('A' for Active; 'I' for Inactive)
REMARK    1  A    between atoms: C_2  and  C_4
REMARK    2  A    between atoms: N_8  and  C_9
REMARK    3  A    between atoms: C_9  and  C_10
REMARK                            x       y       z     vdW  Elec       q    Type
REMARK                         _______ _______ _______ _____ _____    ______ ____
ROOT
ATOM      1  C   UNL     1      45.516   4.975  11.556  0.00  0.00    +0.000 A 
ATOM      2  C   UNL     1      46.328   6.047  11.919  0.00  0.00    +0.000 A 
ATOM      3  C   UNL     1      46.905   6.056  13.190  0.00  0.00    +0.000 A 
ATOM      4  C   UNL     1      46.676   4.996  14.068  0.00  0.00    +0.000 A 
ATOM      5  N   UNL     1      47.285   5.050  15.331  0.00  0.00    +0.000 N 
ATOM      6  N   UNL     1      45.863   3.973  13.734  0.00  0.00    +0.000 NA
ATOM      7  C   UNL     1      45.297   3.985  12.499  0.00  0.00    +0.000 A 
ATOM      8  H   UNL     1      48.273   5.245  15.216  0.00  0.00    +0.000 HD
ENDROOT
BRANCH   1  10
ATOM      9  N   UNL     1      45.617   5.232   9.143  0.00  0.00    +0.000 N 
ATOM     10  C   UNL     1      44.875   4.863  10.231  0.00  0.00    +0.000 C 
ATOM     11  O   UNL     1      43.742   4.419  10.103  0.00  0.00    +0.000 OA
ATOM     12  H   UNL     1      45.207   5.045   8.236  0.00  0.00    +0.000 HD
ATOM     13  H   UNL     1      46.618   5.358   9.183  0.00  0.00    +0.000 HD
ENDBRANCH   1  10
BRANCH   5  14
ATOM     14  C   UNL     1      47.040   3.885  16.180  0.00  0.00    +0.000 C 
BRANCH  14  15
ATOM     15  C   UNL     1      48.289   3.574  17.026  0.00  0.00    +0.000 C 
ATOM     16  C   UNL     1      49.256   4.767  17.003  0.00  0.00    +0.000 C 
ATOM     17  C   UNL     1      50.563   4.434  17.709  0.00  0.00    +0.000 C 
ATOM     18  O   UNL     1      51.160   3.267  17.150  0.00  0.00    +0.000 OA
ATOM     19  C   UNL     1      50.327   2.120  17.296  0.00  0.00    +0.000 C 
ATOM     20  C   UNL     1      49.014   2.306  16.552  0.00  0.00    +0.000 C 
ENDBRANCH  14  15
ENDBRANCH   5  14
TORSDOF 3
ENDMDL
MODEL 6
REMARK VINA RESULT:    -5.963      4.094      5.791
REMARK INTER + INTRA:          -7.377
REMARK INTER:                  -7.172
REMARK INTRA:                  -0.205
REMARK UNBOUND:                -0.369
REMARK  Name = 
REMARK  3 active torsions:
REMARK  status: ('A' for Active; 'I' for Inactive)
REMARK    1  A    between atoms: C_2  and  C_4
REMARK    2  A    between atoms: N_8  and  C_9
REMARK    3  A    between atoms: C_9  and  C_10
REMARK                            x       y       z     vdW  Elec       q    Type
REMARK                         _______ _______ _______ _____ _____    ______ ____
ROOT
ATOM      1  C   UNL     1      45.036   4.281  11.369  0.00  0.00    +0.000 A 
ATOM      2  C   UNL     1      45.471   5.593  11.533  0.00  0.00    +0.000 A 
ATOM      3  C   UNL     1      46.153   5.936  12.702  0.00  0.00    +0.000 A 
ATOM      4  C   UNL     1      46.401   4.967  13.674  0.00  0.00    +0.000 A 
ATOM      5  N   UNL     1      47.098   5.362  14.828  0.00  0.00    +0.000 N 
ATOM      6  N   UNL     1      45.953   3.703  13.535  0.00  0.00    +0.000 NA
ATOM      7  C   UNL     1      45.277   3.388  12.400  0.00  0.00    +0.000 A 
ATOM      8  H   UNL     1      47.940   5.855  14.554  0.00  0.00    +0.000 HD
ENDROOT
BRANCH   1  10
ATOM      9  N   UNL     1      44.331   4.638   9.072  0.00  0.00    +0.000 N 
ATOM     10  C   UNL     1      44.321   3.814  10.163  0.00  0.00    +0.000 C 
ATOM     11  O   UNL     1      43.779   2.718  10.125  0.00  0.00    +0.000 OA
ATOM     12  H   UNL     1      43.935   4.259   8.221  0.00  0.00    +0.000 HD
ATOM     13  H   UNL     1      44.967   5.417   8.982  0.00  0.00    +0.000 HD
ENDBRANCH   1  10
BRANCH   5  14
ATOM     14  C   UNL     1      47.364   4.286  15.781  0.00  0.00    +0.000 C 
BRANCH  14  15
ATOM     15  C   UNL     1      48.133   4.835  16.997  0.00  0.00    +0.000 C 
ATOM     16  C   UNL     1      49.256   3.867  17.396  0.00  0.00    +0.000 C 
ATOM     17  C   UNL     1      49.939   4.311  18.683  0.00  0.00    +0.000 C 
ATOM     18  O   UNL     1      48.989   4.470  19.734  0.00  0.00    +0.000 OA
ATOM     19  C   UNL     1      48.022   5.472  19.431  0.00  0.00    +0.000 C 
ATOM     20  C   UNL     1      47.213   5.091  18.201  0.00  0.00    +0.000 C 
ENDBRANCH  14  15
ENDBRANCH   5  14
TORSDOF 3
ENDMDL
MODEL 7
REMARK VINA RESULT:    -5.543      5.128      8.176
REMARK INTER + INTRA:          -6.884
REMARK INTER:                  -6.630
REMARK INTRA:                  -0.254
REMARK UNBOUND:                -0.369
REMARK  Name = 
REMARK  3 active torsions:
REMARK  status: ('A' for Active; 'I' for Inactive)
REMARK    1  A    between atoms: C_2  and  C_4
REMARK    2  A    between atoms: N_8  and  C_9
REMARK    3  A    between atoms: C_9  and  C_10
REMARK                            x       y       z     vdW  Elec       q    Type
REMARK                         _______ _______ _______ _____ _____    ______ ____
ROOT
ATOM      1  C   UNL     1      49.180   4.518  17.912  0.00  0.00    +0.000 A 
ATOM      2  C   UNL     1      48.164   3.567  17.961  0.00  0.00    +0.000 A 
ATOM      3  C   UNL     1      47.213   3.542  16.940  0.00  0.00    +0.000 A 
ATOM      4  C   UNL     1      47.299   4.451  15.885  0.00  0.00    +0.000 A 
ATOM      5  N   UNL     1      46.322   4.379  14.879  0.00  0.00    +0.000 N 
ATOM      6  N   UNL     1      48.260   5.396  15.850  0.00  0.00    +0.000 NA
ATOM      7  C   UNL     1      49.169   5.418  16.858  0.00  0.00    +0.000 A 
ATOM      8  H   UNL     1      46.249   3.421  14.554  0.00  0.00    +0.000 HD
ENDROOT
BRANCH   1  10
ATOM      9  N   UNL     1      49.880   4.407  20.235  0.00  0.00    +0.000 N 
ATOM     10  C   UNL     1      50.242   4.617  18.933  0.00  0.00    +0.000 C 
ATOM     11  O   UNL     1      51.406   4.835  18.627  0.00  0.00    +0.000 OA
ATOM     12  H   UNL     1      50.635   4.366  20.909  0.00  0.00    +0.000 HD
ATOM     13  H   UNL     1      49.001   3.983  20.495  0.00  0.00    +0.000 HD
ENDBRANCH   1  10
BRANCH   5  14
ATOM     14  C   UNL     1      46.500   5.329  13.782  0.00  0.00    +0.000 C 
BRANCH  14  15
ATOM     15  C   UNL     1      45.513   5.014  12.643  0.00  0.00    +0.000 C 
ATOM     16  C   UNL     1      44.129   5.595  12.964  0.00  0.00    +0.000 C 
ATOM     17  C   UNL     1      43.097   5.174  11.926  0.00  0.00    +0.000 C 
ATOM     18  O   UNL     1      43.052   3.755  11.800  0.00  0.00    +0.000 OA
ATOM     19  C   UNL     1      44.297   3.219  11.363  0.00  0.00    +0.000 C 
ATOM     20  C   UNL     1      45.397   3.506  12.373  0.00  0.00    +0.000 C 
ENDBRANCH  14  15
ENDBRANCH   5  14
TORSDOF 3
ENDMDL
MODEL 8
REMARK VINA RESULT:    -5.261      4.303      7.498
REMARK INTER + INTRA:          -6.552
REMARK INTER:                  -6.230
REMARK INTRA:                  -0.322
REMARK UNBOUND:                -0.369
REMARK  Name = 
REMARK  3 active torsions:
REMARK  status: ('A' for Active; 'I' for Inactive)
REMARK    1  A    between atoms: C_2  and  C_4
REMARK    2  A    between atoms: N_8  and  C_9
REMARK    3  A    between atoms: C_9  and  C_10
REMARK                            x       y       z     vdW  Elec       q    Type
REMARK                         _______ _______ _______ _____ _____    ______ ____
ROOT
ATOM      1  C   UNL     1      48.293   4.910  17.068  0.00  0.00    +0.000 A 
ATOM      2  C   UNL     1      48.425   5.965  16.168  0.00  0.00    +0.000 A 
ATOM      3  C   UNL     1      47.874   5.836  14.892  0.00  0.00    +0.000 A 
ATOM      4  C   UNL     1      47.191   4.671  14.542  0.00  0.00    +0.000 A 
ATOM      5  N   UNL     1      46.648   4.595  13.249  0.00  0.00    +0.000 N 
ATOM      6  N   UNL     1      47.089   3.634  15.397  0.00  0.00    +0.000 NA
ATOM      7  C   UNL     1      47.643   3.767  16.630  0.00  0.00    +0.000 A 
ATOM      8  H   UNL     1      46.101   5.429  13.069  0.00  0.00    +0.000 HD
ENDROOT
BRANCH   1  10
ATOM      9  N   UNL     1      48.309   4.060  19.343  0.00  0.00    +0.000 N 
ATOM     10  C   UNL     1      48.824   4.954  18.445  0.00  0.00    +0.000 C 
ATOM     11  O   UNL     1      49.717   5.728  18.763  0.00  0.00    +0.000 OA
ATOM     12  H   UNL     1      48.760   4.026  20.249  0.00  0.00    +0.000 HD
ATOM     13  H   UNL     1      47.768   3.255  19.063  0.00  0.00    +0.000 HD
ENDBRANCH   1  10
BRANCH   5  14
ATOM     14  C   UNL     1      45.907   3.367  12.967  0.00  0.00    +0.000 C 
BRANCH  14  15
ATOM     15  C   UNL     1      44.605   3.696  12.214  0.00  0.00    +0.000 C 
ATOM     16  C   UNL     1      44.916   4.092  10.763  0.00  0.00    +0.000 C 
ATOM     17  C   UNL     1      43.663   4.563  10.037  0.00  0.00    +0.000 C 
ATOM     18  O   UNL     1      43.035   5.628  10.746  0.00  0.00    +0.000 OA
ATOM     19  C   UNL     1      42.613   5.228  12.046  0.00  0.00    +0.000 C 
ATOM     20  C   UNL     1      43.801   4.813  12.899  0.00  0.00    +0.000 C 
ENDBRANCH  14  15
ENDBRANCH   5  14
TORSDOF 3
ENDMDL
MODEL 9
REMARK VINA RESULT:    -5.230      3.898      5.631
REMARK INTER + INTRA:          -6.516
REMARK INTER:                  -6.222
REMARK INTRA:                  -0.295
REMARK UNBOUND:                -0.369
REMARK  Name = 
REMARK  3 active torsions:
REMARK  status: ('A' for Active; 'I' for Inactive)
REMARK    1  A    between atoms: C_2  and  C_4
REMARK    2  A    between atoms: N_8  and  C_9
REMARK    3  A    between atoms: C_9  and  C_10
REMARK                            x       y       z     vdW  Elec       q    Type
REMARK                         _______ _______ _______ _____ _____    ______ ____
ROOT
ATOM      1  C   UNL     1      45.029   4.387  11.364  0.00  0.00    +0.000 A 
ATOM      2  C   UNL     1      45.375   3.760  12.558  0.00  0.00    +0.000 A 
ATOM      3  C   UNL     1      46.224   4.423  13.446  0.00  0.00    +0.000 A 
ATOM      4  C   UNL     1      46.699   5.698  13.137  0.00  0.00    +0.000 A 
ATOM      5  N   UNL     1      47.544   6.324  14.067  0.00  0.00    +0.000 N 
ATOM      6  N   UNL     1      46.395   6.295  11.967  0.00  0.00    +0.000 NA
ATOM      7  C   UNL     1      45.580   5.632  11.106  0.00  0.00    +0.000 A 
ATOM      8  H   UNL     1      47.113   6.288  14.984  0.00  0.00    +0.000 HD
ENDROOT
BRANCH   1  10
ATOM      9  N   UNL     1      44.017   4.405   9.156  0.00  0.00    +0.000 N 
ATOM     10  C   UNL     1      44.125   3.778  10.367  0.00  0.00    +0.000 C 
ATOM     11  O   UNL     1      43.529   2.735  10.595  0.00  0.00    +0.000 OA
ATOM     12  H   UNL     1      43.484   3.919   8.446  0.00  0.00    +0.000 HD
ATOM     13  H   UNL     1      44.672   5.109   8.845  0.00  0.00    +0.000 HD
ENDBRANCH   1  10
BRANCH   5  14
ATOM     14  C   UNL     1      47.966   7.675  13.700  0.00  0.00    +0.000 C 
BRANCH  14  15
ATOM     15  C   UNL     1      49.432   7.663  13.232  0.00  0.00    +0.000 C 
ATOM     16  C   UNL     1      50.233   8.748  13.967  0.00  0.00    +0.000 C 
ATOM     17  C   UNL     1      51.650   8.857  13.419  0.00  0.00    +0.000 C 
ATOM     18  O   UNL     1      51.635   9.081  12.012  0.00  0.00    +0.000 OA
ATOM     19  C   UNL     1      51.019   8.007  11.307  0.00  0.00    +0.000 C 
ATOM     20  C   UNL     1      49.561   7.857  11.713  0.00  0.00    +0.000 C 
ENDBRANCH  14  15
ENDBRANCH   5  14
TORSDOF 3
ENDMDL
