MODEL 1
REMARK VINA RESULT:    -7.971      0.000      0.000
REMARK INTER + INTRA:         -11.689
REMARK INTER:                 -10.767
REMARK INTRA:                  -0.922
REMARK UNBOUND:                -0.922
REMARK  Name = 
REMARK  7 active torsions:
REMARK  status: ('A' for Active; 'I' for Inactive)
REMARK    1  A    between atoms: C_1  and  C_2
REMARK    2  A    between atoms: C_2  and  N_3
REMARK    3  A    between atoms: C_2  and  C_11
REMARK    4  A    between atoms: C_4  and  C_6
REMARK    5  A    between atoms: C_14  and  C_15
REMARK    6  A    between atoms: C_15  and  N_16
REMARK    7  A    between atoms: C_17  and  C_19
REMARK                            x       y       z     vdW  Elec       q    Type
REMARK                         _______ _______ _______ _____ _____    ______ ____
ROOT
ATOM      1  C   UNL     1      45.184   5.744  12.290  0.00  0.00    +0.000 A 
ATOM      2  C   UNL     1      45.163   7.150  12.296  0.00  0.00    +0.000 A 
ATOM      3  C   UNL     1      46.178   7.888  12.919  0.00  0.00    +0.000 A 
ATOM      4  C   UNL     1      47.250   7.239  13.543  0.00  0.00    +0.000 A 
ATOM      5  C   UNL     1      47.259   5.838  13.568  0.00  0.00    +0.000 A 
ATOM      6  C   UNL     1      46.250   5.100  12.934  0.00  0.00    +0.000 A 
ENDROOT
BRANCH   1   8
ATOM      7  C   UNL     1      42.865   5.866  11.384  0.00  0.00    +0.000 C 
ATOM      8  C   UNL     1      44.119   4.989  11.502  0.00  0.00    +0.000 C 
BRANCH   8   9
ATOM      9  N   UNL     1      44.586   4.539  10.202  0.00  0.00    +0.000 N 
ATOM     10  C   UNL     1      44.364   3.265   9.726  0.00  0.00    +0.000 C 
ATOM     11  O   UNL     1      43.767   2.395  10.356  0.00  0.00    +0.000 OA
ATOM     12  H   UNL     1      45.255   5.089   9.671  0.00  0.00    +0.000 HD
BRANCH  10  13
ATOM     13  C   UNL     1      44.967   2.983   8.347  0.00  0.00    +0.000 C 
ATOM     14  C   UNL     1      46.006   1.882   8.384  0.00  0.00    +0.000 C 
ATOM     15  C   UNL     1      46.769   2.102   7.090  0.00  0.00    +0.000 C 
ATOM     16  C   UNL     1      46.653   3.597   6.818  0.00  0.00    +0.000 C 
ATOM     17  N   UNL     1      45.754   4.137   7.842  0.00  0.00    +0.000 NA
ATOM     18  H   UNL     1      45.119   4.824   7.437  0.00  0.00    +0.000 HD
ENDBRANCH  10  13
ENDBRANCH   8   9
ENDBRANCH   1   8
BRANCH   4  19
ATOM     19  C   UNL     1      48.371   8.024  14.177  0.00  0.00    +0.000 C 
BRANCH  19  20
ATOM     20  N   UNL     1      48.359   7.914  15.613  0.00  0.00    +0.000 N 
ATOM     21  C   UNL     1      49.263   7.116  16.270  0.00  0.00    +0.000 C 
ATOM     22  O   UNL     1      50.134   6.492  15.674  0.00  0.00    +0.000 OA
ATOM     23  H   UNL     1      47.518   8.218  16.092  0.00  0.00    +0.000 HD
BRANCH  21  24
ATOM     24  C   UNL     1      49.177   7.098  17.737  0.00  0.00    +0.000 A 
ATOM     25  C   UNL     1      49.321   8.279  18.447  0.00  0.00    +0.000 A 
ATOM     26  S   UNL     1      49.135   8.092  20.134  0.00  0.00    +0.000 S 
ATOM     27  C   UNL     1      48.909   6.413  19.977  0.00  0.00    +0.000 A 
ATOM     28  N   UNL     1      48.716   5.628  21.069  0.00  0.00    +0.000 NA
ATOM     29  C   UNL     1      48.590   4.369  20.808  0.00  0.00    +0.000 A 
ATOM     30  N   UNL     1      48.637   3.826  19.550  0.00  0.00    +0.000 N 
ATOM     31  C   UNL     1      48.801   4.584  18.415  0.00  0.00    +0.000 A 
ATOM     32  O   UNL     1      48.797   4.070  17.299  0.00  0.00    +0.000 OA
ATOM     33  C   UNL     1      48.956   6.004  18.654  0.00  0.00    +0.000 A 
ATOM     34  H   UNL     1      48.523   2.834  19.412  0.00  0.00    +0.000 HD
ENDBRANCH  21  24
ENDBRANCH  19  20
ENDBRANCH   4  19
TORSDOF 6
ENDMDL
MODEL 2
REMARK VINA RESULT:    -7.734      4.715      9.799
REMARK INTER + INTRA:         -11.370
REMARK INTER:                 -10.450
REMARK INTRA:                  -0.920
REMARK UNBOUND:                -0.922
REMARK  Name = 
REMARK  7 active torsions:
REMARK  status: ('A' for Active; 'I' for Inactive)
REMARK    1  A    between atoms: C_1  and  C_2
REMARK    2  A    between atoms: C_2  and  N_3
REMARK    3  A    between atoms: C_2  and  C_11
REMARK    4  A    between atoms: C_4  and  C_6
REMARK    5  A    between atoms: C_14  and  C_15
REMARK    6  A    between atoms: C_15  and  N_16
REMARK    7  A    between atoms: C_17  and  C_19
REMARK                            x       y       z     vdW  Elec       q    Type
REMARK                         _______ _______ _______ _____ _____    ______ ____
ROOT
ATOM      1  C   UNL     1      51.433   3.171  17.722  0.00  0.00    +0.000 A 
ATOM      2  C   UNL     1      50.713   4.362  17.918  0.00  0.00    +0.000 A 
ATOM      3  C   UNL     1      49.342   4.435  17.643  0.00  0.00    +0.000 A 
ATOM      4  C   UNL     1      48.650   3.312  17.174  0.00  0.00    +0.000 A 
ATOM      5  C   UNL     1      49.369   2.132  16.946  0.00  0.00    +0.000 A 
ATOM      6  C   UNL     1      50.738   2.056  17.233  0.00  0.00    +0.000 A 
ENDROOT
BRANCH   1   8
ATOM      7  C   UNL     1      53.180   4.238  19.145  0.00  0.00    +0.000 C 
ATOM      8  C   UNL     1      52.898   3.111  18.143  0.00  0.00    +0.000 C 
BRANCH   8   9
ATOM      9  N   UNL     1      53.285   1.813  18.669  0.00  0.00    +0.000 N 
ATOM     10  C   UNL     1      54.132   0.956  18.002  0.00  0.00    +0.000 C 
ATOM     11  O   UNL     1      54.625   1.201  16.903  0.00  0.00    +0.000 OA
ATOM     12  H   UNL     1      52.799   1.408  19.464  0.00  0.00    +0.000 HD
BRANCH  10  13
ATOM     13  C   UNL     1      54.387  -0.376  18.713  0.00  0.00    +0.000 C 
ATOM     14  C   UNL     1      55.276  -1.302  17.909  0.00  0.00    +0.000 C 
ATOM     15  C   UNL     1      55.003  -2.655  18.539  0.00  0.00    +0.000 C 
ATOM     16  C   UNL     1      53.574  -2.561  19.062  0.00  0.00    +0.000 C 
ATOM     17  N   UNL     1      53.143  -1.177  18.846  0.00  0.00    +0.000 NA
ATOM     18  H   UNL     1      52.610  -0.838  19.647  0.00  0.00    +0.000 HD
ENDBRANCH  10  13
ENDBRANCH   8   9
ENDBRANCH   1   8
BRANCH   4  19
ATOM     19  C   UNL     1      47.164   3.366  16.917  0.00  0.00    +0.000 C 
BRANCH  19  20
ATOM     20  N   UNL     1      46.824   4.365  15.937  0.00  0.00    +0.000 N 
ATOM     21  C   UNL     1      46.928   4.104  14.593  0.00  0.00    +0.000 C 
ATOM     22  O   UNL     1      47.280   3.009  14.169  0.00  0.00    +0.000 OA
ATOM     23  H   UNL     1      46.768   5.326  16.258  0.00  0.00    +0.000 HD
BRANCH  21  24
ATOM     24  C   UNL     1      46.530   5.187  13.682  0.00  0.00    +0.000 A 
ATOM     25  C   UNL     1      47.416   6.218  13.416  0.00  0.00    +0.000 A 
ATOM     26  S   UNL     1      46.821   7.360  12.293  0.00  0.00    +0.000 S 
ATOM     27  C   UNL     1      45.335   6.540  12.166  0.00  0.00    +0.000 A 
ATOM     28  N   UNL     1      44.342   7.011  11.368  0.00  0.00    +0.000 NA
ATOM     29  C   UNL     1      43.258   6.309  11.391  0.00  0.00    +0.000 A 
ATOM     30  N   UNL     1      43.080   5.174  12.140  0.00  0.00    +0.000 N 
ATOM     31  C   UNL     1      44.065   4.645  12.939  0.00  0.00    +0.000 A 
ATOM     32  O   UNL     1      43.888   3.604  13.565  0.00  0.00    +0.000 OA
ATOM     33  C   UNL     1      45.302   5.402  12.955  0.00  0.00    +0.000 A 
ATOM     34  H   UNL     1      42.211   4.665  12.107  0.00  0.00    +0.000 HD
ENDBRANCH  21  24
ENDBRANCH  19  20
ENDBRANCH   4  19
TORSDOF 6
ENDMDL
MODEL 3
REMARK VINA RESULT:    -7.559      1.520      2.103
REMARK INTER + INTRA:         -11.133
REMARK INTER:                 -10.136
REMARK INTRA:                  -0.997
REMARK UNBOUND:                -0.922
REMARK  Name = 
REMARK  7 active torsions:
REMARK  status: ('A' for Active; 'I' for Inactive)
REMARK    1  A    between atoms: C_1  and  C_2
REMARK    2  A    between atoms: C_2  and  N_3
REMARK    3  A    between atoms: C_2  and  C_11
REMARK    4  A    between atoms: C_4  and  C_6
REMARK    5  A    between atoms: C_14  and  C_15
REMARK    6  A    between atoms: C_15  and  N_16
REMARK    7  A    between atoms: C_17  and  C_19
REMARK                            x       y       z     vdW  Elec       q    Type
REMARK                         _______ _______ _______ _____ _____    ______ ____
ROOT
ATOM      1  C   UNL     1      45.343   5.324  11.990  0.00  0.00    +0.000 A 
ATOM      2  C   UNL     1      45.799   6.616  11.678  0.00  0.00    +0.000 A 
ATOM      3  C   UNL     1      46.834   7.216  12.406  0.00  0.00    +0.000 A 
ATOM      4  C   UNL     1      47.449   6.534  13.462  0.00  0.00    +0.000 A 
ATOM      5  C   UNL     1      46.976   5.259  13.800  0.00  0.00    +0.000 A 
ATOM      6  C   UNL     1      45.949   4.654  13.063  0.00  0.00    +0.000 A 
ENDROOT
BRANCH   1   8
ATOM      7  C   UNL     1      43.121   5.641  10.905  0.00  0.00    +0.000 C 
ATOM      8  C   UNL     1      44.293   4.670  11.097  0.00  0.00    +0.000 C 
BRANCH   8   9
ATOM      9  N   UNL     1      44.832   4.217   9.826  0.00  0.00    +0.000 N 
ATOM     10  C   UNL     1      44.568   2.971   9.302  0.00  0.00    +0.000 C 
ATOM     11  O   UNL     1      43.871   2.129   9.861  0.00  0.00    +0.000 OA
ATOM     12  H   UNL     1      45.574   4.734   9.362  0.00  0.00    +0.000 HD
BRANCH  10  13
ATOM     13  C   UNL     1      45.259   2.679   7.966  0.00  0.00    +0.000 C 
ATOM     14  C   UNL     1      46.300   1.584   8.080  0.00  0.00    +0.000 C 
ATOM     15  C   UNL     1      47.142   1.797   6.835  0.00  0.00    +0.000 C 
ATOM     16  C   UNL     1      47.036   3.288   6.541  0.00  0.00    +0.000 C 
ATOM     17  N   UNL     1      46.071   3.832   7.501  0.00  0.00    +0.000 NA
ATOM     18  H   UNL     1      45.459   4.512   7.049  0.00  0.00    +0.000 HD
ENDBRANCH  10  13
ENDBRANCH   8   9
ENDBRANCH   1   8
BRANCH   4  19
ATOM     19  C   UNL     1      48.594   7.153  14.225  0.00  0.00    +0.000 C 
BRANCH  19  20
ATOM     20  N   UNL     1      48.418   7.035  15.650  0.00  0.00    +0.000 N 
ATOM     21  C   UNL     1      49.438   6.592  16.455  0.00  0.00    +0.000 C 
ATOM     22  O   UNL     1      50.545   6.312  16.009  0.00  0.00    +0.000 OA
ATOM     23  H   UNL     1      47.465   7.027  15.997  0.00  0.00    +0.000 HD
BRANCH  21  24
ATOM     24  C   UNL     1      49.157   6.534  17.897  0.00  0.00    +0.000 A 
ATOM     25  C   UNL     1      49.552   5.426  18.628  0.00  0.00    +0.000 A 
ATOM     26  S   UNL     1      49.203   5.544  20.295  0.00  0.00    +0.000 S 
ATOM     27  C   UNL     1      48.462   7.062  20.087  0.00  0.00    +0.000 A 
ATOM     28  N   UNL     1      47.915   7.724  21.139  0.00  0.00    +0.000 NA
ATOM     29  C   UNL     1      47.357   8.848  20.833  0.00  0.00    +0.000 A 
ATOM     30  N   UNL     1      47.301   9.371  19.567  0.00  0.00    +0.000 N 
ATOM     31  C   UNL     1      47.865   8.751  18.477  0.00  0.00    +0.000 A 
ATOM     32  O   UNL     1      47.833   9.267  17.363  0.00  0.00    +0.000 OA
ATOM     33  C   UNL     1      48.497   7.479  18.766  0.00  0.00    +0.000 A 
ATOM     34  H   UNL     1      46.858  10.260  19.395  0.00  0.00    +0.000 HD
ENDBRANCH  21  24
ENDBRANCH  19  20
ENDBRANCH   4  19
TORSDOF 6
ENDMDL
MODEL 4
REMARK VINA RESULT:    -7.415      3.690      5.039
REMARK INTER + INTRA:         -10.938
REMARK INTER:                  -9.836
REMARK INTRA:                  -1.103
REMARK UNBOUND:                -0.922
REMARK  Name = 
REMARK  7 active torsions:
REMARK  status: ('A' for Active; 'I' for Inactive)
REMARK    1  A    between atoms: C_1  and  C_2
REMARK    2  A    between atoms: C_2  and  N_3
REMARK    3  A    between atoms: C_2  and  C_11
REMARK    4  A    between atoms: C_4  and  C_6
REMARK    5  A    between atoms: C_14  and  C_15
REMARK    6  A    between atoms: C_15  and  N_16
REMARK    7  A    between atoms: C_17  and  C_19
REMARK                            x       y       z     vdW  Elec       q    Type
REMARK                         _______ _______ _______ _____ _____    ______ ____
ROOT
ATOM      1  C   UNL     1      47.541   5.764  14.319  0.00  0.00    +0.000 A 
ATOM      2  C   UNL     1      48.324   6.237  15.386  0.00  0.00    +0.000 A 
ATOM      3  C   UNL     1      48.518   5.469  16.542  0.00  0.00    +0.000 A 
ATOM      4  C   UNL     1      47.941   4.199  16.656  0.00  0.00    +0.000 A 
ATOM      5  C   UNL     1      47.133   3.735  15.609  0.00  0.00    +0.000 A 
ATOM      6  C   UNL     1      46.950   4.499  14.449  0.00  0.00    +0.000 A 
ENDROOT
BRANCH   1   8
ATOM      7  C   UNL     1      48.870   6.980  12.596  0.00  0.00    +0.000 C 
ATOM      8  C   UNL     1      47.454   6.588  13.039  0.00  0.00    +0.000 C 
BRANCH   8   9
ATOM      9  N   UNL     1      46.724   5.914  11.978  0.00  0.00    +0.000 N 
ATOM     10  C   UNL     1      45.421   6.219  11.655  0.00  0.00    +0.000 C 
ATOM     11  O   UNL     1      44.754   7.072  12.236  0.00  0.00    +0.000 OA
ATOM     12  H   UNL     1      47.087   5.064  11.556  0.00  0.00    +0.000 HD
BRANCH  10  13
ATOM     13  C   UNL     1      44.825   5.370  10.528  0.00  0.00    +0.000 C 
ATOM     14  C   UNL     1      44.858   3.889  10.839  0.00  0.00    +0.000 C 
ATOM     15  C   UNL     1      44.686   3.258   9.469  0.00  0.00    +0.000 C 
ATOM     16  C   UNL     1      45.286   4.266   8.497  0.00  0.00    +0.000 C 
ATOM     17  N   UNL     1      45.641   5.446   9.289  0.00  0.00    +0.000 NA
ATOM     18  H   UNL     1      45.407   6.302   8.785  0.00  0.00    +0.000 HD
ENDBRANCH  10  13
ENDBRANCH   8   9
ENDBRANCH   1   8
BRANCH   4  19
ATOM     19  C   UNL     1      48.179   3.344  17.876  0.00  0.00    +0.000 C 
BRANCH  19  20
ATOM     20  N   UNL     1      49.580   3.077  18.080  0.00  0.00    +0.000 N 
ATOM     21  C   UNL     1      50.267   2.223  17.254  0.00  0.00    +0.000 C 
ATOM     22  O   UNL     1      49.734   1.680  16.292  0.00  0.00    +0.000 OA
ATOM     23  H   UNL     1      49.967   3.316  18.987  0.00  0.00    +0.000 HD
BRANCH  21  24
ATOM     24  C   UNL     1      51.697   2.042  17.539  0.00  0.00    +0.000 A 
ATOM     25  C   UNL     1      52.209   0.765  17.695  0.00  0.00    +0.000 A 
ATOM     26  S   UNL     1      53.895   0.729  17.962  0.00  0.00    +0.000 S 
ATOM     27  C   UNL     1      53.990   2.428  17.932  0.00  0.00    +0.000 A 
ATOM     28  N   UNL     1      55.172   3.066  18.125  0.00  0.00    +0.000 NA
ATOM     29  C   UNL     1      55.094   4.356  18.109  0.00  0.00    +0.000 A 
ATOM     30  N   UNL     1      53.936   5.064  17.914  0.00  0.00    +0.000 N 
ATOM     31  C   UNL     1      52.722   4.461  17.686  0.00  0.00    +0.000 A 
ATOM     32  O   UNL     1      51.710   5.124  17.474  0.00  0.00    +0.000 OA
ATOM     33  C   UNL     1      52.754   3.012  17.703  0.00  0.00    +0.000 A 
ATOM     34  H   UNL     1      53.943   6.072  17.904  0.00  0.00    +0.000 HD
ENDBRANCH  21  24
ENDBRANCH  19  20
ENDBRANCH   4  19
TORSDOF 6
ENDMDL
MODEL 5
REMARK VINA RESULT:    -7.390      3.640      4.599
REMARK INTER + INTRA:         -10.904
REMARK INTER:                  -9.749
REMARK INTRA:                  -1.155
REMARK UNBOUND:                -0.922
REMARK  Name = 
REMARK  7 active torsions:
REMARK  status: ('A' for Active; 'I' for Inactive)
REMARK    1  A    between atoms: C_1  and  C_2
REMARK    2  A    between atoms: C_2  and  N_3
REMARK    3  A    between atoms: C_2  and  C_11
REMARK    4  A    between atoms: C_4  and  C_6
REMARK    5  A    between atoms: C_14  and  C_15
REMARK    6  A    between atoms: C_15  and  N_16
REMARK    7  A    between atoms: C_17  and  C_19
REMARK                            x       y       z     vdW  Elec       q    Type
REMARK                         _______ _______ _______ _____ _____    ______ ____
ROOT
ATOM      1  C   UNL     1      47.079   5.832  13.705  0.00  0.00    +0.000 A 
ATOM      2  C   UNL     1      47.976   6.472  14.577  0.00  0.00    +0.000 A 
ATOM      3  C   UNL     1      48.421   5.846  15.749  0.00  0.00    +0.000 A 
ATOM      4  C   UNL     1      47.988   4.555  16.074  0.00  0.00    +0.000 A 
ATOM      5  C   UNL     1      47.068   3.925  15.225  0.00  0.00    +0.000 A 
ATOM      6  C   UNL     1      46.633   4.547  14.047  0.00  0.00    +0.000 A 
ENDROOT
BRANCH   1   8
ATOM      7  C   UNL     1      47.960   7.192  11.811  0.00  0.00    +0.000 C 
ATOM      8  C   UNL     1      46.714   6.508  12.387  0.00  0.00    +0.000 C 
BRANCH   8   9
ATOM      9  N   UNL     1      46.107   5.598  11.431  0.00  0.00    +0.000 N 
ATOM     10  C   UNL     1      44.789   5.692  11.040  0.00  0.00    +0.000 C 
ATOM     11  O   UNL     1      44.008   6.537  11.468  0.00  0.00    +0.000 OA
ATOM     12  H   UNL     1      46.581   4.743  11.153  0.00  0.00    +0.000 HD
BRANCH  10  13
ATOM     13  C   UNL     1      44.338   4.616  10.047  0.00  0.00    +0.000 C 
ATOM     14  C   UNL     1      44.752   3.223  10.475  0.00  0.00    +0.000 C 
ATOM     15  C   UNL     1      44.640   2.432   9.185  0.00  0.00    +0.000 C 
ATOM     16  C   UNL     1      44.907   3.448   8.080  0.00  0.00    +0.000 C 
ATOM     17  N   UNL     1      45.022   4.753   8.736  0.00  0.00    +0.000 NA
ATOM     18  H   UNL     1      44.552   5.474   8.187  0.00  0.00    +0.000 HD
ENDBRANCH  10  13
ENDBRANCH   8   9
ENDBRANCH   1   8
BRANCH   4  19
ATOM     19  C   UNL     1      48.495   3.854  17.309  0.00  0.00    +0.000 C 
BRANCH  19  20
ATOM     20  N   UNL     1      49.907   3.581  17.232  0.00  0.00    +0.000 N 
ATOM     21  C   UNL     1      50.762   3.986  18.227  0.00  0.00    +0.000 C 
ATOM     22  O   UNL     1      50.363   4.561  19.234  0.00  0.00    +0.000 OA
ATOM     23  H   UNL     1      50.280   3.332  16.322  0.00  0.00    +0.000 HD
BRANCH  21  24
ATOM     24  C   UNL     1      52.179   3.633  18.059  0.00  0.00    +0.000 A 
ATOM     25  C   UNL     1      53.148   4.616  18.171  0.00  0.00    +0.000 A 
ATOM     26  S   UNL     1      54.743   4.029  18.007  0.00  0.00    +0.000 S 
ATOM     27  C   UNL     1      54.188   2.445  17.725  0.00  0.00    +0.000 A 
ATOM     28  N   UNL     1      55.058   1.432  17.481  0.00  0.00    +0.000 NA
ATOM     29  C   UNL     1      54.500   0.290  17.253  0.00  0.00    +0.000 A 
ATOM     30  N   UNL     1      53.146   0.071  17.250  0.00  0.00    +0.000 N 
ATOM     31  C   UNL     1      52.230   1.058  17.520  0.00  0.00    +0.000 A 
ATOM     32  O   UNL     1      51.025   0.820  17.550  0.00  0.00    +0.000 OA
ATOM     33  C   UNL     1      52.806   2.364  17.775  0.00  0.00    +0.000 A 
ATOM     34  H   UNL     1      52.773  -0.849  17.073  0.00  0.00    +0.000 HD
ENDBRANCH  21  24
ENDBRANCH  19  20
ENDBRANCH   4  19
TORSDOF 6
ENDMDL
MODEL 6
REMARK VINA RESULT:    -7.279      4.820      9.583
REMARK INTER + INTRA:         -10.754
REMARK INTER:                  -9.515
REMARK INTRA:                  -1.239
REMARK UNBOUND:                -0.922
REMARK  Name = 
REMARK  7 active torsions:
REMARK  status: ('A' for Active; 'I' for Inactive)
REMARK    1  A    between atoms: C_1  and  C_2
REMARK    2  A    between atoms: C_2  and  N_3
REMARK    3  A    between atoms: C_2  and  C_11
REMARK    4  A    between atoms: C_4  and  C_6
REMARK    5  A    between atoms: C_14  and  C_15
REMARK    6  A    between atoms: C_15  and  N_16
REMARK    7  A    between atoms: C_17  and  C_19
REMARK                            x       y       z     vdW  Elec       q    Type
REMARK                         _______ _______ _______ _____ _____    ______ ____
ROOT
ATOM      1  C   UNL     1      51.585   3.012  17.725  0.00  0.00    +0.000 A 
ATOM      2  C   UNL     1      50.954   4.260  17.873  0.00  0.00    +0.000 A 
ATOM      3  C   UNL     1      49.595   4.427  17.577  0.00  0.00    +0.000 A 
ATOM      4  C   UNL     1      48.826   3.344  17.134  0.00  0.00    +0.000 A 
ATOM      5  C   UNL     1      49.456   2.106  16.954  0.00  0.00    +0.000 A 
ATOM      6  C   UNL     1      50.813   1.937  17.263  0.00  0.00    +0.000 A 
ENDROOT
BRANCH   1   8
ATOM      7  C   UNL     1      53.347   3.902  19.248  0.00  0.00    +0.000 C 
ATOM      8  C   UNL     1      53.036   2.856  18.169  0.00  0.00    +0.000 C 
BRANCH   8   9
ATOM      9  N   UNL     1      53.351   1.510  18.615  0.00  0.00    +0.000 N 
ATOM     10  C   UNL     1      54.255   0.698  17.966  0.00  0.00    +0.000 C 
ATOM     11  O   UNL     1      54.863   1.028  16.951  0.00  0.00    +0.000 OA
ATOM     12  H   UNL     1      52.780   1.047  19.317  0.00  0.00    +0.000 HD
BRANCH  10  13
ATOM     13  C   UNL     1      54.420  -0.696  18.580  0.00  0.00    +0.000 C 
ATOM     14  C   UNL     1      54.869  -1.726  17.565  0.00  0.00    +0.000 C 
ATOM     15  C   UNL     1      54.509  -3.037  18.241  0.00  0.00    +0.000 C 
ATOM     16  C   UNL     1      53.313  -2.705  19.125  0.00  0.00    +0.000 C 
ATOM     17  N   UNL     1      53.121  -1.255  19.036  0.00  0.00    +0.000 NA
ATOM     18  H   UNL     1      52.892  -0.866  19.951  0.00  0.00    +0.000 HD
ENDBRANCH  10  13
ENDBRANCH   8   9
ENDBRANCH   1   8
BRANCH   4  19
ATOM     19  C   UNL     1      47.352   3.501  16.855  0.00  0.00    +0.000 C 
BRANCH  19  20
ATOM     20  N   UNL     1      47.094   4.546  15.897  0.00  0.00    +0.000 N 
ATOM     21  C   UNL     1      47.053   4.280  14.551  0.00  0.00    +0.000 C 
ATOM     22  O   UNL     1      47.199   3.146  14.108  0.00  0.00    +0.000 OA
ATOM     23  H   UNL     1      47.211   5.502  16.216  0.00  0.00    +0.000 HD
BRANCH  21  24
ATOM     24  C   UNL     1      46.757   5.415  13.666  0.00  0.00    +0.000 A 
ATOM     25  C   UNL     1      45.617   5.392  12.880  0.00  0.00    +0.000 A 
ATOM     26  S   UNL     1      45.391   6.811  11.957  0.00  0.00    +0.000 S 
ATOM     27  C   UNL     1      46.842   7.483  12.538  0.00  0.00    +0.000 A 
ATOM     28  N   UNL     1      47.265   8.704  12.118  0.00  0.00    +0.000 NA
ATOM     29  C   UNL     1      48.397   9.078  12.615  0.00  0.00    +0.000 A 
ATOM     30  N   UNL     1      49.143   8.340  13.498  0.00  0.00    +0.000 N 
ATOM     31  C   UNL     1      48.742   7.114  13.972  0.00  0.00    +0.000 A 
ATOM     32  O   UNL     1      49.414   6.498  14.795  0.00  0.00    +0.000 OA
ATOM     33  C   UNL     1      47.480   6.644  13.438  0.00  0.00    +0.000 A 
ATOM     34  H   UNL     1      50.017   8.694  13.856  0.00  0.00    +0.000 HD
ENDBRANCH  21  24
ENDBRANCH  19  20
ENDBRANCH   4  19
TORSDOF 6
ENDMDL
MODEL 7
REMARK VINA RESULT:    -6.995      3.622      9.092
REMARK INTER + INTRA:         -10.371
REMARK INTER:                  -9.190
REMARK INTRA:                  -1.181
REMARK UNBOUND:                -0.922
REMARK  Name = 
REMARK  7 active torsions:
REMARK  status: ('A' for Active; 'I' for Inactive)
REMARK    1  A    between atoms: C_1  and  C_2
REMARK    2  A    between atoms: C_2  and  N_3
REMARK    3  A    between atoms: C_2  and  C_11
REMARK    4  A    between atoms: C_4  and  C_6
REMARK    5  A    between atoms: C_14  and  C_15
REMARK    6  A    between atoms: C_15  and  N_16
REMARK    7  A    between atoms: C_17  and  C_19
REMARK                            x       y       z     vdW  Elec       q    Type
REMARK                         _______ _______ _______ _____ _____    ______ ____
ROOT
ATOM      1  C   UNL     1      49.477   5.654  18.157  0.00  0.00    +0.000 A 
ATOM      2  C   UNL     1      48.651   4.932  17.279  0.00  0.00    +0.000 A 
ATOM      3  C   UNL     1      48.294   5.449  16.026  0.00  0.00    +0.000 A 
ATOM      4  C   UNL     1      48.764   6.701  15.614  0.00  0.00    +0.000 A 
ATOM      5  C   UNL     1      49.561   7.440  16.498  0.00  0.00    +0.000 A 
ATOM      6  C   UNL     1      49.928   6.917  17.745  0.00  0.00    +0.000 A 
ENDROOT
BRANCH   1   8
ATOM      7  C   UNL     1      48.699   4.480  20.214  0.00  0.00    +0.000 C 
ATOM      8  C   UNL     1      49.929   5.001  19.458  0.00  0.00    +0.000 C 
BRANCH   8   9
ATOM      9  N   UNL     1      50.919   3.956  19.256  0.00  0.00    +0.000 N 
ATOM     10  C   UNL     1      52.272   4.209  19.188  0.00  0.00    +0.000 C 
ATOM     11  O   UNL     1      52.763   5.331  19.280  0.00  0.00    +0.000 OA
ATOM     12  H   UNL     1      50.639   3.022  18.970  0.00  0.00    +0.000 HD
BRANCH  10  13
ATOM     13  C   UNL     1      53.142   2.973  18.937  0.00  0.00    +0.000 C 
ATOM     14  C   UNL     1      54.133   3.183  17.812  0.00  0.00    +0.000 C 
ATOM     15  C   UNL     1      54.517   1.762  17.439  0.00  0.00    +0.000 C 
ATOM     16  C   UNL     1      53.292   0.924  17.782  0.00  0.00    +0.000 C 
ATOM     17  N   UNL     1      52.341   1.827  18.437  0.00  0.00    +0.000 NA
ATOM     18  H   UNL     1      51.890   1.363  19.226  0.00  0.00    +0.000 HD
ENDBRANCH  10  13
ENDBRANCH   8   9
ENDBRANCH   1   8
BRANCH   4  19
ATOM     19  C   UNL     1      48.423   7.248  14.250  0.00  0.00    +0.000 C 
BRANCH  19  20
ATOM     20  N   UNL     1      47.155   6.757  13.775  0.00  0.00    +0.000 N 
ATOM     21  C   UNL     1      46.813   6.846  12.449  0.00  0.00    +0.000 C 
ATOM     22  O   UNL     1      47.576   7.311  11.609  0.00  0.00    +0.000 OA
ATOM     23  H   UNL     1      46.433   6.599  14.470  0.00  0.00    +0.000 HD
BRANCH  21  24
ATOM     24  C   UNL     1      45.506   6.291  12.070  0.00  0.00    +0.000 A 
ATOM     25  C   UNL     1      44.532   7.126  11.546  0.00  0.00    +0.000 A 
ATOM     26  S   UNL     1      43.097   6.313  11.104  0.00  0.00    +0.000 S 
ATOM     27  C   UNL     1      43.710   4.822  11.650  0.00  0.00    +0.000 A 
ATOM     28  N   UNL     1      42.961   3.691  11.581  0.00  0.00    +0.000 NA
ATOM     29  C   UNL     1      43.537   2.638  12.059  0.00  0.00    +0.000 A 
ATOM     30  N   UNL     1      44.799   2.616  12.597  0.00  0.00    +0.000 N 
ATOM     31  C   UNL     1      45.603   3.729  12.661  0.00  0.00    +0.000 A 
ATOM     32  O   UNL     1      46.744   3.666  13.111  0.00  0.00    +0.000 OA
ATOM     33  C   UNL     1      44.999   4.941  12.144  0.00  0.00    +0.000 A 
ATOM     34  H   UNL     1      45.196   1.758  12.946  0.00  0.00    +0.000 HD
ENDBRANCH  21  24
ENDBRANCH  19  20
ENDBRANCH   4  19
TORSDOF 6
ENDMDL
MODEL 8
REMARK VINA RESULT:    -6.679      5.748      8.205
REMARK INTER + INTRA:          -9.944
REMARK INTER:                  -8.902
REMARK INTRA:                  -1.041
REMARK UNBOUND:                -0.922
REMARK  Name = 
REMARK  7 active torsions:
REMARK  status: ('A' for Active; 'I' for Inactive)
REMARK    1  A    between atoms: C_1  and  C_2
REMARK    2  A    between atoms: C_2  and  N_3
REMARK    3  A    between atoms: C_2  and  C_11
REMARK    4  A    between atoms: C_4  and  C_6
REMARK    5  A    between atoms: C_14  and  C_15
REMARK    6  A    between atoms: C_15  and  N_16
REMARK    7  A    between atoms: C_17  and  C_19
REMARK                            x       y       z     vdW  Elec       q    Type
REMARK                         _______ _______ _______ _____ _____    ______ ____
ROOT
ATOM      1  C   UNL     1      47.311   7.783  12.454  0.00  0.00    +0.000 A 
ATOM      2  C   UNL     1      47.749   9.022  11.954  0.00  0.00    +0.000 A 
ATOM      3  C   UNL     1      49.105   9.264  11.701  0.00  0.00    +0.000 A 
ATOM      4  C   UNL     1      50.061   8.268  11.931  0.00  0.00    +0.000 A 
ATOM      5  C   UNL     1      49.634   7.042  12.460  0.00  0.00    +0.000 A 
ATOM      6  C   UNL     1      48.276   6.796  12.701  0.00  0.00    +0.000 A 
ENDROOT
BRANCH   1   8
ATOM      7  C   UNL     1      45.066   8.865  12.504  0.00  0.00    +0.000 C 
ATOM      8  C   UNL     1      45.815   7.530  12.605  0.00  0.00    +0.000 C 
BRANCH   8   9
ATOM      9  N   UNL     1      45.305   6.553  11.657  0.00  0.00    +0.000 N 
ATOM     10  C   UNL     1      44.336   5.630  11.982  0.00  0.00    +0.000 C 
ATOM     11  O   UNL     1      43.826   5.537  13.095  0.00  0.00    +0.000 OA
ATOM     12  H   UNL     1      45.777   6.393  10.772  0.00  0.00    +0.000 HD
BRANCH  10  13
ATOM     13  C   UNL     1      43.962   4.670  10.848  0.00  0.00    +0.000 C 
ATOM     14  C   UNL     1      44.602   3.306  11.009  0.00  0.00    +0.000 C 
ATOM     15  C   UNL     1      44.498   2.724   9.612  0.00  0.00    +0.000 C 
ATOM     16  C   UNL     1      44.528   3.931   8.682  0.00  0.00    +0.000 C 
ATOM     17  N   UNL     1      44.510   5.117   9.542  0.00  0.00    +0.000 NA
ATOM     18  H   UNL     1      43.899   5.836   9.151  0.00  0.00    +0.000 HD
ENDBRANCH  10  13
ENDBRANCH   8   9
ENDBRANCH   1   8
BRANCH   4  19
ATOM     19  C   UNL     1      51.518   8.502  11.620  0.00  0.00    +0.000 C 
BRANCH  19  20
ATOM     20  N   UNL     1      51.861   8.065  10.291  0.00  0.00    +0.000 N 
ATOM     21  C   UNL     1      52.917   8.622   9.613  0.00  0.00    +0.000 C 
ATOM     22  O   UNL     1      53.631   9.484  10.114  0.00  0.00    +0.000 OA
ATOM     23  H   UNL     1      51.156   7.545   9.780  0.00  0.00    +0.000 HD
BRANCH  21  24
ATOM     24  C   UNL     1      53.194   8.084   8.273  0.00  0.00    +0.000 A 
ATOM     25  C   UNL     1      53.142   8.924   7.173  0.00  0.00    +0.000 A 
ATOM     26  S   UNL     1      53.547   8.155   5.703  0.00  0.00    +0.000 S 
ATOM     27  C   UNL     1      53.753   6.656   6.482  0.00  0.00    +0.000 A 
ATOM     28  N   UNL     1      54.087   5.543   5.780  0.00  0.00    +0.000 NA
ATOM     29  C   UNL     1      54.179   4.469   6.492  0.00  0.00    +0.000 A 
ATOM     30  N   UNL     1      53.969   4.410   7.846  0.00  0.00    +0.000 N 
ATOM     31  C   UNL     1      53.657   5.515   8.601  0.00  0.00    +0.000 A 
ATOM     32  O   UNL     1      53.516   5.436   9.819  0.00  0.00    +0.000 OA
ATOM     33  C   UNL     1      53.533   6.747   7.848  0.00  0.00    +0.000 A 
ATOM     34  H   UNL     1      54.065   3.540   8.346  0.00  0.00    +0.000 HD
ENDBRANCH  21  24
ENDBRANCH  19  20
ENDBRANCH   4  19
TORSDOF 6
ENDMDL
MODEL 9
REMARK VINA RESULT:    -6.567      3.566      8.833
REMARK INTER + INTRA:          -9.793
REMARK INTER:                  -8.792
REMARK INTRA:                  -1.001
REMARK UNBOUND:                -0.922
REMARK  Name = 
REMARK  7 active torsions:
REMARK  status: ('A' for Active; 'I' for Inactive)
REMARK    1  A    between atoms: C_1  and  C_2
REMARK    2  A    between atoms: C_2  and  N_3
REMARK    3  A    between atoms: C_2  and  C_11
REMARK    4  A    between atoms: C_4  and  C_6
REMARK    5  A    between atoms: C_14  and  C_15
REMARK    6  A    between atoms: C_15  and  N_16
REMARK    7  A    between atoms: C_17  and  C_19
REMARK                            x       y       z     vdW  Elec       q    Type
REMARK                         _______ _______ _______ _____ _____    ______ ____
ROOT
ATOM      1  C   UNL     1      49.551   7.521  16.146  0.00  0.00    +0.000 A 
ATOM      2  C   UNL     1      48.911   6.496  15.428  0.00  0.00    +0.000 A 
ATOM      3  C   UNL     1      48.400   6.720  14.143  0.00  0.00    +0.000 A 
ATOM      4  C   UNL     1      48.525   7.975  13.537  0.00  0.00    +0.000 A 
ATOM      5  C   UNL     1      49.133   9.009  14.260  0.00  0.00    +0.000 A 
ATOM      6  C   UNL     1      49.655   8.781  15.541  0.00  0.00    +0.000 A 
ENDROOT
BRANCH   1   8
ATOM      7  C   UNL     1      49.408   7.907  18.605  0.00  0.00    +0.000 C 
ATOM      8  C   UNL     1      50.190   7.197  17.493  0.00  0.00    +0.000 C 
BRANCH   8   9
ATOM      9  N   UNL     1      50.302   5.769  17.739  0.00  0.00    +0.000 N 
ATOM     10  C   UNL     1      51.508   5.137  17.949  0.00  0.00    +0.000 C 
ATOM     11  O   UNL     1      52.593   5.713  17.933  0.00  0.00    +0.000 OA
ATOM     12  H   UNL     1      49.510   5.151  17.583  0.00  0.00    +0.000 HD
BRANCH  10  13
ATOM     13  C   UNL     1      51.409   3.623  18.158  0.00  0.00    +0.000 C 
ATOM     14  C   UNL     1      52.736   2.922  17.953  0.00  0.00    +0.000 C 
ATOM     15  C   UNL     1      52.320   1.479  17.739  0.00  0.00    +0.000 C 
ATOM     16  C   UNL     1      50.929   1.561  17.121  0.00  0.00    +0.000 C 
ATOM     17  N   UNL     1      50.555   2.978  17.128  0.00  0.00    +0.000 NA
ATOM     18  H   UNL     1      49.574   3.089  17.388  0.00  0.00    +0.000 HD
ENDBRANCH  10  13
ENDBRANCH   8   9
ENDBRANCH   1   8
BRANCH   4  19
ATOM     19  C   UNL     1      48.018   8.215  12.136  0.00  0.00    +0.000 C 
BRANCH  19  20
ATOM     20  N   UNL     1      47.397   7.041  11.580  0.00  0.00    +0.000 N 
ATOM     21  C   UNL     1      46.043   6.992  11.359  0.00  0.00    +0.000 C 
ATOM     22  O   UNL     1      45.311   7.948  11.590  0.00  0.00    +0.000 OA
ATOM     23  H   UNL     1      47.931   6.178  11.610  0.00  0.00    +0.000 HD
BRANCH  21  24
ATOM     24  C   UNL     1      45.519   5.754  10.764  0.00  0.00    +0.000 A 
ATOM     25  C   UNL     1      45.751   5.487   9.424  0.00  0.00    +0.000 A 
ATOM     26  S   UNL     1      45.127   3.983   8.908  0.00  0.00    +0.000 S 
ATOM     27  C   UNL     1      44.478   3.663  10.448  0.00  0.00    +0.000 A 
ATOM     28  N   UNL     1      43.781   2.523  10.690  0.00  0.00    +0.000 NA
ATOM     29  C   UNL     1      43.318   2.424  11.892  0.00  0.00    +0.000 A 
ATOM     30  N   UNL     1      43.494   3.363  12.875  0.00  0.00    +0.000 N 
ATOM     31  C   UNL     1      44.216   4.517  12.685  0.00  0.00    +0.000 A 
ATOM     32  O   UNL     1      44.390   5.319  13.599  0.00  0.00    +0.000 OA
ATOM     33  C   UNL     1      44.750   4.681  11.348  0.00  0.00    +0.000 A 
ATOM     34  H   UNL     1      43.113   3.221  13.798  0.00  0.00    +0.000 HD
ENDBRANCH  21  24
ENDBRANCH  19  20
ENDBRANCH   4  19
TORSDOF 6
ENDMDL
