MODEL 1
REMARK VINA RESULT:    -7.813      0.000      0.000
REMARK INTER + INTRA:         -11.482
REMARK INTER:                 -10.554
REMARK INTRA:                  -0.928
REMARK UNBOUND:                -0.928
REMARK  Name = 
REMARK  6 active torsions:
REMARK  status: ('A' for Active; 'I' for Inactive)
REMARK    1  A    between atoms: C_2  and  C_21
REMARK    2  A    between atoms: N_3  and  C_4
REMARK    3  A    between atoms: C_4  and  C_5
REMARK    4  A    between atoms: C_8  and  C_9
REMARK    5  A    between atoms: C_9  and  C_10
REMARK    6  A    between atoms: C_10  and  C_11
REMARK                            x       y       z     vdW  Elec       q    Type
REMARK                         _______ _______ _______ _____ _____    ______ ____
ROOT
ATOM      1  C   UNL     1      48.526   6.923  13.705  0.00  0.00    +0.000 C 
ENDROOT
BRANCH   1   2
ATOM      2  C   UNL     1      47.332   6.379  12.965  0.00  0.00    +0.000 A 
ATOM      3  C   UNL     1      46.473   5.465  13.590  0.00  0.00    +0.000 A 
ATOM      4  C   UNL     1      45.337   4.982  12.933  0.00  0.00    +0.000 A 
ATOM      5  C   UNL     1      45.033   5.396  11.627  0.00  0.00    +0.000 A 
ATOM      6  C   UNL     1      45.897   6.303  11.001  0.00  0.00    +0.000 A 
ATOM      7  C   UNL     1      47.041   6.778  11.655  0.00  0.00    +0.000 A 
BRANCH   5   8
ATOM      8  C   UNL     1      43.835   4.842  10.880  0.00  0.00    +0.000 C 
BRANCH   8   9
ATOM      9  C   UNL     1      44.187   4.340   9.482  0.00  0.00    +0.000 C 
BRANCH   9  10
ATOM     10  C   UNL     1      44.700   2.913   9.456  0.00  0.00    +0.000 C 
ATOM     11  O   UNL     1      44.514   2.133  10.393  0.00  0.00    +0.000 OA
ATOM     12  N   UNL     1      45.384   2.543   8.293  0.00  0.00    +0.000 N 
ATOM     13  C   UNL     1      45.750   1.148   8.064  0.00  0.00    +0.000 C 
ATOM     14  C   UNL     1      47.231   1.013   7.714  0.00  0.00    +0.000 C 
ATOM     15  C   UNL     1      47.633   1.955   6.578  0.00  0.00    +0.000 C 
ATOM     16  C   UNL     1      47.201   3.390   6.878  0.00  0.00    +0.000 C 
ATOM     17  C   UNL     1      45.713   3.458   7.197  0.00  0.00    +0.000 C 
ENDBRANCH   9  10
ENDBRANCH   8   9
ENDBRANCH   5   8
ENDBRANCH   1   2
BRANCH   1  20
ATOM     18  O   UNL     1      50.568   6.690  15.615  0.00  0.00    +0.000 OA
ATOM     19  C   UNL     1      49.408   6.855  15.996  0.00  0.00    +0.000 C 
ATOM     20  N   UNL     1      48.348   6.940  15.131  0.00  0.00    +0.000 N 
ATOM     21  H   UNL     1      47.449   7.261  15.470  0.00  0.00    +0.000 HD
BRANCH  19  22
ATOM     22  C   UNL     1      49.080   6.913  17.419  0.00  0.00    +0.000 A 
ATOM     23  C   UNL     1      48.736   8.121  18.016  0.00  0.00    +0.000 A 
ATOM     24  S   UNL     1      48.367   7.968  19.679  0.00  0.00    +0.000 S 
ATOM     25  C   UNL     1      48.637   6.287  19.640  0.00  0.00    +0.000 A 
ATOM     26  N   UNL     1      48.467   5.522  20.753  0.00  0.00    +0.000 NA
ATOM     27  C   UNL     1      48.670   4.261  20.562  0.00  0.00    +0.000 A 
ATOM     28  N   UNL     1      49.035   3.694  19.370  0.00  0.00    +0.000 N 
ATOM     29  C   UNL     1      49.294   4.435  18.244  0.00  0.00    +0.000 A 
ATOM     30  O   UNL     1      49.761   3.912  17.239  0.00  0.00    +0.000 OA
ATOM     31  C   UNL     1      49.028   5.850  18.389  0.00  0.00    +0.000 A 
ATOM     32  H   UNL     1      49.209   2.705  19.293  0.00  0.00    +0.000 HD
ENDBRANCH  19  22
ENDBRANCH   1  20
TORSDOF 6
ENDMDL
MODEL 2
REMARK VINA RESULT:    -7.688      1.460      1.705
REMARK INTER + INTRA:         -11.313
REMARK INTER:                 -10.231
REMARK INTRA:                  -1.082
REMARK UNBOUND:                -0.928
REMARK  Name = 
REMARK  6 active torsions:
REMARK  status: ('A' for Active; 'I' for Inactive)
REMARK    1  A    between atoms: C_2  and  C_21
REMARK    2  A    between atoms: N_3  and  C_4
REMARK    3  A    between atoms: C_4  and  C_5
REMARK    4  A    between atoms: C_8  and  C_9
REMARK    5  A    between atoms: C_9  and  C_10
REMARK    6  A    between atoms: C_10  and  C_11
REMARK                            x       y       z     vdW  Elec       q    Type
REMARK                         _______ _______ _______ _____ _____    ______ ____
ROOT
ATOM      1  C   UNL     1      48.969   7.046  13.131  0.00  0.00    +0.000 C 
ENDROOT
BRANCH   1   2
ATOM      2  C   UNL     1      47.548   6.562  13.003  0.00  0.00    +0.000 A 
ATOM      3  C   UNL     1      47.175   5.324  13.543  0.00  0.00    +0.000 A 
ATOM      4  C   UNL     1      45.851   4.879  13.470  0.00  0.00    +0.000 A 
ATOM      5  C   UNL     1      44.865   5.659  12.848  0.00  0.00    +0.000 A 
ATOM      6  C   UNL     1      45.242   6.893  12.302  0.00  0.00    +0.000 A 
ATOM      7  C   UNL     1      46.569   7.334  12.365  0.00  0.00    +0.000 A 
BRANCH   5   8
ATOM      8  C   UNL     1      43.436   5.169  12.713  0.00  0.00    +0.000 C 
BRANCH   8   9
ATOM      9  C   UNL     1      43.088   4.739  11.290  0.00  0.00    +0.000 C 
BRANCH   9  10
ATOM     10  C   UNL     1      43.568   3.344  10.937  0.00  0.00    +0.000 C 
ATOM     11  O   UNL     1      43.467   2.399  11.723  0.00  0.00    +0.000 OA
ATOM     12  N   UNL     1      44.118   3.204   9.659  0.00  0.00    +0.000 N 
ATOM     13  C   UNL     1      44.431   1.879   9.130  0.00  0.00    +0.000 C 
ATOM     14  C   UNL     1      45.865   1.816   8.604  0.00  0.00    +0.000 C 
ATOM     15  C   UNL     1      46.162   2.959   7.633  0.00  0.00    +0.000 C 
ATOM     16  C   UNL     1      45.792   4.309   8.246  0.00  0.00    +0.000 C 
ATOM     17  C   UNL     1      44.347   4.313   8.729  0.00  0.00    +0.000 C 
ENDBRANCH   9  10
ENDBRANCH   8   9
ENDBRANCH   5   8
ENDBRANCH   1   2
BRANCH   1  20
ATOM     18  O   UNL     1      48.198   8.792  15.189  0.00  0.00    +0.000 OA
ATOM     19  C   UNL     1      48.998   7.889  15.438  0.00  0.00    +0.000 C 
ATOM     20  N   UNL     1      49.456   7.018  14.483  0.00  0.00    +0.000 N 
ATOM     21  H   UNL     1      49.960   6.186  14.764  0.00  0.00    +0.000 HD
BRANCH  19  22
ATOM     22  C   UNL     1      49.562   7.726  16.776  0.00  0.00    +0.000 A 
ATOM     23  C   UNL     1      50.166   8.796  17.425  0.00  0.00    +0.000 A 
ATOM     24  S   UNL     1      50.739   8.401  18.987  0.00  0.00    +0.000 S 
ATOM     25  C   UNL     1      50.178   6.799  18.846  0.00  0.00    +0.000 A 
ATOM     26  N   UNL     1      50.328   5.910  19.866  0.00  0.00    +0.000 NA
ATOM     27  C   UNL     1      49.819   4.746  19.629  0.00  0.00    +0.000 A 
ATOM     28  N   UNL     1      49.186   4.384  18.470  0.00  0.00    +0.000 N 
ATOM     29  C   UNL     1      49.083   5.222  17.388  0.00  0.00    +0.000 A 
ATOM     30  O   UNL     1      48.644   4.819  16.318  0.00  0.00    +0.000 OA
ATOM     31  C   UNL     1      49.588   6.559  17.620  0.00  0.00    +0.000 A 
ATOM     32  H   UNL     1      48.838   3.450  18.334  0.00  0.00    +0.000 HD
ENDBRANCH  19  22
ENDBRANCH   1  20
TORSDOF 6
ENDMDL
MODEL 3
REMARK VINA RESULT:    -7.406      2.800      8.953
REMARK INTER + INTRA:         -10.932
REMARK INTER:                  -9.358
REMARK INTRA:                  -1.574
REMARK UNBOUND:                -0.928
REMARK  Name = 
REMARK  6 active torsions:
REMARK  status: ('A' for Active; 'I' for Inactive)
REMARK    1  A    between atoms: C_2  and  C_21
REMARK    2  A    between atoms: N_3  and  C_4
REMARK    3  A    between atoms: C_4  and  C_5
REMARK    4  A    between atoms: C_8  and  C_9
REMARK    5  A    between atoms: C_9  and  C_10
REMARK    6  A    between atoms: C_10  and  C_11
REMARK                            x       y       z     vdW  Elec       q    Type
REMARK                         _______ _______ _______ _____ _____    ______ ____
ROOT
ATOM      1  C   UNL     1      47.673   7.728  12.043  0.00  0.00    +0.000 C 
ENDROOT
BRANCH   1   2
ATOM      2  C   UNL     1      48.203   7.885  13.445  0.00  0.00    +0.000 A 
ATOM      3  C   UNL     1      49.183   7.010  13.929  0.00  0.00    +0.000 A 
ATOM      4  C   UNL     1      49.716   7.168  15.213  0.00  0.00    +0.000 A 
ATOM      5  C   UNL     1      49.276   8.204  16.050  0.00  0.00    +0.000 A 
ATOM      6  C   UNL     1      48.289   9.073  15.567  0.00  0.00    +0.000 A 
ATOM      7  C   UNL     1      47.748   8.908  14.286  0.00  0.00    +0.000 A 
BRANCH   5   8
ATOM      8  C   UNL     1      49.803   8.358  17.463  0.00  0.00    +0.000 C 
BRANCH   8   9
ATOM      9  C   UNL     1      49.086   7.459  18.467  0.00  0.00    +0.000 C 
BRANCH   9  10
ATOM     10  C   UNL     1      49.732   6.098  18.639  0.00  0.00    +0.000 C 
ATOM     11  O   UNL     1      50.861   5.964  19.115  0.00  0.00    +0.000 OA
ATOM     12  N   UNL     1      48.953   5.009  18.233  0.00  0.00    +0.000 N 
ATOM     13  C   UNL     1      49.379   3.644  18.530  0.00  0.00    +0.000 C 
ATOM     14  C   UNL     1      49.364   2.772  17.274  0.00  0.00    +0.000 C 
ATOM     15  C   UNL     1      48.026   2.860  16.540  0.00  0.00    +0.000 C 
ATOM     16  C   UNL     1      47.636   4.314  16.282  0.00  0.00    +0.000 C 
ATOM     17  C   UNL     1      47.649   5.122  17.574  0.00  0.00    +0.000 C 
ENDBRANCH   9  10
ENDBRANCH   8   9
ENDBRANCH   5   8
ENDBRANCH   1   2
BRANCH   1  20
ATOM     18  O   UNL     1      44.881   7.467  11.930  0.00  0.00    +0.000 OA
ATOM     19  C   UNL     1      45.583   6.468  11.769  0.00  0.00    +0.000 C 
ATOM     20  N   UNL     1      46.952   6.501  11.846  0.00  0.00    +0.000 N 
ATOM     21  H   UNL     1      47.491   5.707  11.524  0.00  0.00    +0.000 HD
BRANCH  19  22
ATOM     22  C   UNL     1      44.987   5.154  11.537  0.00  0.00    +0.000 A 
ATOM     23  C   UNL     1      44.289   4.506  12.549  0.00  0.00    +0.000 A 
ATOM     24  S   UNL     1      43.652   2.994  12.067  0.00  0.00    +0.000 S 
ATOM     25  C   UNL     1      44.273   3.175  10.491  0.00  0.00    +0.000 A 
ATOM     26  N   UNL     1      44.060   2.225   9.539  0.00  0.00    +0.000 NA
ATOM     27  C   UNL     1      44.557   2.517   8.383  0.00  0.00    +0.000 A 
ATOM     28  N   UNL     1      45.253   3.660   8.091  0.00  0.00    +0.000 N 
ATOM     29  C   UNL     1      45.559   4.606   9.038  0.00  0.00    +0.000 A 
ATOM     30  O   UNL     1      46.307   5.540   8.778  0.00  0.00    +0.000 OA
ATOM     31  C   UNL     1      44.977   4.353  10.340  0.00  0.00    +0.000 A 
ATOM     32  H   UNL     1      45.643   3.816   7.176  0.00  0.00    +0.000 HD
ENDBRANCH  19  22
ENDBRANCH   1  20
TORSDOF 6
ENDMDL
MODEL 4
REMARK VINA RESULT:    -7.365      4.854      9.690
REMARK INTER + INTRA:         -10.876
REMARK INTER:                 -10.020
REMARK INTRA:                  -0.856
REMARK UNBOUND:                -0.928
REMARK  Name = 
REMARK  6 active torsions:
REMARK  status: ('A' for Active; 'I' for Inactive)
REMARK    1  A    between atoms: C_2  and  C_21
REMARK    2  A    between atoms: N_3  and  C_4
REMARK    3  A    between atoms: C_4  and  C_5
REMARK    4  A    between atoms: C_8  and  C_9
REMARK    5  A    between atoms: C_9  and  C_10
REMARK    6  A    between atoms: C_10  and  C_11
REMARK                            x       y       z     vdW  Elec       q    Type
REMARK                         _______ _______ _______ _____ _____    ______ ____
ROOT
ATOM      1  C   UNL     1      47.330   3.313  16.734  0.00  0.00    +0.000 C 
ENDROOT
BRANCH   1   2
ATOM      2  C   UNL     1      48.801   3.345  17.061  0.00  0.00    +0.000 A 
ATOM      3  C   UNL     1      49.403   4.539  17.478  0.00  0.00    +0.000 A 
ATOM      4  C   UNL     1      50.757   4.577  17.826  0.00  0.00    +0.000 A 
ATOM      5  C   UNL     1      51.548   3.420  17.760  0.00  0.00    +0.000 A 
ATOM      6  C   UNL     1      50.945   2.229  17.335  0.00  0.00    +0.000 A 
ATOM      7  C   UNL     1      49.592   2.193  16.976  0.00  0.00    +0.000 A 
BRANCH   5   8
ATOM      8  C   UNL     1      53.029   3.453  18.083  0.00  0.00    +0.000 C 
BRANCH   8   9
ATOM      9  C   UNL     1      53.798   2.288  17.467  0.00  0.00    +0.000 C 
BRANCH   9  10
ATOM     10  C   UNL     1      54.178   1.211  18.465  0.00  0.00    +0.000 C 
ATOM     11  O   UNL     1      54.309   1.449  19.668  0.00  0.00    +0.000 OA
ATOM     12  N   UNL     1      54.357  -0.069  17.928  0.00  0.00    +0.000 N 
ATOM     13  C   UNL     1      54.528  -1.222  18.808  0.00  0.00    +0.000 C 
ATOM     14  C   UNL     1      55.762  -2.037  18.422  0.00  0.00    +0.000 C 
ATOM     15  C   UNL     1      55.767  -2.385  16.933  0.00  0.00    +0.000 C 
ATOM     16  C   UNL     1      55.564  -1.135  16.078  0.00  0.00    +0.000 C 
ATOM     17  C   UNL     1      54.308  -0.382  16.498  0.00  0.00    +0.000 C 
ENDBRANCH   9  10
ENDBRANCH   8   9
ENDBRANCH   5   8
ENDBRANCH   1   2
BRANCH   1  20
ATOM     18  O   UNL     1      47.260   3.085  13.938  0.00  0.00    +0.000 OA
ATOM     19  C   UNL     1      46.894   4.138  14.463  0.00  0.00    +0.000 C 
ATOM     20  N   UNL     1      46.933   4.346  15.817  0.00  0.00    +0.000 N 
ATOM     21  H   UNL     1      46.452   5.143  16.216  0.00  0.00    +0.000 HD
BRANCH  19  22
ATOM     22  C   UNL     1      46.443   5.269  13.654  0.00  0.00    +0.000 A 
ATOM     23  C   UNL     1      47.262   6.376  13.467  0.00  0.00    +0.000 A 
ATOM     24  S   UNL     1      46.556   7.575  12.473  0.00  0.00    +0.000 S 
ATOM     25  C   UNL     1      45.151   6.640  12.250  0.00  0.00    +0.000 A 
ATOM     26  N   UNL     1      44.130   7.081  11.465  0.00  0.00    +0.000 NA
ATOM     27  C   UNL     1      43.148   6.248  11.359  0.00  0.00    +0.000 A 
ATOM     28  N   UNL     1      43.085   5.024  11.969  0.00  0.00    +0.000 N 
ATOM     29  C   UNL     1      44.053   4.573  12.831  0.00  0.00    +0.000 A 
ATOM     30  O   UNL     1      43.895   3.542  13.473  0.00  0.00    +0.000 OA
ATOM     31  C   UNL     1      45.203   5.445  12.942  0.00  0.00    +0.000 A 
ATOM     32  H   UNL     1      42.276   4.432  11.872  0.00  0.00    +0.000 HD
ENDBRANCH  19  22
ENDBRANCH   1  20
TORSDOF 6
ENDMDL
MODEL 5
REMARK VINA RESULT:    -7.313      3.261      4.423
REMARK INTER + INTRA:         -10.806
REMARK INTER:                 -10.172
REMARK INTRA:                  -0.634
REMARK UNBOUND:                -0.928
REMARK  Name = 
REMARK  6 active torsions:
REMARK  status: ('A' for Active; 'I' for Inactive)
REMARK    1  A    between atoms: C_2  and  C_21
REMARK    2  A    between atoms: N_3  and  C_4
REMARK    3  A    between atoms: C_4  and  C_5
REMARK    4  A    between atoms: C_8  and  C_9
REMARK    5  A    between atoms: C_9  and  C_10
REMARK    6  A    between atoms: C_10  and  C_11
REMARK                            x       y       z     vdW  Elec       q    Type
REMARK                         _______ _______ _______ _____ _____    ______ ____
ROOT
ATOM      1  C   UNL     1      48.925   5.152  17.631  0.00  0.00    +0.000 C 
ENDROOT
BRANCH   1   2
ATOM      2  C   UNL     1      48.283   5.296  16.276  0.00  0.00    +0.000 A 
ATOM      3  C   UNL     1      48.633   6.366  15.441  0.00  0.00    +0.000 A 
ATOM      4  C   UNL     1      48.077   6.491  14.164  0.00  0.00    +0.000 A 
ATOM      5  C   UNL     1      47.150   5.552  13.689  0.00  0.00    +0.000 A 
ATOM      6  C   UNL     1      46.795   4.488  14.529  0.00  0.00    +0.000 A 
ATOM      7  C   UNL     1      47.342   4.369  15.812  0.00  0.00    +0.000 A 
BRANCH   5   8
ATOM      8  C   UNL     1      46.498   5.701  12.328  0.00  0.00    +0.000 C 
BRANCH   8   9
ATOM      9  C   UNL     1      45.053   5.210  12.305  0.00  0.00    +0.000 C 
BRANCH   9  10
ATOM     10  C   UNL     1      44.897   3.790  11.796  0.00  0.00    +0.000 C 
ATOM     11  O   UNL     1      44.852   2.822  12.559  0.00  0.00    +0.000 OA
ATOM     12  N   UNL     1      44.796   3.658  10.407  0.00  0.00    +0.000 N 
ATOM     13  C   UNL     1      44.445   2.372   9.811  0.00  0.00    +0.000 C 
ATOM     14  C   UNL     1      45.437   1.978   8.717  0.00  0.00    +0.000 C 
ATOM     15  C   UNL     1      45.633   3.102   7.699  0.00  0.00    +0.000 C 
ATOM     16  C   UNL     1      45.978   4.418   8.396  0.00  0.00    +0.000 C 
ATOM     17  C   UNL     1      44.940   4.764   9.457  0.00  0.00    +0.000 C 
ENDBRANCH   9  10
ENDBRANCH   8   9
ENDBRANCH   5   8
ENDBRANCH   1   2
BRANCH   1  20
ATOM     18  O   UNL     1      50.630   4.744  19.823  0.00  0.00    +0.000 OA
ATOM     19  C   UNL     1      51.007   4.407  18.699  0.00  0.00    +0.000 C 
ATOM     20  N   UNL     1      50.253   4.605  17.572  0.00  0.00    +0.000 N 
ATOM     21  H   UNL     1      50.514   4.148  16.707  0.00  0.00    +0.000 HD
BRANCH  19  22
ATOM     22  C   UNL     1      52.328   3.816  18.491  0.00  0.00    +0.000 A 
ATOM     23  C   UNL     1      53.477   4.512  18.845  0.00  0.00    +0.000 A 
ATOM     24  S   UNL     1      54.915   3.636  18.540  0.00  0.00    +0.000 S 
ATOM     25  C   UNL     1      54.039   2.301  17.948  0.00  0.00    +0.000 A 
ATOM     26  N   UNL     1      54.677   1.172  17.531  0.00  0.00    +0.000 NA
ATOM     27  C   UNL     1      53.882   0.230  17.145  0.00  0.00    +0.000 A 
ATOM     28  N   UNL     1      52.514   0.312  17.126  0.00  0.00    +0.000 N 
ATOM     29  C   UNL     1      51.835   1.456  17.462  0.00  0.00    +0.000 A 
ATOM     30  O   UNL     1      50.624   1.543  17.293  0.00  0.00    +0.000 OA
ATOM     31  C   UNL     1      52.676   2.526  17.955  0.00  0.00    +0.000 A 
ATOM     32  H   UNL     1      51.950  -0.448  16.784  0.00  0.00    +0.000 HD
ENDBRANCH  19  22
ENDBRANCH   1  20
TORSDOF 6
ENDMDL
MODEL 6
REMARK VINA RESULT:    -7.309      1.549      2.417
REMARK INTER + INTRA:         -10.801
REMARK INTER:                  -9.752
REMARK INTRA:                  -1.049
REMARK UNBOUND:                -0.928
REMARK  Name = 
REMARK  6 active torsions:
REMARK  status: ('A' for Active; 'I' for Inactive)
REMARK    1  A    between atoms: C_2  and  C_21
REMARK    2  A    between atoms: N_3  and  C_4
REMARK    3  A    between atoms: C_4  and  C_5
REMARK    4  A    between atoms: C_8  and  C_9
REMARK    5  A    between atoms: C_9  and  C_10
REMARK    6  A    between atoms: C_10  and  C_11
REMARK                            x       y       z     vdW  Elec       q    Type
REMARK                         _______ _______ _______ _____ _____    ______ ____
ROOT
ATOM      1  C   UNL     1      48.502   6.605  14.346  0.00  0.00    +0.000 C 
ENDROOT
BRANCH   1   2
ATOM      2  C   UNL     1      47.238   6.235  13.616  0.00  0.00    +0.000 A 
ATOM      3  C   UNL     1      46.656   7.135  12.714  0.00  0.00    +0.000 A 
ATOM      4  C   UNL     1      45.506   6.791  11.996  0.00  0.00    +0.000 A 
ATOM      5  C   UNL     1      44.902   5.537  12.168  0.00  0.00    +0.000 A 
ATOM      6  C   UNL     1      45.480   4.641  13.077  0.00  0.00    +0.000 A 
ATOM      7  C   UNL     1      46.625   4.990  13.804  0.00  0.00    +0.000 A 
BRANCH   5   8
ATOM      8  C   UNL     1      43.626   5.166  11.438  0.00  0.00    +0.000 C 
BRANCH   8   9
ATOM      9  C   UNL     1      43.874   4.691  10.009  0.00  0.00    +0.000 C 
BRANCH   9  10
ATOM     10  C   UNL     1      44.266   3.229   9.911  0.00  0.00    +0.000 C 
ATOM     11  O   UNL     1      44.043   2.428  10.821  0.00  0.00    +0.000 OA
ATOM     12  N   UNL     1      44.884   2.853   8.713  0.00  0.00    +0.000 N 
ATOM     13  C   UNL     1      45.126   1.443   8.418  0.00  0.00    +0.000 C 
ATOM     14  C   UNL     1      46.581   1.203   8.016  0.00  0.00    +0.000 C 
ATOM     15  C   UNL     1      47.026   2.156   6.906  0.00  0.00    +0.000 C 
ATOM     16  C   UNL     1      46.724   3.607   7.276  0.00  0.00    +0.000 C 
ATOM     17  C   UNL     1      45.256   3.784   7.645  0.00  0.00    +0.000 C 
ENDBRANCH   9  10
ENDBRANCH   8   9
ENDBRANCH   5   8
ENDBRANCH   1   2
BRANCH   1  20
ATOM     18  O   UNL     1      49.188   4.895  16.463  0.00  0.00    +0.000 OA
ATOM     19  C   UNL     1      48.690   5.993  16.717  0.00  0.00    +0.000 C 
ATOM     20  N   UNL     1      48.291   6.871  15.743  0.00  0.00    +0.000 N 
ATOM     21  H   UNL     1      48.065   7.827  15.991  0.00  0.00    +0.000 HD
BRANCH  19  22
ATOM     22  C   UNL     1      48.436   6.408  18.096  0.00  0.00    +0.000 A 
ATOM     23  C   UNL     1      47.719   5.590  18.960  0.00  0.00    +0.000 A 
ATOM     24  S   UNL     1      47.555   6.249  20.530  0.00  0.00    +0.000 S 
ATOM     25  C   UNL     1      48.452   7.631  20.102  0.00  0.00    +0.000 A 
ATOM     26  N   UNL     1      48.712   8.610  21.012  0.00  0.00    +0.000 NA
ATOM     27  C   UNL     1      49.435   9.577  20.554  0.00  0.00    +0.000 A 
ATOM     28  N   UNL     1      49.915   9.664  19.274  0.00  0.00    +0.000 N 
ATOM     29  C   UNL     1      49.612   8.742  18.303  0.00  0.00    +0.000 A 
ATOM     30  O   UNL     1      49.933   8.926  17.136  0.00  0.00    +0.000 OA
ATOM     31  C   UNL     1      48.849   7.607  18.778  0.00  0.00    +0.000 A 
ATOM     32  H   UNL     1      50.449  10.461  18.968  0.00  0.00    +0.000 HD
ENDBRANCH  19  22
ENDBRANCH   1  20
TORSDOF 6
ENDMDL
MODEL 7
REMARK VINA RESULT:    -7.157      3.614      5.575
REMARK INTER + INTRA:         -10.595
REMARK INTER:                  -9.516
REMARK INTRA:                  -1.079
REMARK UNBOUND:                -0.928
REMARK  Name = 
REMARK  6 active torsions:
REMARK  status: ('A' for Active; 'I' for Inactive)
REMARK    1  A    between atoms: C_2  and  C_21
REMARK    2  A    between atoms: N_3  and  C_4
REMARK    3  A    between atoms: C_4  and  C_5
REMARK    4  A    between atoms: C_8  and  C_9
REMARK    5  A    between atoms: C_9  and  C_10
REMARK    6  A    between atoms: C_10  and  C_11
REMARK                            x       y       z     vdW  Elec       q    Type
REMARK                         _______ _______ _______ _____ _____    ______ ____
ROOT
ATOM      1  C   UNL     1      48.073   3.325  17.594  0.00  0.00    +0.000 C 
ENDROOT
BRANCH   1   2
ATOM      2  C   UNL     1      47.988   4.364  16.506  0.00  0.00    +0.000 A 
ATOM      3  C   UNL     1      48.688   5.570  16.628  0.00  0.00    +0.000 A 
ATOM      4  C   UNL     1      48.654   6.527  15.609  0.00  0.00    +0.000 A 
ATOM      5  C   UNL     1      47.910   6.304  14.440  0.00  0.00    +0.000 A 
ATOM      6  C   UNL     1      47.203   5.101  14.324  0.00  0.00    +0.000 A 
ATOM      7  C   UNL     1      47.229   4.147  15.350  0.00  0.00    +0.000 A 
BRANCH   5   8
ATOM      8  C   UNL     1      47.818   7.352  13.348  0.00  0.00    +0.000 C 
BRANCH   8   9
ATOM      9  C   UNL     1      47.139   6.834  12.083  0.00  0.00    +0.000 C 
BRANCH   9  10
ATOM     10  C   UNL     1      45.646   7.097  12.038  0.00  0.00    +0.000 C 
ATOM     11  O   UNL     1      45.159   8.171  12.399  0.00  0.00    +0.000 OA
ATOM     12  N   UNL     1      44.866   6.045  11.548  0.00  0.00    +0.000 N 
ATOM     13  C   UNL     1      43.446   6.245  11.270  0.00  0.00    +0.000 C 
ATOM     14  C   UNL     1      42.592   5.169  11.940  0.00  0.00    +0.000 C 
ATOM     15  C   UNL     1      43.097   3.763  11.615  0.00  0.00    +0.000 C 
ATOM     16  C   UNL     1      44.590   3.634  11.912  0.00  0.00    +0.000 C 
ATOM     17  C   UNL     1      45.386   4.721  11.199  0.00  0.00    +0.000 C 
ENDBRANCH   9  10
ENDBRANCH   8   9
ENDBRANCH   5   8
ENDBRANCH   1   2
BRANCH   1  20
ATOM     18  O   UNL     1      49.787   1.750  16.027  0.00  0.00    +0.000 OA
ATOM     19  C   UNL     1      50.206   2.219  17.086  0.00  0.00    +0.000 C 
ATOM     20  N   UNL     1      49.424   2.966  17.928  0.00  0.00    +0.000 N 
ATOM     21  H   UNL     1      49.854   3.484  18.685  0.00  0.00    +0.000 HD
BRANCH  19  22
ATOM     22  C   UNL     1      51.569   1.955  17.544  0.00  0.00    +0.000 A 
ATOM     23  C   UNL     1      52.013   0.651  17.726  0.00  0.00    +0.000 A 
ATOM     24  S   UNL     1      53.641   0.560  18.242  0.00  0.00    +0.000 S 
ATOM     25  C   UNL     1      53.800   2.256  18.215  0.00  0.00    +0.000 A 
ATOM     26  N   UNL     1      54.980   2.856  18.533  0.00  0.00    +0.000 NA
ATOM     27  C   UNL     1      54.961   4.143  18.430  0.00  0.00    +0.000 A 
ATOM     28  N   UNL     1      53.875   4.887  18.051  0.00  0.00    +0.000 N 
ATOM     29  C   UNL     1      52.646   4.331  17.799  0.00  0.00    +0.000 A 
ATOM     30  O   UNL     1      51.663   5.036  17.608  0.00  0.00    +0.000 OA
ATOM     31  C   UNL     1      52.627   2.884  17.846  0.00  0.00    +0.000 A 
ATOM     32  H   UNL     1      53.915   5.893  18.020  0.00  0.00    +0.000 HD
ENDBRANCH  19  22
ENDBRANCH   1  20
TORSDOF 6
ENDMDL
MODEL 8
REMARK VINA RESULT:    -7.011      3.669      8.612
REMARK INTER + INTRA:         -10.398
REMARK INTER:                  -8.661
REMARK INTRA:                  -1.736
REMARK UNBOUND:                -0.928
REMARK  Name = 
REMARK  6 active torsions:
REMARK  status: ('A' for Active; 'I' for Inactive)
REMARK    1  A    between atoms: C_2  and  C_21
REMARK    2  A    between atoms: N_3  and  C_4
REMARK    3  A    between atoms: C_4  and  C_5
REMARK    4  A    between atoms: C_8  and  C_9
REMARK    5  A    between atoms: C_9  and  C_10
REMARK    6  A    between atoms: C_10  and  C_11
REMARK                            x       y       z     vdW  Elec       q    Type
REMARK                         _______ _______ _______ _____ _____    ______ ____
ROOT
ATOM      1  C   UNL     1      48.381   8.492  14.357  0.00  0.00    +0.000 C 
ENDROOT
BRANCH   1   2
ATOM      2  C   UNL     1      49.235   8.039  15.512  0.00  0.00    +0.000 A 
ATOM      3  C   UNL     1      48.744   8.114  16.822  0.00  0.00    +0.000 A 
ATOM      4  C   UNL     1      49.507   7.658  17.902  0.00  0.00    +0.000 A 
ATOM      5  C   UNL     1      50.787   7.121  17.700  0.00  0.00    +0.000 A 
ATOM      6  C   UNL     1      51.280   7.056  16.391  0.00  0.00    +0.000 A 
ATOM      7  C   UNL     1      50.520   7.522  15.310  0.00  0.00    +0.000 A 
BRANCH   5   8
ATOM      8  C   UNL     1      51.649   6.672  18.864  0.00  0.00    +0.000 C 
BRANCH   8   9
ATOM      9  C   UNL     1      51.184   5.352  19.474  0.00  0.00    +0.000 C 
BRANCH   9  10
ATOM     10  C   UNL     1      51.008   4.238  18.461  0.00  0.00    +0.000 C 
ATOM     11  O   UNL     1      51.957   3.779  17.821  0.00  0.00    +0.000 OA
ATOM     12  N   UNL     1      49.701   3.761  18.314  0.00  0.00    +0.000 N 
ATOM     13  C   UNL     1      49.436   2.564  17.521  0.00  0.00    +0.000 C 
ATOM     14  C   UNL     1      48.336   2.813  16.490  0.00  0.00    +0.000 C 
ATOM     15  C   UNL     1      47.089   3.424  17.129  0.00  0.00    +0.000 C 
ATOM     16  C   UNL     1      47.445   4.658  17.956  0.00  0.00    +0.000 C 
ATOM     17  C   UNL     1      48.529   4.338  18.978  0.00  0.00    +0.000 C 
ENDBRANCH   9  10
ENDBRANCH   8   9
ENDBRANCH   5   8
ENDBRANCH   1   2
BRANCH   1  20
ATOM     18  O   UNL     1      48.775   6.258  12.704  0.00  0.00    +0.000 OA
ATOM     19  C   UNL     1      47.664   6.448  13.200  0.00  0.00    +0.000 C 
ATOM     20  N   UNL     1      47.376   7.534  13.986  0.00  0.00    +0.000 N 
ATOM     21  H   UNL     1      46.516   7.552  14.521  0.00  0.00    +0.000 HD
BRANCH  19  22
ATOM     22  C   UNL     1      46.550   5.542  12.928  0.00  0.00    +0.000 A 
ATOM     23  C   UNL     1      46.625   4.201  13.286  0.00  0.00    +0.000 A 
ATOM     24  S   UNL     1      45.211   3.320  12.902  0.00  0.00    +0.000 S 
ATOM     25  C   UNL     1      44.455   4.708  12.267  0.00  0.00    +0.000 A 
ATOM     26  N   UNL     1      43.185   4.655  11.779  0.00  0.00    +0.000 NA
ATOM     27  C   UNL     1      42.731   5.792  11.368  0.00  0.00    +0.000 A 
ATOM     28  N   UNL     1      43.426   6.972  11.388  0.00  0.00    +0.000 N 
ATOM     29  C   UNL     1      44.733   7.056  11.797  0.00  0.00    +0.000 A 
ATOM     30  O   UNL     1      45.370   8.094  11.664  0.00  0.00    +0.000 OA
ATOM     31  C   UNL     1      45.274   5.819  12.320  0.00  0.00    +0.000 A 
ATOM     32  H   UNL     1      43.026   7.821  11.024  0.00  0.00    +0.000 HD
ENDBRANCH  19  22
ENDBRANCH   1  20
TORSDOF 6
ENDMDL
MODEL 9
REMARK VINA RESULT:    -6.934      3.642      8.220
REMARK INTER + INTRA:         -10.294
REMARK INTER:                  -8.142
REMARK INTRA:                  -2.152
REMARK UNBOUND:                -0.928
REMARK  Name = 
REMARK  6 active torsions:
REMARK  status: ('A' for Active; 'I' for Inactive)
REMARK    1  A    between atoms: C_2  and  C_21
REMARK    2  A    between atoms: N_3  and  C_4
REMARK    3  A    between atoms: C_4  and  C_5
REMARK    4  A    between atoms: C_8  and  C_9
REMARK    5  A    between atoms: C_9  and  C_10
REMARK    6  A    between atoms: C_10  and  C_11
REMARK                            x       y       z     vdW  Elec       q    Type
REMARK                         _______ _______ _______ _____ _____    ______ ____
ROOT
ATOM      1  C   UNL     1      48.212   9.196  14.835  0.00  0.00    +0.000 C 
ENDROOT
BRANCH   1   2
ATOM      2  C   UNL     1      49.272   8.476  15.627  0.00  0.00    +0.000 A 
ATOM      3  C   UNL     1      49.261   8.525  17.027  0.00  0.00    +0.000 A 
ATOM      4  C   UNL     1      50.213   7.828  17.778  0.00  0.00    +0.000 A 
ATOM      5  C   UNL     1      51.207   7.066  17.146  0.00  0.00    +0.000 A 
ATOM      6  C   UNL     1      51.222   7.024  15.746  0.00  0.00    +0.000 A 
ATOM      7  C   UNL     1      50.275   7.732  14.993  0.00  0.00    +0.000 A 
BRANCH   5   8
ATOM      8  C   UNL     1      52.279   6.347  17.942  0.00  0.00    +0.000 C 
BRANCH   8   9
ATOM      9  C   UNL     1      51.716   5.252  18.843  0.00  0.00    +0.000 C 
BRANCH   9  10
ATOM     10  C   UNL     1      51.247   4.021  18.091  0.00  0.00    +0.000 C 
ATOM     11  O   UNL     1      52.030   3.284  17.488  0.00  0.00    +0.000 OA
ATOM     12  N   UNL     1      49.870   3.776  18.141  0.00  0.00    +0.000 N 
ATOM     13  C   UNL     1      49.324   2.523  17.628  0.00  0.00    +0.000 C 
ATOM     14  C   UNL     1      48.175   2.776  16.652  0.00  0.00    +0.000 C 
ATOM     15  C   UNL     1      47.125   3.715  17.245  0.00  0.00    +0.000 C 
ATOM     16  C   UNL     1      47.771   4.993  17.778  0.00  0.00    +0.000 C 
ATOM     17  C   UNL     1      48.891   4.673  18.760  0.00  0.00    +0.000 C 
ENDBRANCH   9  10
ENDBRANCH   8   9
ENDBRANCH   5   8
ENDBRANCH   1   2
BRANCH   1  20
ATOM     18  O   UNL     1      47.754   8.744  12.104  0.00  0.00    +0.000 OA
ATOM     19  C   UNL     1      47.086   8.125  12.934  0.00  0.00    +0.000 C 
ATOM     20  N   UNL     1      47.220   8.314  14.285  0.00  0.00    +0.000 N 
ATOM     21  H   UNL     1      46.793   7.658  14.928  0.00  0.00    +0.000 HD
BRANCH  19  22
ATOM     22  C   UNL     1      46.054   7.177  12.519  0.00  0.00    +0.000 A 
ATOM     23  C   UNL     1      44.953   7.605  11.787  0.00  0.00    +0.000 A 
ATOM     24  S   UNL     1      43.878   6.338  11.384  0.00  0.00    +0.000 S 
ATOM     25  C   UNL     1      44.863   5.184  12.156  0.00  0.00    +0.000 A 
ATOM     26  N   UNL     1      44.527   3.865  12.162  0.00  0.00    +0.000 NA
ATOM     27  C   UNL     1      45.389   3.104  12.752  0.00  0.00    +0.000 A 
ATOM     28  N   UNL     1      46.546   3.537  13.344  0.00  0.00    +0.000 N 
ATOM     29  C   UNL     1      46.885   4.864  13.431  0.00  0.00    +0.000 A 
ATOM     30  O   UNL     1      47.849   5.227  14.094  0.00  0.00    +0.000 OA
ATOM     31  C   UNL     1      45.979   5.755  12.737  0.00  0.00    +0.000 A 
ATOM     32  H   UNL     1      47.163   2.896  13.816  0.00  0.00    +0.000 HD
ENDBRANCH  19  22
ENDBRANCH   1  20
TORSDOF 6
ENDMDL
