MODEL 1
REMARK VINA RESULT:    -7.399      0.000      0.000
REMARK INTER + INTRA:         -12.610
REMARK INTER:                 -11.076
REMARK INTRA:                  -1.534
REMARK UNBOUND:                -1.534
REMARK  Name = 
REMARK  9 active torsions:
REMARK  status: ('A' for Active; 'I' for Inactive)
REMARK    1  A    between atoms: C_2  and  C_21
REMARK    2  A    between atoms: N_3  and  C_4
REMARK    3  A    between atoms: C_4  and  C_5
REMARK    4  A    between atoms: C_8  and  C_9
REMARK    5  A    between atoms: C_9  and  N_10
REMARK    6  A    between atoms: N_10  and  CA_11
REMARK    7  A    between atoms: CA_11  and  C_12
REMARK    8  A    between atoms: CA_11  and  C_14
REMARK    9  A    between atoms: C_12  and  O_13
REMARK                            x       y       z     vdW  Elec       q    Type
REMARK                         _______ _______ _______ _____ _____    ______ ____
ROOT
ATOM      1  C   UNL     1      47.646   7.606  12.925  0.00  0.00    +0.000 A 
ATOM      2  C   UNL     1      47.521   6.274  12.500  0.00  0.00    +0.000 A 
ATOM      3  C   UNL     1      46.285   5.766  12.089  0.00  0.00    +0.000 A 
ATOM      4  C   UNL     1      45.152   6.586  12.092  0.00  0.00    +0.000 A 
ATOM      5  C   UNL     1      45.285   7.924  12.495  0.00  0.00    +0.000 A 
ATOM      6  C   UNL     1      46.520   8.433  12.894  0.00  0.00    +0.000 A 
ENDROOT
BRANCH   1   7
ATOM      7  C   UNL     1      48.966   8.130  13.422  0.00  0.00    +0.000 C 
BRANCH   7  10
ATOM      8  O   UNL     1      48.193   8.987  15.979  0.00  0.00    +0.000 OA
ATOM      9  C   UNL     1      48.905   7.993  15.871  0.00  0.00    +0.000 C 
ATOM     10  N   UNL     1      49.362   7.524  14.662  0.00  0.00    +0.000 N 
ATOM     11  H   UNL     1      49.793   6.613  14.604  0.00  0.00    +0.000 HD
BRANCH   9  12
ATOM     12  C   UNL     1      49.344   7.245  17.047  0.00  0.00    +0.000 A 
ATOM     13  C   UNL     1      50.140   7.842  18.014  0.00  0.00    +0.000 A 
ATOM     14  S   UNL     1      50.466   6.819  19.344  0.00  0.00    +0.000 S 
ATOM     15  C   UNL     1      49.547   5.552  18.664  0.00  0.00    +0.000 A 
ATOM     16  N   UNL     1      49.370   4.379  19.326  0.00  0.00    +0.000 NA
ATOM     17  C   UNL     1      48.618   3.526  18.702  0.00  0.00    +0.000 A 
ATOM     18  N   UNL     1      48.051   3.736  17.471  0.00  0.00    +0.000 N 
ATOM     19  C   UNL     1      48.284   4.866  16.729  0.00  0.00    +0.000 A 
ATOM     20  O   UNL     1      47.913   4.933  15.566  0.00  0.00    +0.000 OA
ATOM     21  C   UNL     1      49.046   5.886  17.422  0.00  0.00    +0.000 A 
ATOM     22  H   UNL     1      47.529   3.010  17.008  0.00  0.00    +0.000 HD
ENDBRANCH   9  12
ENDBRANCH   7  10
ENDBRANCH   1   7
BRANCH   4  23
ATOM     23  C   UNL     1      43.814   6.096  11.601  0.00  0.00    +0.000 C 
BRANCH  23  24
ATOM     24  N   UNL     1      43.862   5.499  10.268  0.00  0.00    +0.000 NA
ATOM     25  H   UNL     1      44.726   5.749   9.793  0.00  0.00    +0.000 HD
BRANCH  24  26
ATOM     26  CA  UNL     1      43.672   4.023  10.290  0.00  0.00    +0.000 C 
BRANCH  26  27
ATOM     27  C   UNL     1      44.924   3.305   9.689  0.00  0.00    +0.000 C 
ATOM     28  C   UNL     1      45.313   3.827   8.308  0.00  0.00    +0.000 C 
ATOM     29  C   UNL     1      46.230   2.741   7.779  0.00  0.00    +0.000 C 
ATOM     30  C   UNL     1      45.712   1.463   8.418  0.00  0.00    +0.000 C 
ATOM     31  N   UNL     1      44.723   1.865   9.426  0.00  0.00    +0.000 NA
ATOM     32  H   UNL     1      44.861   1.332  10.283  0.00  0.00    +0.000 HD
ENDBRANCH  26  27
BRANCH  26  33
ATOM     33  C   UNL     1      43.331   3.470  11.700  0.00  0.00    +0.000 C 
BRANCH  33  34
ATOM     34  O   UNL     1      42.926   2.103  11.661  0.00  0.00    +0.000 OA
ATOM     35  H   UNL     1      42.566   1.885  12.537  0.00  0.00    +0.000 HD
ENDBRANCH  33  34
ENDBRANCH  26  33
ENDBRANCH  24  26
ENDBRANCH  23  24
ENDBRANCH   4  23
TORSDOF 9
ENDMDL
MODEL 2
REMARK VINA RESULT:    -7.105      2.445      2.751
REMARK INTER + INTRA:         -12.170
REMARK INTER:                 -10.842
REMARK INTRA:                  -1.328
REMARK UNBOUND:                -1.534
REMARK  Name = 
REMARK  9 active torsions:
REMARK  status: ('A' for Active; 'I' for Inactive)
REMARK    1  A    between atoms: C_2  and  C_21
REMARK    2  A    between atoms: N_3  and  C_4
REMARK    3  A    between atoms: C_4  and  C_5
REMARK    4  A    between atoms: C_8  and  C_9
REMARK    5  A    between atoms: C_9  and  N_10
REMARK    6  A    between atoms: N_10  and  CA_11
REMARK    7  A    between atoms: CA_11  and  C_12
REMARK    8  A    between atoms: CA_11  and  C_14
REMARK    9  A    between atoms: C_12  and  O_13
REMARK                            x       y       z     vdW  Elec       q    Type
REMARK                         _______ _______ _______ _____ _____    ______ ____
ROOT
ATOM      1  C   UNL     1      48.224   6.633  14.847  0.00  0.00    +0.000 A 
ATOM      2  C   UNL     1      47.506   5.428  14.796  0.00  0.00    +0.000 A 
ATOM      3  C   UNL     1      46.760   5.086  13.664  0.00  0.00    +0.000 A 
ATOM      4  C   UNL     1      46.724   5.944  12.560  0.00  0.00    +0.000 A 
ATOM      5  C   UNL     1      47.460   7.139  12.607  0.00  0.00    +0.000 A 
ATOM      6  C   UNL     1      48.214   7.474  13.730  0.00  0.00    +0.000 A 
ENDROOT
BRANCH   1   7
ATOM      7  C   UNL     1      48.976   7.023  16.091  0.00  0.00    +0.000 C 
BRANCH   7  10
ATOM      8  O   UNL     1      50.102   6.556  18.618  0.00  0.00    +0.000 OA
ATOM      9  C   UNL     1      50.536   5.943  17.647  0.00  0.00    +0.000 C 
ATOM     10  N   UNL     1      50.071   6.135  16.368  0.00  0.00    +0.000 N 
ATOM     11  H   UNL     1      50.328   5.492  15.634  0.00  0.00    +0.000 HD
BRANCH   9  12
ATOM     12  C   UNL     1      51.616   4.968  17.788  0.00  0.00    +0.000 A 
ATOM     13  C   UNL     1      52.895   5.370  18.143  0.00  0.00    +0.000 A 
ATOM     14  S   UNL     1      53.982   4.066  18.336  0.00  0.00    +0.000 S 
ATOM     15  C   UNL     1      52.770   2.927  17.953  0.00  0.00    +0.000 A 
ATOM     16  N   UNL     1      53.024   1.593  17.982  0.00  0.00    +0.000 NA
ATOM     17  C   UNL     1      51.996   0.852  17.705  0.00  0.00    +0.000 A 
ATOM     18  N   UNL     1      50.751   1.328  17.381  0.00  0.00    +0.000 N 
ATOM     19  C   UNL     1      50.480   2.666  17.247  0.00  0.00    +0.000 A 
ATOM     20  O   UNL     1      49.414   3.040  16.778  0.00  0.00    +0.000 OA
ATOM     21  C   UNL     1      51.573   3.537  17.633  0.00  0.00    +0.000 A 
ATOM     22  H   UNL     1      50.009   0.703  17.112  0.00  0.00    +0.000 HD
ENDBRANCH   9  12
ENDBRANCH   7  10
ENDBRANCH   1   7
BRANCH   4  23
ATOM     23  C   UNL     1      45.981   5.587  11.299  0.00  0.00    +0.000 C 
BRANCH  23  24
ATOM     24  N   UNL     1      44.545   5.407  11.496  0.00  0.00    +0.000 NA
ATOM     25  H   UNL     1      44.041   6.264  11.277  0.00  0.00    +0.000 HD
BRANCH  24  26
ATOM     26  CA  UNL     1      43.997   4.254  10.731  0.00  0.00    +0.000 C 
BRANCH  26  27
ATOM     27  C   UNL     1      45.091   3.660   9.787  0.00  0.00    +0.000 C 
ATOM     28  C   UNL     1      44.888   4.032   8.320  0.00  0.00    +0.000 C 
ATOM     29  C   UNL     1      45.769   3.037   7.590  0.00  0.00    +0.000 C 
ATOM     30  C   UNL     1      45.754   1.800   8.472  0.00  0.00    +0.000 C 
ATOM     31  N   UNL     1      45.099   2.184   9.728  0.00  0.00    +0.000 NA
ATOM     32  H   UNL     1      45.616   1.806  10.521  0.00  0.00    +0.000 HD
ENDBRANCH  26  27
BRANCH  26  33
ATOM     33  C   UNL     1      43.381   3.154  11.638  0.00  0.00    +0.000 C 
BRANCH  33  34
ATOM     34  O   UNL     1      44.346   2.576  12.515  0.00  0.00    +0.000 OA
ATOM     35  H   UNL     1      45.202   2.595  12.054  0.00  0.00    +0.000 HD
ENDBRANCH  33  34
ENDBRANCH  26  33
ENDBRANCH  24  26
ENDBRANCH  23  24
ENDBRANCH   4  23
TORSDOF 9
ENDMDL
MODEL 3
REMARK VINA RESULT:    -6.928      1.978      2.450
REMARK INTER + INTRA:         -11.905
REMARK INTER:                 -10.569
REMARK INTRA:                  -1.336
REMARK UNBOUND:                -1.534
REMARK  Name = 
REMARK  9 active torsions:
REMARK  status: ('A' for Active; 'I' for Inactive)
REMARK    1  A    between atoms: C_2  and  C_21
REMARK    2  A    between atoms: N_3  and  C_4
REMARK    3  A    between atoms: C_4  and  C_5
REMARK    4  A    between atoms: C_8  and  C_9
REMARK    5  A    between atoms: C_9  and  N_10
REMARK    6  A    between atoms: N_10  and  CA_11
REMARK    7  A    between atoms: CA_11  and  C_12
REMARK    8  A    between atoms: CA_11  and  C_14
REMARK    9  A    between atoms: C_12  and  O_13
REMARK                            x       y       z     vdW  Elec       q    Type
REMARK                         _______ _______ _______ _____ _____    ______ ____
ROOT
ATOM      1  C   UNL     1      47.661   7.618  12.812  0.00  0.00    +0.000 A 
ATOM      2  C   UNL     1      47.517   6.256  12.505  0.00  0.00    +0.000 A 
ATOM      3  C   UNL     1      46.266   5.723  12.179  0.00  0.00    +0.000 A 
ATOM      4  C   UNL     1      45.136   6.548  12.151  0.00  0.00    +0.000 A 
ATOM      5  C   UNL     1      45.289   7.915  12.436  0.00  0.00    +0.000 A 
ATOM      6  C   UNL     1      46.538   8.447  12.749  0.00  0.00    +0.000 A 
ENDROOT
BRANCH   1   7
ATOM      7  C   UNL     1      49.000   8.172  13.219  0.00  0.00    +0.000 C 
BRANCH   7  10
ATOM      8  O   UNL     1      48.636   8.296  15.998  0.00  0.00    +0.000 OA
ATOM      9  C   UNL     1      49.396   7.453  15.531  0.00  0.00    +0.000 C 
ATOM     10  N   UNL     1      49.663   7.344  14.187  0.00  0.00    +0.000 N 
ATOM     11  H   UNL     1      50.149   6.533  13.832  0.00  0.00    +0.000 HD
BRANCH   9  12
ATOM     12  C   UNL     1      50.100   6.507  16.395  0.00  0.00    +0.000 A 
ATOM     13  C   UNL     1      49.400   5.620  17.200  0.00  0.00    +0.000 A 
ATOM     14  S   UNL     1      50.413   4.550  18.063  0.00  0.00    +0.000 S 
ATOM     15  C   UNL     1      51.817   5.240  17.380  0.00  0.00    +0.000 A 
ATOM     16  N   UNL     1      53.051   4.749  17.664  0.00  0.00    +0.000 NA
ATOM     17  C   UNL     1      54.017   5.351  17.041  0.00  0.00    +0.000 A 
ATOM     18  N   UNL     1      53.856   6.410  16.185  0.00  0.00    +0.000 N 
ATOM     19  C   UNL     1      52.639   6.995  15.947  0.00  0.00    +0.000 A 
ATOM     20  O   UNL     1      52.565   8.046  15.327  0.00  0.00    +0.000 OA
ATOM     21  C   UNL     1      51.517   6.302  16.551  0.00  0.00    +0.000 A 
ATOM     22  H   UNL     1      54.651   6.878  15.781  0.00  0.00    +0.000 HD
ENDBRANCH   9  12
ENDBRANCH   7  10
ENDBRANCH   1   7
BRANCH   4  23
ATOM     23  C   UNL     1      43.781   6.028  11.748  0.00  0.00    +0.000 C 
BRANCH  23  24
ATOM     24  N   UNL     1      43.741   5.487  10.392  0.00  0.00    +0.000 NA
ATOM     25  H   UNL     1      44.536   5.816   9.850  0.00  0.00    +0.000 HD
BRANCH  24  26
ATOM     26  CA  UNL     1      43.654   4.001  10.366  0.00  0.00    +0.000 C 
BRANCH  26  27
ATOM     27  C   UNL     1      44.935   3.394   9.708  0.00  0.00    +0.000 C 
ATOM     28  C   UNL     1      45.211   3.941   8.309  0.00  0.00    +0.000 C 
ATOM     29  C   UNL     1      46.195   2.937   7.739  0.00  0.00    +0.000 C 
ATOM     30  C   UNL     1      45.823   1.623   8.402  0.00  0.00    +0.000 C 
ATOM     31  N   UNL     1      44.851   1.940   9.455  0.00  0.00    +0.000 NA
ATOM     32  H   UNL     1      45.075   1.425  10.305  0.00  0.00    +0.000 HD
ENDBRANCH  26  27
BRANCH  26  33
ATOM     33  C   UNL     1      43.393   3.378  11.764  0.00  0.00    +0.000 C 
BRANCH  33  34
ATOM     34  O   UNL     1      42.906   2.041  11.677  0.00  0.00    +0.000 OA
ATOM     35  H   UNL     1      43.510   1.552  11.093  0.00  0.00    +0.000 HD
ENDBRANCH  33  34
ENDBRANCH  26  33
ENDBRANCH  24  26
ENDBRANCH  23  24
ENDBRANCH   4  23
TORSDOF 9
ENDMDL
MODEL 4
REMARK VINA RESULT:    -6.125      2.985      3.740
REMARK INTER + INTRA:         -10.702
REMARK INTER:                  -9.748
REMARK INTRA:                  -0.954
REMARK UNBOUND:                -1.534
REMARK  Name = 
REMARK  9 active torsions:
REMARK  status: ('A' for Active; 'I' for Inactive)
REMARK    1  A    between atoms: C_2  and  C_21
REMARK    2  A    between atoms: N_3  and  C_4
REMARK    3  A    between atoms: C_4  and  C_5
REMARK    4  A    between atoms: C_8  and  C_9
REMARK    5  A    between atoms: C_9  and  N_10
REMARK    6  A    between atoms: N_10  and  CA_11
REMARK    7  A    between atoms: CA_11  and  C_12
REMARK    8  A    between atoms: CA_11  and  C_14
REMARK    9  A    between atoms: C_12  and  O_13
REMARK                            x       y       z     vdW  Elec       q    Type
REMARK                         _______ _______ _______ _____ _____    ______ ____
ROOT
ATOM      1  C   UNL     1      48.186   6.226  15.191  0.00  0.00    +0.000 A 
ATOM      2  C   UNL     1      47.421   5.052  15.097  0.00  0.00    +0.000 A 
ATOM      3  C   UNL     1      46.602   4.817  13.989  0.00  0.00    +0.000 A 
ATOM      4  C   UNL     1      46.537   5.753  12.951  0.00  0.00    +0.000 A 
ATOM      5  C   UNL     1      47.320   6.915  13.038  0.00  0.00    +0.000 A 
ATOM      6  C   UNL     1      48.146   7.144  14.137  0.00  0.00    +0.000 A 
ENDROOT
BRANCH   1   7
ATOM      7  C   UNL     1      49.020   6.500  16.413  0.00  0.00    +0.000 C 
BRANCH   7  10
ATOM      8  O   UNL     1      48.785   4.472  18.337  0.00  0.00    +0.000 OA
ATOM      9  C   UNL     1      49.768   4.490  17.603  0.00  0.00    +0.000 C 
ATOM     10  N   UNL     1      49.984   5.465  16.660  0.00  0.00    +0.000 N 
ATOM     11  H   UNL     1      50.707   5.345  15.965  0.00  0.00    +0.000 HD
BRANCH   9  12
ATOM     12  C   UNL     1      50.808   3.467  17.707  0.00  0.00    +0.000 A 
ATOM     13  C   UNL     1      50.547   2.149  17.362  0.00  0.00    +0.000 A 
ATOM     14  S   UNL     1      51.920   1.138  17.475  0.00  0.00    +0.000 S 
ATOM     15  C   UNL     1      52.902   2.437  17.985  0.00  0.00    +0.000 A 
ATOM     16  N   UNL     1      54.230   2.267  18.214  0.00  0.00    +0.000 NA
ATOM     17  C   UNL     1      54.852   3.352  18.558  0.00  0.00    +0.000 A 
ATOM     18  N   UNL     1      54.259   4.578  18.715  0.00  0.00    +0.000 N 
ATOM     19  C   UNL     1      52.908   4.771  18.587  0.00  0.00    +0.000 A 
ATOM     20  O   UNL     1      52.398   5.833  18.915  0.00  0.00    +0.000 OA
ATOM     21  C   UNL     1      52.182   3.607  18.116  0.00  0.00    +0.000 A 
ATOM     22  H   UNL     1      54.784   5.371  19.047  0.00  0.00    +0.000 HD
ENDBRANCH   9  12
ENDBRANCH   7  10
ENDBRANCH   1   7
BRANCH   4  23
ATOM     23  C   UNL     1      45.713   5.512  11.713  0.00  0.00    +0.000 C 
BRANCH  23  24
ATOM     24  N   UNL     1      45.554   4.099  11.382  0.00  0.00    +0.000 NA
ATOM     25  H   UNL     1      45.594   3.526  12.221  0.00  0.00    +0.000 HD
BRANCH  24  26
ATOM     26  CA  UNL     1      44.314   3.824  10.606  0.00  0.00    +0.000 C 
BRANCH  26  27
ATOM     27  C   UNL     1      44.670   3.413   9.141  0.00  0.00    +0.000 C 
ATOM     28  C   UNL     1      45.549   2.167   9.061  0.00  0.00    +0.000 C 
ATOM     29  C   UNL     1      46.089   2.221   7.645  0.00  0.00    +0.000 C 
ATOM     30  C   UNL     1      46.171   3.704   7.327  0.00  0.00    +0.000 C 
ATOM     31  N   UNL     1      45.487   4.409   8.417  0.00  0.00    +0.000 NA
ATOM     32  H   UNL     1      44.888   5.142   8.038  0.00  0.00    +0.000 HD
ENDBRANCH  26  27
BRANCH  26  33
ATOM     33  C   UNL     1      43.393   2.768  11.277  0.00  0.00    +0.000 C 
BRANCH  33  34
ATOM     34  O   UNL     1      43.804   2.461  12.607  0.00  0.00    +0.000 OA
ATOM     35  H   UNL     1      43.191   2.915  13.209  0.00  0.00    +0.000 HD
ENDBRANCH  33  34
ENDBRANCH  26  33
ENDBRANCH  24  26
ENDBRANCH  23  24
ENDBRANCH   4  23
TORSDOF 9
ENDMDL
MODEL 5
REMARK VINA RESULT:    -5.988      3.188      7.732
REMARK INTER + INTRA:         -10.498
REMARK INTER:                  -8.714
REMARK INTRA:                  -1.784
REMARK UNBOUND:                -1.534
REMARK  Name = 
REMARK  9 active torsions:
REMARK  status: ('A' for Active; 'I' for Inactive)
REMARK    1  A    between atoms: C_2  and  C_21
REMARK    2  A    between atoms: N_3  and  C_4
REMARK    3  A    between atoms: C_4  and  C_5
REMARK    4  A    between atoms: C_8  and  C_9
REMARK    5  A    between atoms: C_9  and  N_10
REMARK    6  A    between atoms: N_10  and  CA_11
REMARK    7  A    between atoms: CA_11  and  C_12
REMARK    8  A    between atoms: CA_11  and  C_14
REMARK    9  A    between atoms: C_12  and  O_13
REMARK                            x       y       z     vdW  Elec       q    Type
REMARK                         _______ _______ _______ _____ _____    ______ ____
ROOT
ATOM      1  C   UNL     1      49.105   8.508  15.613  0.00  0.00    +0.000 A 
ATOM      2  C   UNL     1      48.986   8.628  17.007  0.00  0.00    +0.000 A 
ATOM      3  C   UNL     1      49.820   7.902  17.862  0.00  0.00    +0.000 A 
ATOM      4  C   UNL     1      50.792   7.045  17.336  0.00  0.00    +0.000 A 
ATOM      5  C   UNL     1      50.924   6.945  15.942  0.00  0.00    +0.000 A 
ATOM      6  C   UNL     1      50.100   7.678  15.089  0.00  0.00    +0.000 A 
ENDROOT
BRANCH   1   7
ATOM      7  C   UNL     1      48.166   9.247  14.699  0.00  0.00    +0.000 C 
BRANCH   7  10
ATOM      8  O   UNL     1      47.898   8.466  12.018  0.00  0.00    +0.000 OA
ATOM      9  C   UNL     1      47.101   8.040  12.848  0.00  0.00    +0.000 C 
ATOM     10  N   UNL     1      47.133   8.399  14.174  0.00  0.00    +0.000 N 
ATOM     11  H   UNL     1      46.576   7.894  14.849  0.00  0.00    +0.000 HD
BRANCH   9  12
ATOM     12  C   UNL     1      46.027   7.125  12.465  0.00  0.00    +0.000 A 
ATOM     13  C   UNL     1      44.932   7.576  11.742  0.00  0.00    +0.000 A 
ATOM     14  S   UNL     1      43.839   6.330  11.328  0.00  0.00    +0.000 S 
ATOM     15  C   UNL     1      44.803   5.152  12.100  0.00  0.00    +0.000 A 
ATOM     16  N   UNL     1      44.461   3.838  12.077  0.00  0.00    +0.000 NA
ATOM     17  C   UNL     1      45.309   3.059  12.674  0.00  0.00    +0.000 A 
ATOM     18  N   UNL     1      46.450   3.482  13.307  0.00  0.00    +0.000 N 
ATOM     19  C   UNL     1      46.781   4.806  13.434  0.00  0.00    +0.000 A 
ATOM     20  O   UNL     1      47.702   5.150  14.161  0.00  0.00    +0.000 OA
ATOM     21  C   UNL     1      45.910   5.710  12.708  0.00  0.00    +0.000 A 
ATOM     22  H   UNL     1      47.037   2.835  13.808  0.00  0.00    +0.000 HD
ENDBRANCH   9  12
ENDBRANCH   7  10
ENDBRANCH   1   7
BRANCH   4  23
ATOM     23  C   UNL     1      51.750   6.289  18.221  0.00  0.00    +0.000 C 
BRANCH  23  24
ATOM     24  N   UNL     1      51.089   5.475  19.238  0.00  0.00    +0.000 NA
ATOM     25  H   UNL     1      50.194   5.883  19.500  0.00  0.00    +0.000 HD
BRANCH  24  26
ATOM     26  CA  UNL     1      50.928   4.054  18.824  0.00  0.00    +0.000 C 
BRANCH  26  27
ATOM     27  C   UNL     1      49.693   3.900  17.879  0.00  0.00    +0.000 C 
ATOM     28  C   UNL     1      48.431   3.441  18.605  0.00  0.00    +0.000 C 
ATOM     29  C   UNL     1      47.539   2.969  17.473  0.00  0.00    +0.000 C 
ATOM     30  C   UNL     1      48.504   2.458  16.417  0.00  0.00    +0.000 C 
ATOM     31  N   UNL     1      49.850   2.852  16.849  0.00  0.00    +0.000 NA
ATOM     32  H   UNL     1      50.378   3.218  16.057  0.00  0.00    +0.000 HD
ENDBRANCH  26  27
BRANCH  26  33
ATOM     33  C   UNL     1      52.207   3.456  18.179  0.00  0.00    +0.000 C 
BRANCH  33  34
ATOM     34  O   UNL     1      52.420   2.098  18.560  0.00  0.00    +0.000 OA
ATOM     35  H   UNL     1      52.483   2.079  19.530  0.00  0.00    +0.000 HD
ENDBRANCH  33  34
ENDBRANCH  26  33
ENDBRANCH  24  26
ENDBRANCH  23  24
ENDBRANCH   4  23
TORSDOF 9
ENDMDL
MODEL 6
REMARK VINA RESULT:    -5.831      3.220      8.025
REMARK INTER + INTRA:         -10.262
REMARK INTER:                  -9.126
REMARK INTRA:                  -1.136
REMARK UNBOUND:                -1.534
REMARK  Name = 
REMARK  9 active torsions:
REMARK  status: ('A' for Active; 'I' for Inactive)
REMARK    1  A    between atoms: C_2  and  C_21
REMARK    2  A    between atoms: N_3  and  C_4
REMARK    3  A    between atoms: C_4  and  C_5
REMARK    4  A    between atoms: C_8  and  C_9
REMARK    5  A    between atoms: C_9  and  N_10
REMARK    6  A    between atoms: N_10  and  CA_11
REMARK    7  A    between atoms: CA_11  and  C_12
REMARK    8  A    between atoms: CA_11  and  C_14
REMARK    9  A    between atoms: C_12  and  O_13
REMARK                            x       y       z     vdW  Elec       q    Type
REMARK                         _______ _______ _______ _____ _____    ______ ____
ROOT
ATOM      1  C   UNL     1      48.733   7.961  13.302  0.00  0.00    +0.000 A 
ATOM      2  C   UNL     1      50.134   7.908  13.367  0.00  0.00    +0.000 A 
ATOM      3  C   UNL     1      50.788   7.686  14.583  0.00  0.00    +0.000 A 
ATOM      4  C   UNL     1      50.047   7.509  15.757  0.00  0.00    +0.000 A 
ATOM      5  C   UNL     1      48.645   7.541  15.684  0.00  0.00    +0.000 A 
ATOM      6  C   UNL     1      47.995   7.750  14.470  0.00  0.00    +0.000 A 
ENDROOT
BRANCH   1   7
ATOM      7  C   UNL     1      48.039   8.259  12.001  0.00  0.00    +0.000 C 
BRANCH   7  10
ATOM      8  O   UNL     1      45.265   7.912  11.757  0.00  0.00    +0.000 OA
ATOM      9  C   UNL     1      46.018   7.035  11.342  0.00  0.00    +0.000 C 
ATOM     10  N   UNL     1      47.385   7.104  11.453  0.00  0.00    +0.000 N 
ATOM     11  H   UNL     1      47.968   6.453  10.945  0.00  0.00    +0.000 HD
BRANCH   9  12
ATOM     12  C   UNL     1      45.493   5.824  10.713  0.00  0.00    +0.000 A 
ATOM     13  C   UNL     1      45.796   5.519   9.393  0.00  0.00    +0.000 A 
ATOM     14  S   UNL     1      45.153   4.021   8.884  0.00  0.00    +0.000 S 
ATOM     15  C   UNL     1      44.457   3.736  10.415  0.00  0.00    +0.000 A 
ATOM     16  N   UNL     1      43.789   2.583  10.681  0.00  0.00    +0.000 NA
ATOM     17  C   UNL     1      43.349   2.494  11.898  0.00  0.00    +0.000 A 
ATOM     18  N   UNL     1      43.498   3.462  12.858  0.00  0.00    +0.000 N 
ATOM     19  C   UNL     1      44.080   4.677  12.602  0.00  0.00    +0.000 A 
ATOM     20  O   UNL     1      44.027   5.578  13.428  0.00  0.00    +0.000 OA
ATOM     21  C   UNL     1      44.667   4.791  11.281  0.00  0.00    +0.000 A 
ATOM     22  H   UNL     1      43.078   3.362  13.767  0.00  0.00    +0.000 HD
ENDBRANCH   9  12
ENDBRANCH   7  10
ENDBRANCH   1   7
BRANCH   4  23
ATOM     23  C   UNL     1      50.708   7.209  17.077  0.00  0.00    +0.000 C 
BRANCH  23  24
ATOM     24  N   UNL     1      51.224   5.846  17.177  0.00  0.00    +0.000 NA
ATOM     25  H   UNL     1      52.235   5.851  17.291  0.00  0.00    +0.000 HD
BRANCH  24  26
ATOM     26  CA  UNL     1      50.569   5.060  18.257  0.00  0.00    +0.000 C 
BRANCH  26  27
ATOM     27  C   UNL     1      49.123   4.649  17.830  0.00  0.00    +0.000 C 
ATOM     28  C   UNL     1      48.550   3.504  18.662  0.00  0.00    +0.000 C 
ATOM     29  C   UNL     1      47.383   3.022  17.822  0.00  0.00    +0.000 C 
ATOM     30  C   UNL     1      47.808   3.298  16.389  0.00  0.00    +0.000 C 
ATOM     31  N   UNL     1      49.032   4.104  16.459  0.00  0.00    +0.000 NA
ATOM     32  H   UNL     1      48.987   4.866  15.784  0.00  0.00    +0.000 HD
ENDBRANCH  26  27
BRANCH  26  33
ATOM     33  C   UNL     1      51.395   3.822  18.701  0.00  0.00    +0.000 C 
BRANCH  33  34
ATOM     34  O   UNL     1      52.058   4.033  19.946  0.00  0.00    +0.000 OA
ATOM     35  H   UNL     1      53.004   3.864  19.800  0.00  0.00    +0.000 HD
ENDBRANCH  33  34
ENDBRANCH  26  33
ENDBRANCH  24  26
ENDBRANCH  23  24
ENDBRANCH   4  23
TORSDOF 9
ENDMDL
MODEL 7
REMARK VINA RESULT:    -5.261      2.725      3.747
REMARK INTER + INTRA:          -9.409
REMARK INTER:                  -8.288
REMARK INTRA:                  -1.121
REMARK UNBOUND:                -1.534
REMARK  Name = 
REMARK  9 active torsions:
REMARK  status: ('A' for Active; 'I' for Inactive)
REMARK    1  A    between atoms: C_2  and  C_21
REMARK    2  A    between atoms: N_3  and  C_4
REMARK    3  A    between atoms: C_4  and  C_5
REMARK    4  A    between atoms: C_8  and  C_9
REMARK    5  A    between atoms: C_9  and  N_10
REMARK    6  A    between atoms: N_10  and  CA_11
REMARK    7  A    between atoms: CA_11  and  C_12
REMARK    8  A    between atoms: CA_11  and  C_14
REMARK    9  A    between atoms: C_12  and  O_13
REMARK                            x       y       z     vdW  Elec       q    Type
REMARK                         _______ _______ _______ _____ _____    ______ ____
ROOT
ATOM      1  C   UNL     1      47.918   5.011  15.652  0.00  0.00    +0.000 A 
ATOM      2  C   UNL     1      46.878   4.271  15.068  0.00  0.00    +0.000 A 
ATOM      3  C   UNL     1      46.175   4.768  13.967  0.00  0.00    +0.000 A 
ATOM      4  C   UNL     1      46.506   6.016  13.427  0.00  0.00    +0.000 A 
ATOM      5  C   UNL     1      47.561   6.744  14.000  0.00  0.00    +0.000 A 
ATOM      6  C   UNL     1      48.269   6.242  15.091  0.00  0.00    +0.000 A 
ENDROOT
BRANCH   1   7
ATOM      7  C   UNL     1      48.630   4.496  16.874  0.00  0.00    +0.000 C 
BRANCH   7  10
ATOM      8  O   UNL     1      49.159   4.668  19.624  0.00  0.00    +0.000 OA
ATOM      9  C   UNL     1      49.657   5.494  18.866  0.00  0.00    +0.000 C 
ATOM     10  N   UNL     1      49.423   5.509  17.512  0.00  0.00    +0.000 N 
ATOM     11  H   UNL     1      49.986   6.090  16.907  0.00  0.00    +0.000 HD
BRANCH   9  12
ATOM     12  C   UNL     1      50.529   6.555  19.370  0.00  0.00    +0.000 A 
ATOM     13  C   UNL     1      50.047   7.514  20.248  0.00  0.00    +0.000 A 
ATOM     14  S   UNL     1      51.249   8.606  20.778  0.00  0.00    +0.000 S 
ATOM     15  C   UNL     1      52.448   7.823  19.850  0.00  0.00    +0.000 A 
ATOM     16  N   UNL     1      53.743   8.230  19.886  0.00  0.00    +0.000 NA
ATOM     17  C   UNL     1      54.545   7.515  19.159  0.00  0.00    +0.000 A 
ATOM     18  N   UNL     1      54.159   6.450  18.385  0.00  0.00    +0.000 N 
ATOM     19  C   UNL     1      52.850   6.068  18.247  0.00  0.00    +0.000 A 
ATOM     20  O   UNL     1      52.529   5.237  17.409  0.00  0.00    +0.000 OA
ATOM     21  C   UNL     1      51.927   6.780  19.110  0.00  0.00    +0.000 A 
ATOM     22  H   UNL     1      54.818   5.973  17.791  0.00  0.00    +0.000 HD
ENDBRANCH   9  12
ENDBRANCH   7  10
ENDBRANCH   1   7
BRANCH   4  23
ATOM     23  C   UNL     1      45.814   6.563  12.205  0.00  0.00    +0.000 C 
BRANCH  23  24
ATOM     24  N   UNL     1      45.681   5.591  11.123  0.00  0.00    +0.000 NA
ATOM     25  H   UNL     1      46.026   4.679  11.415  0.00  0.00    +0.000 HD
BRANCH  24  26
ATOM     26  CA  UNL     1      44.290   5.494  10.602  0.00  0.00    +0.000 C 
BRANCH  26  27
ATOM     27  C   UNL     1      44.179   4.330   9.565  0.00  0.00    +0.000 C 
ATOM     28  C   UNL     1      44.642   2.984  10.117  0.00  0.00    +0.000 C 
ATOM     29  C   UNL     1      44.840   2.152   8.865  0.00  0.00    +0.000 C 
ATOM     30  C   UNL     1      45.250   3.158   7.803  0.00  0.00    +0.000 C 
ATOM     31  N   UNL     1      45.051   4.491   8.383  0.00  0.00    +0.000 NA
ATOM     32  H   UNL     1      44.606   5.105   7.703  0.00  0.00    +0.000 HD
ENDBRANCH  26  27
BRANCH  26  33
ATOM     33  C   UNL     1      43.225   5.351  11.723  0.00  0.00    +0.000 C 
BRANCH  33  34
ATOM     34  O   UNL     1      42.199   6.336  11.622  0.00  0.00    +0.000 OA
ATOM     35  H   UNL     1      41.374   5.870  11.403  0.00  0.00    +0.000 HD
ENDBRANCH  33  34
ENDBRANCH  26  33
ENDBRANCH  24  26
ENDBRANCH  23  24
ENDBRANCH   4  23
TORSDOF 9
ENDMDL
MODEL 8
REMARK VINA RESULT:    -5.204      2.617      3.914
REMARK INTER + INTRA:          -9.324
REMARK INTER:                  -8.308
REMARK INTRA:                  -1.016
REMARK UNBOUND:                -1.534
REMARK  Name = 
REMARK  9 active torsions:
REMARK  status: ('A' for Active; 'I' for Inactive)
REMARK    1  A    between atoms: C_2  and  C_21
REMARK    2  A    between atoms: N_3  and  C_4
REMARK    3  A    between atoms: C_4  and  C_5
REMARK    4  A    between atoms: C_8  and  C_9
REMARK    5  A    between atoms: C_9  and  N_10
REMARK    6  A    between atoms: N_10  and  CA_11
REMARK    7  A    between atoms: CA_11  and  C_12
REMARK    8  A    between atoms: CA_11  and  C_14
REMARK    9  A    between atoms: C_12  and  O_13
REMARK                            x       y       z     vdW  Elec       q    Type
REMARK                         _______ _______ _______ _____ _____    ______ ____
ROOT
ATOM      1  C   UNL     1      47.954   4.773  15.811  0.00  0.00    +0.000 A 
ATOM      2  C   UNL     1      46.976   4.104  15.059  0.00  0.00    +0.000 A 
ATOM      3  C   UNL     1      46.425   4.690  13.916  0.00  0.00    +0.000 A 
ATOM      4  C   UNL     1      46.849   5.958  13.503  0.00  0.00    +0.000 A 
ATOM      5  C   UNL     1      47.844   6.614  14.244  0.00  0.00    +0.000 A 
ATOM      6  C   UNL     1      48.401   6.024  15.377  0.00  0.00    +0.000 A 
ENDROOT
BRANCH   1   7
ATOM      7  C   UNL     1      48.500   4.161  17.073  0.00  0.00    +0.000 C 
BRANCH   7  10
ATOM      8  O   UNL     1      48.732   4.229  19.868  0.00  0.00    +0.000 OA
ATOM      9  C   UNL     1      49.385   5.020  19.194  0.00  0.00    +0.000 C 
ATOM     10  N   UNL     1      49.305   5.083  17.823  0.00  0.00    +0.000 N 
ATOM     11  H   UNL     1      49.983   5.620  17.301  0.00  0.00    +0.000 HD
BRANCH   9  12
ATOM     12  C   UNL     1      50.288   5.984  19.821  0.00  0.00    +0.000 A 
ATOM     13  C   UNL     1      51.594   5.636  20.134  0.00  0.00    +0.000 A 
ATOM     14  S   UNL     1      52.499   6.933  20.780  0.00  0.00    +0.000 S 
ATOM     15  C   UNL     1      51.171   7.996  20.654  0.00  0.00    +0.000 A 
ATOM     16  N   UNL     1      51.282   9.305  20.999  0.00  0.00    +0.000 NA
ATOM     17  C   UNL     1      50.200   9.996  20.813  0.00  0.00    +0.000 A 
ATOM     18  N   UNL     1      49.018   9.488  20.338  0.00  0.00    +0.000 N 
ATOM     19  C   UNL     1      48.837   8.156  20.071  0.00  0.00    +0.000 A 
ATOM     20  O   UNL     1      47.722   7.716  19.828  0.00  0.00    +0.000 OA
ATOM     21  C   UNL     1      50.043   7.357  20.178  0.00  0.00    +0.000 A 
ATOM     22  H   UNL     1      48.193  10.062  20.277  0.00  0.00    +0.000 HD
ENDBRANCH   9  12
ENDBRANCH   7  10
ENDBRANCH   1   7
BRANCH   4  23
ATOM     23  C   UNL     1      46.325   6.601  12.245  0.00  0.00    +0.000 C 
BRANCH  23  24
ATOM     24  N   UNL     1      46.090   5.654  11.157  0.00  0.00    +0.000 NA
ATOM     25  H   UNL     1      46.253   4.700  11.470  0.00  0.00    +0.000 HD
BRANCH  24  26
ATOM     26  CA  UNL     1      44.738   5.795  10.551  0.00  0.00    +0.000 C 
BRANCH  26  27
ATOM     27  C   UNL     1      44.416   4.560   9.649  0.00  0.00    +0.000 C 
ATOM     28  C   UNL     1      44.860   3.234  10.261  0.00  0.00    +0.000 C 
ATOM     29  C   UNL     1      44.838   2.287   9.077  0.00  0.00    +0.000 C 
ATOM     30  C   UNL     1      45.169   3.166   7.883  0.00  0.00    +0.000 C 
ATOM     31  N   UNL     1      45.134   4.555   8.357  0.00  0.00    +0.000 NA
ATOM     32  H   UNL     1      44.644   5.142   7.684  0.00  0.00    +0.000 HD
ENDBRANCH  26  27
BRANCH  26  33
ATOM     33  C   UNL     1      43.618   6.030  11.601  0.00  0.00    +0.000 C 
BRANCH  33  34
ATOM     34  O   UNL     1      42.689   7.028  11.184  0.00  0.00    +0.000 OA
ATOM     35  H   UNL     1      41.835   6.585  11.041  0.00  0.00    +0.000 HD
ENDBRANCH  33  34
ENDBRANCH  26  33
ENDBRANCH  24  26
ENDBRANCH  23  24
ENDBRANCH   4  23
TORSDOF 9
ENDMDL
