MODEL 1
REMARK VINA RESULT:    -6.811      0.000      0.000
REMARK INTER + INTRA:         -12.017
REMARK INTER:                 -10.394
REMARK INTRA:                  -1.623
REMARK UNBOUND:                -1.623
REMARK  Name = 
REMARK  11 active torsions:
REMARK  status: ('A' for Active; 'I' for Inactive)
REMARK    1  A    between atoms: C_1  and  O_2
REMARK    2  A    between atoms: O_2  and  C_3
REMARK    3  A    between atoms: C_8  and  C_9
REMARK    4  A    between atoms: C_9  and  C_10
REMARK    5  A    between atoms: C_10  and  O_11
REMARK    6  A    between atoms: O_11  and  C_12
REMARK    7  A    between atoms: C_15  and  C_16
REMARK    8  A    between atoms: C_16  and  N_17
REMARK    9  A    between atoms: C_18  and  C_20
REMARK   10  A    between atoms: C_27  and  O_28
REMARK   11  A    between atoms: O_28  and  C_29
REMARK                            x       y       z     vdW  Elec       q    Type
REMARK                         _______ _______ _______ _____ _____    ______ ____
ROOT
ATOM      1  C   UNL     1      49.016   7.483  16.463  0.00  0.00    +0.000 A 
ATOM      2  C   UNL     1      48.289   8.635  16.162  0.00  0.00    +0.000 A 
ATOM      3  C   UNL     1      47.933   8.928  14.845  0.00  0.00    +0.000 A 
ATOM      4  C   UNL     1      48.281   8.065  13.800  0.00  0.00    +0.000 A 
ATOM      5  C   UNL     1      49.033   6.925  14.097  0.00  0.00    +0.000 A 
ATOM      6  C   UNL     1      49.394   6.633  15.421  0.00  0.00    +0.000 A 
ENDROOT
BRANCH   1   7
ATOM      7  O   UNL     1      49.394   7.100  17.728  0.00  0.00    +0.000 OA
BRANCH   7   8
ATOM      8  C   UNL     1      48.448   6.283  18.430  0.00  0.00    +0.000 C 
BRANCH   8   9
ATOM      9  C   UNL     1      49.140   5.126  19.142  0.00  0.00    +0.000 C 
BRANCH   9  15
ATOM     10  C   UNL     1      50.587   3.402  17.958  0.00  0.00    +0.000 A 
ATOM     11  C   UNL     1      50.599   2.353  17.053  0.00  0.00    +0.000 A 
ATOM     12  N   UNL     1      49.515   1.917  16.380  0.00  0.00    +0.000 NA
ATOM     13  C   UNL     1      48.371   2.560  16.648  0.00  0.00    +0.000 A 
ATOM     14  N   UNL     1      48.225   3.566  17.524  0.00  0.00    +0.000 NA
ATOM     15  C   UNL     1      49.337   3.969  18.190  0.00  0.00    +0.000 A 
BRANCH  10  17
ATOM     16  C   UNL     1      52.883   3.158  18.466  0.00  0.00    +0.000 C 
ATOM     17  O   UNL     1      51.670   3.896  18.617  0.00  0.00    +0.000 OA
ENDBRANCH  10  17
ENDBRANCH   9  15
ENDBRANCH   8   9
ENDBRANCH   7   8
ENDBRANCH   1   7
BRANCH   4  18
ATOM     18  C   UNL     1      47.839   8.392  12.399  0.00  0.00    +0.000 C 
BRANCH  18  19
ATOM     19  N   UNL     1      47.398   7.222  11.684  0.00  0.00    +0.000 N 
ATOM     20  C   UNL     1      46.063   7.017  11.439  0.00  0.00    +0.000 C 
ATOM     21  O   UNL     1      45.222   7.848  11.775  0.00  0.00    +0.000 OA
ATOM     22  H   UNL     1      48.092   6.623  11.256  0.00  0.00    +0.000 HD
BRANCH  20  23
ATOM     23  C   UNL     1      45.670   5.732  10.850  0.00  0.00    +0.000 A 
ATOM     24  C   UNL     1      45.869   5.528   9.490  0.00  0.00    +0.000 A 
ATOM     25  S   UNL     1      45.078   4.145   8.892  0.00  0.00    +0.000 S 
ATOM     26  C   UNL     1      44.509   3.747  10.443  0.00  0.00    +0.000 A 
ATOM     27  N   UNL     1      43.684   2.700  10.603  0.00  0.00    +0.000 NA
ATOM     28  C   UNL     1      43.372   2.482  11.881  0.00  0.00    +0.000 A 
ATOM     29  N   UNL     1      43.853   3.127  12.950  0.00  0.00    +0.000 NA
ATOM     30  C   UNL     1      44.683   4.167  12.740  0.00  0.00    +0.000 A 
ATOM     31  C   UNL     1      44.999   4.583  11.437  0.00  0.00    +0.000 A 
BRANCH  30  32
ATOM     32  O   UNL     1      45.266   4.793  13.826  0.00  0.00    +0.000 OA
ATOM     33  C   UNL     1      46.603   4.366  14.079  0.00  0.00    +0.000 C 
ENDBRANCH  30  32
ENDBRANCH  20  23
ENDBRANCH  18  19
ENDBRANCH   4  18
TORSDOF 9
ENDMDL
MODEL 2
REMARK VINA RESULT:    -6.721      3.257      9.006
REMARK INTER + INTRA:         -11.880
REMARK INTER:                 -10.506
REMARK INTRA:                  -1.374
REMARK UNBOUND:                -1.623
REMARK  Name = 
REMARK  11 active torsions:
REMARK  status: ('A' for Active; 'I' for Inactive)
REMARK    1  A    between atoms: C_1  and  O_2
REMARK    2  A    between atoms: O_2  and  C_3
REMARK    3  A    between atoms: C_8  and  C_9
REMARK    4  A    between atoms: C_9  and  C_10
REMARK    5  A    between atoms: C_10  and  O_11
REMARK    6  A    between atoms: O_11  and  C_12
REMARK    7  A    between atoms: C_15  and  C_16
REMARK    8  A    between atoms: C_16  and  N_17
REMARK    9  A    between atoms: C_18  and  C_20
REMARK   10  A    between atoms: C_27  and  O_28
REMARK   11  A    between atoms: O_28  and  C_29
REMARK                            x       y       z     vdW  Elec       q    Type
REMARK                         _______ _______ _______ _____ _____    ______ ____
ROOT
ATOM      1  C   UNL     1      47.444   5.767  13.897  0.00  0.00    +0.000 A 
ATOM      2  C   UNL     1      48.180   6.254  14.977  0.00  0.00    +0.000 A 
ATOM      3  C   UNL     1      48.355   5.482  16.125  0.00  0.00    +0.000 A 
ATOM      4  C   UNL     1      47.812   4.195  16.213  0.00  0.00    +0.000 A 
ATOM      5  C   UNL     1      47.051   3.717  15.143  0.00  0.00    +0.000 A 
ATOM      6  C   UNL     1      46.873   4.496  13.990  0.00  0.00    +0.000 A 
ENDROOT
BRANCH   1   7
ATOM      7  O   UNL     1      47.236   6.443  12.718  0.00  0.00    +0.000 OA
BRANCH   7   8
ATOM      8  C   UNL     1      45.870   6.774  12.433  0.00  0.00    +0.000 C 
BRANCH   8   9
ATOM      9  C   UNL     1      45.537   6.524  10.966  0.00  0.00    +0.000 C 
BRANCH   9  15
ATOM     10  C   UNL     1      45.056   4.407   9.642  0.00  0.00    +0.000 A 
ATOM     11  C   UNL     1      44.404   3.184   9.645  0.00  0.00    +0.000 A 
ATOM     12  N   UNL     1      43.619   2.744  10.649  0.00  0.00    +0.000 NA
ATOM     13  C   UNL     1      43.505   3.569  11.698  0.00  0.00    +0.000 A 
ATOM     14  N   UNL     1      44.109   4.760  11.826  0.00  0.00    +0.000 NA
ATOM     15  C   UNL     1      44.900   5.163  10.799  0.00  0.00    +0.000 A 
BRANCH  10  17
ATOM     16  C   UNL     1      46.306   3.940   7.690  0.00  0.00    +0.000 C 
ATOM     17  O   UNL     1      45.816   4.900   8.626  0.00  0.00    +0.000 OA
ENDBRANCH  10  17
ENDBRANCH   9  15
ENDBRANCH   8   9
ENDBRANCH   7   8
ENDBRANCH   1   7
BRANCH   4  18
ATOM     18  C   UNL     1      48.060   3.375  17.450  0.00  0.00    +0.000 C 
BRANCH  18  19
ATOM     19  N   UNL     1      49.463   3.267  17.755  0.00  0.00    +0.000 N 
ATOM     20  C   UNL     1      50.257   2.375  17.078  0.00  0.00    +0.000 C 
ATOM     21  O   UNL     1      49.803   1.689  16.164  0.00  0.00    +0.000 OA
ATOM     22  H   UNL     1      49.879   3.944  18.382  0.00  0.00    +0.000 HD
BRANCH  20  23
ATOM     23  C   UNL     1      51.637   2.201  17.546  0.00  0.00    +0.000 A 
ATOM     24  C   UNL     1      52.274   0.987  17.321  0.00  0.00    +0.000 A 
ATOM     25  S   UNL     1      53.725   0.814  18.193  0.00  0.00    +0.000 S 
ATOM     26  C   UNL     1      53.574   2.379  18.838  0.00  0.00    +0.000 A 
ATOM     27  N   UNL     1      54.464   2.817  19.743  0.00  0.00    +0.000 NA
ATOM     28  C   UNL     1      54.244   4.080  20.110  0.00  0.00    +0.000 A 
ATOM     29  N   UNL     1      53.323   4.915  19.616  0.00  0.00    +0.000 NA
ATOM     30  C   UNL     1      52.456   4.432  18.705  0.00  0.00    +0.000 A 
ATOM     31  C   UNL     1      52.496   3.083  18.318  0.00  0.00    +0.000 A 
BRANCH  30  32
ATOM     32  O   UNL     1      51.554   5.295  18.112  0.00  0.00    +0.000 OA
ATOM     33  C   UNL     1      52.038   5.886  16.907  0.00  0.00    +0.000 C 
ENDBRANCH  30  32
ENDBRANCH  20  23
ENDBRANCH  18  19
ENDBRANCH   4  18
TORSDOF 9
ENDMDL
MODEL 3
REMARK VINA RESULT:    -6.511      3.053      8.309
REMARK INTER + INTRA:         -11.560
REMARK INTER:                 -10.249
REMARK INTRA:                  -1.310
REMARK UNBOUND:                -1.623
REMARK  Name = 
REMARK  11 active torsions:
REMARK  status: ('A' for Active; 'I' for Inactive)
REMARK    1  A    between atoms: C_1  and  O_2
REMARK    2  A    between atoms: O_2  and  C_3
REMARK    3  A    between atoms: C_8  and  C_9
REMARK    4  A    between atoms: C_9  and  C_10
REMARK    5  A    between atoms: C_10  and  O_11
REMARK    6  A    between atoms: O_11  and  C_12
REMARK    7  A    between atoms: C_15  and  C_16
REMARK    8  A    between atoms: C_16  and  N_17
REMARK    9  A    between atoms: C_18  and  C_20
REMARK   10  A    between atoms: C_27  and  O_28
REMARK   11  A    between atoms: O_28  and  C_29
REMARK                            x       y       z     vdW  Elec       q    Type
REMARK                         _______ _______ _______ _____ _____    ______ ____
ROOT
ATOM      1  C   UNL     1      45.942   5.937  13.124  0.00  0.00    +0.000 A 
ATOM      2  C   UNL     1      46.638   5.117  14.012  0.00  0.00    +0.000 A 
ATOM      3  C   UNL     1      47.783   5.580  14.661  0.00  0.00    +0.000 A 
ATOM      4  C   UNL     1      48.249   6.882  14.450  0.00  0.00    +0.000 A 
ATOM      5  C   UNL     1      47.569   7.696  13.540  0.00  0.00    +0.000 A 
ATOM      6  C   UNL     1      46.420   7.228  12.885  0.00  0.00    +0.000 A 
ENDROOT
BRANCH   1   7
ATOM      7  O   UNL     1      44.796   5.578  12.456  0.00  0.00    +0.000 OA
BRANCH   7   8
ATOM      8  C   UNL     1      44.574   6.254  11.211  0.00  0.00    +0.000 C 
BRANCH   8   9
ATOM      9  C   UNL     1      43.593   5.484  10.334  0.00  0.00    +0.000 C 
BRANCH   9  15
ATOM     10  C   UNL     1      44.071   3.001  10.067  0.00  0.00    +0.000 A 
ATOM     11  C   UNL     1      44.789   2.048   9.362  0.00  0.00    +0.000 A 
ATOM     12  N   UNL     1      45.687   2.333   8.396  0.00  0.00    +0.000 NA
ATOM     13  C   UNL     1      45.849   3.634   8.124  0.00  0.00    +0.000 A 
ATOM     14  N   UNL     1      45.192   4.646   8.712  0.00  0.00    +0.000 NA
ATOM     15  C   UNL     1      44.288   4.317   9.671  0.00  0.00    +0.000 A 
BRANCH  10  17
ATOM     16  C   UNL     1      43.774   2.493  12.356  0.00  0.00    +0.000 C 
ATOM     17  O   UNL     1      43.195   2.750  11.077  0.00  0.00    +0.000 OA
ENDBRANCH  10  17
ENDBRANCH   9  15
ENDBRANCH   8   9
ENDBRANCH   7   8
ENDBRANCH   1   7
BRANCH   4  18
ATOM     18  C   UNL     1      49.461   7.360  15.203  0.00  0.00    +0.000 C 
BRANCH  18  19
ATOM     19  N   UNL     1      50.112   6.292  15.915  0.00  0.00    +0.000 N 
ATOM     20  C   UNL     1      50.136   6.282  17.288  0.00  0.00    +0.000 C 
ATOM     21  O   UNL     1      49.560   7.151  17.938  0.00  0.00    +0.000 OA
ATOM     22  H   UNL     1      50.439   5.488  15.395  0.00  0.00    +0.000 HD
BRANCH  20  23
ATOM     23  C   UNL     1      50.952   5.255  17.946  0.00  0.00    +0.000 A 
ATOM     24  C   UNL     1      51.923   5.651  18.857  0.00  0.00    +0.000 A 
ATOM     25  S   UNL     1      52.996   4.402  19.286  0.00  0.00    +0.000 S 
ATOM     26  C   UNL     1      52.152   3.287  18.322  0.00  0.00    +0.000 A 
ATOM     27  N   UNL     1      52.618   2.035  18.185  0.00  0.00    +0.000 NA
ATOM     28  C   UNL     1      51.817   1.267  17.446  0.00  0.00    +0.000 A 
ATOM     29  N   UNL     1      50.625   1.598  16.937  0.00  0.00    +0.000 NA
ATOM     30  C   UNL     1      50.195   2.864  17.106  0.00  0.00    +0.000 A 
ATOM     31  C   UNL     1      50.996   3.814  17.760  0.00  0.00    +0.000 A 
BRANCH  30  32
ATOM     32  O   UNL     1      48.930   3.209  16.671  0.00  0.00    +0.000 OA
ATOM     33  C   UNL     1      47.916   3.007  17.654  0.00  0.00    +0.000 C 
ENDBRANCH  30  32
ENDBRANCH  20  23
ENDBRANCH  18  19
ENDBRANCH   4  18
TORSDOF 9
ENDMDL
MODEL 4
REMARK VINA RESULT:    -6.313      3.053      5.278
REMARK INTER + INTRA:         -11.257
REMARK INTER:                 -10.232
REMARK INTRA:                  -1.025
REMARK UNBOUND:                -1.623
REMARK  Name = 
REMARK  11 active torsions:
REMARK  status: ('A' for Active; 'I' for Inactive)
REMARK    1  A    between atoms: C_1  and  O_2
REMARK    2  A    between atoms: O_2  and  C_3
REMARK    3  A    between atoms: C_8  and  C_9
REMARK    4  A    between atoms: C_9  and  C_10
REMARK    5  A    between atoms: C_10  and  O_11
REMARK    6  A    between atoms: O_11  and  C_12
REMARK    7  A    between atoms: C_15  and  C_16
REMARK    8  A    between atoms: C_16  and  N_17
REMARK    9  A    between atoms: C_18  and  C_20
REMARK   10  A    between atoms: C_27  and  O_28
REMARK   11  A    between atoms: O_28  and  C_29
REMARK                            x       y       z     vdW  Elec       q    Type
REMARK                         _______ _______ _______ _____ _____    ______ ____
ROOT
ATOM      1  C   UNL     1      51.663   3.369  17.675  0.00  0.00    +0.000 A 
ATOM      2  C   UNL     1      50.902   2.235  17.388  0.00  0.00    +0.000 A 
ATOM      3  C   UNL     1      49.519   2.328  17.226  0.00  0.00    +0.000 A 
ATOM      4  C   UNL     1      48.867   3.561  17.330  0.00  0.00    +0.000 A 
ATOM      5  C   UNL     1      49.624   4.693  17.644  0.00  0.00    +0.000 A 
ATOM      6  C   UNL     1      51.014   4.598  17.810  0.00  0.00    +0.000 A 
ENDROOT
BRANCH   1   7
ATOM      7  O   UNL     1      53.028   3.380  17.830  0.00  0.00    +0.000 OA
BRANCH   7   8
ATOM      8  C   UNL     1      53.521   2.687  18.985  0.00  0.00    +0.000 C 
BRANCH   8   9
ATOM      9  C   UNL     1      54.945   2.189  18.764  0.00  0.00    +0.000 C 
BRANCH   9  15
ATOM     10  C   UNL     1      54.799  -0.345  18.612  0.00  0.00    +0.000 A 
ATOM     11  C   UNL     1      54.810  -1.438  17.760  0.00  0.00    +0.000 A 
ATOM     12  N   UNL     1      54.990  -1.360  16.426  0.00  0.00    +0.000 NA
ATOM     13  C   UNL     1      55.148  -0.124  15.935  0.00  0.00    +0.000 A 
ATOM     14  N   UNL     1      55.126   1.011  16.650  0.00  0.00    +0.000 NA
ATOM     15  C   UNL     1      54.931   0.892  17.989  0.00  0.00    +0.000 A 
BRANCH  10  17
ATOM     16  C   UNL     1      55.084  -1.608  20.591  0.00  0.00    +0.000 C 
ATOM     17  O   UNL     1      54.667  -0.393  19.966  0.00  0.00    +0.000 OA
ENDBRANCH  10  17
ENDBRANCH   9  15
ENDBRANCH   8   9
ENDBRANCH   7   8
ENDBRANCH   1   7
BRANCH   4  18
ATOM     18  C   UNL     1      47.381   3.629  17.103  0.00  0.00    +0.000 C 
BRANCH  18  19
ATOM     19  N   UNL     1      47.033   4.570  16.071  0.00  0.00    +0.000 N 
ATOM     20  C   UNL     1      47.093   4.209  14.748  0.00  0.00    +0.000 C 
ATOM     21  O   UNL     1      47.392   3.064  14.417  0.00  0.00    +0.000 OA
ATOM     22  H   UNL     1      46.623   5.456  16.339  0.00  0.00    +0.000 HD
BRANCH  20  23
ATOM     23  C   UNL     1      46.882   5.260  13.746  0.00  0.00    +0.000 A 
ATOM     24  C   UNL     1      47.833   6.265  13.617  0.00  0.00    +0.000 A 
ATOM     25  S   UNL     1      47.308   7.574  12.665  0.00  0.00    +0.000 S 
ATOM     26  C   UNL     1      45.827   6.803  12.346  0.00  0.00    +0.000 A 
ATOM     27  N   UNL     1      44.877   7.445  11.647  0.00  0.00    +0.000 NA
ATOM     28  C   UNL     1      43.800   6.690  11.432  0.00  0.00    +0.000 A 
ATOM     29  N   UNL     1      43.637   5.404  11.760  0.00  0.00    +0.000 NA
ATOM     30  C   UNL     1      44.620   4.800  12.456  0.00  0.00    +0.000 A 
ATOM     31  C   UNL     1      45.760   5.514  12.857  0.00  0.00    +0.000 A 
BRANCH  30  32
ATOM     32  O   UNL     1      44.519   3.449  12.729  0.00  0.00    +0.000 OA
ATOM     33  C   UNL     1      43.463   2.802  12.021  0.00  0.00    +0.000 C 
ENDBRANCH  30  32
ENDBRANCH  20  23
ENDBRANCH  18  19
ENDBRANCH   4  18
TORSDOF 9
ENDMDL
MODEL 5
REMARK VINA RESULT:    -6.282      2.942      7.875
REMARK INTER + INTRA:         -11.210
REMARK INTER:                  -9.888
REMARK INTRA:                  -1.322
REMARK UNBOUND:                -1.623
REMARK  Name = 
REMARK  11 active torsions:
REMARK  status: ('A' for Active; 'I' for Inactive)
REMARK    1  A    between atoms: C_1  and  O_2
REMARK    2  A    between atoms: O_2  and  C_3
REMARK    3  A    between atoms: C_8  and  C_9
REMARK    4  A    between atoms: C_9  and  C_10
REMARK    5  A    between atoms: C_10  and  O_11
REMARK    6  A    between atoms: O_11  and  C_12
REMARK    7  A    between atoms: C_15  and  C_16
REMARK    8  A    between atoms: C_16  and  N_17
REMARK    9  A    between atoms: C_18  and  C_20
REMARK   10  A    between atoms: C_27  and  O_28
REMARK   11  A    between atoms: O_28  and  C_29
REMARK                            x       y       z     vdW  Elec       q    Type
REMARK                         _______ _______ _______ _____ _____    ______ ____
ROOT
ATOM      1  C   UNL     1      46.889   7.175  12.434  0.00  0.00    +0.000 A 
ATOM      2  C   UNL     1      48.051   6.451  12.700  0.00  0.00    +0.000 A 
ATOM      3  C   UNL     1      48.943   6.875  13.685  0.00  0.00    +0.000 A 
ATOM      4  C   UNL     1      48.684   8.024  14.440  0.00  0.00    +0.000 A 
ATOM      5  C   UNL     1      47.534   8.765  14.156  0.00  0.00    +0.000 A 
ATOM      6  C   UNL     1      46.639   8.340  13.162  0.00  0.00    +0.000 A 
ENDROOT
BRANCH   1   7
ATOM      7  O   UNL     1      45.942   6.826  11.500  0.00  0.00    +0.000 OA
BRANCH   7   8
ATOM      8  C   UNL     1      44.710   7.555  11.572  0.00  0.00    +0.000 C 
BRANCH   8   9
ATOM      9  C   UNL     1      43.553   6.743  10.999  0.00  0.00    +0.000 C 
BRANCH   9  15
ATOM     10  C   UNL     1      43.819   4.239  10.649  0.00  0.00    +0.000 A 
ATOM     11  C   UNL     1      43.845   2.998  11.266  0.00  0.00    +0.000 A 
ATOM     12  N   UNL     1      43.635   2.800  12.583  0.00  0.00    +0.000 NA
ATOM     13  C   UNL     1      43.407   3.905  13.305  0.00  0.00    +0.000 A 
ATOM     14  N   UNL     1      43.388   5.160  12.831  0.00  0.00    +0.000 NA
ATOM     15  C   UNL     1      43.615   5.319  11.502  0.00  0.00    +0.000 A 
BRANCH  10  17
ATOM     16  C   UNL     1      45.303   4.300   8.810  0.00  0.00    +0.000 C 
ATOM     17  O   UNL     1      43.979   4.468   9.317  0.00  0.00    +0.000 OA
ENDBRANCH  10  17
ENDBRANCH   9  15
ENDBRANCH   8   9
ENDBRANCH   7   8
ENDBRANCH   1   7
BRANCH   4  18
ATOM     18  C   UNL     1      49.647   8.424  15.525  0.00  0.00    +0.000 C 
BRANCH  18  19
ATOM     19  N   UNL     1      50.339   7.289  16.080  0.00  0.00    +0.000 N 
ATOM     20  C   UNL     1      49.779   6.562  17.101  0.00  0.00    +0.000 C 
ATOM     21  O   UNL     1      48.657   6.829  17.527  0.00  0.00    +0.000 OA
ATOM     22  H   UNL     1      51.180   6.960  15.623  0.00  0.00    +0.000 HD
BRANCH  20  23
ATOM     23  C   UNL     1      50.603   5.522  17.727  0.00  0.00    +0.000 A 
ATOM     24  C   UNL     1      51.636   5.904  18.573  0.00  0.00    +0.000 A 
ATOM     25  S   UNL     1      52.699   4.632  18.959  0.00  0.00    +0.000 S 
ATOM     26  C   UNL     1      51.769   3.527  18.063  0.00  0.00    +0.000 A 
ATOM     27  N   UNL     1      52.192   2.260  17.919  0.00  0.00    +0.000 NA
ATOM     28  C   UNL     1      51.328   1.505  17.240  0.00  0.00    +0.000 A 
ATOM     29  N   UNL     1      50.118   1.862  16.797  0.00  0.00    +0.000 NA
ATOM     30  C   UNL     1      49.734   3.142  16.971  0.00  0.00    +0.000 A 
ATOM     31  C   UNL     1      50.597   4.078  17.562  0.00  0.00    +0.000 A 
BRANCH  30  32
ATOM     32  O   UNL     1      48.455   3.516  16.605  0.00  0.00    +0.000 OA
ATOM     33  C   UNL     1      47.443   3.008  17.473  0.00  0.00    +0.000 C 
ENDBRANCH  30  32
ENDBRANCH  20  23
ENDBRANCH  18  19
ENDBRANCH   4  18
TORSDOF 9
ENDMDL
MODEL 6
REMARK VINA RESULT:    -6.136      3.169      5.241
REMARK INTER + INTRA:         -10.987
REMARK INTER:                  -9.637
REMARK INTRA:                  -1.350
REMARK UNBOUND:                -1.623
REMARK  Name = 
REMARK  11 active torsions:
REMARK  status: ('A' for Active; 'I' for Inactive)
REMARK    1  A    between atoms: C_1  and  O_2
REMARK    2  A    between atoms: O_2  and  C_3
REMARK    3  A    between atoms: C_8  and  C_9
REMARK    4  A    between atoms: C_9  and  C_10
REMARK    5  A    between atoms: C_10  and  O_11
REMARK    6  A    between atoms: O_11  and  C_12
REMARK    7  A    between atoms: C_15  and  C_16
REMARK    8  A    between atoms: C_16  and  N_17
REMARK    9  A    between atoms: C_18  and  C_20
REMARK   10  A    between atoms: C_27  and  O_28
REMARK   11  A    between atoms: O_28  and  C_29
REMARK                            x       y       z     vdW  Elec       q    Type
REMARK                         _______ _______ _______ _____ _____    ______ ____
ROOT
ATOM      1  C   UNL     1      51.475   3.466  17.910  0.00  0.00    +0.000 A 
ATOM      2  C   UNL     1      50.860   2.341  17.360  0.00  0.00    +0.000 A 
ATOM      3  C   UNL     1      49.485   2.325  17.126  0.00  0.00    +0.000 A 
ATOM      4  C   UNL     1      48.695   3.442  17.421  0.00  0.00    +0.000 A 
ATOM      5  C   UNL     1      49.306   4.559  17.997  0.00  0.00    +0.000 A 
ATOM      6  C   UNL     1      50.688   4.572  18.235  0.00  0.00    +0.000 A 
ENDROOT
BRANCH   1   7
ATOM      7  O   UNL     1      52.823   3.582  18.156  0.00  0.00    +0.000 OA
BRANCH   7   8
ATOM      8  C   UNL     1      53.330   4.924  18.172  0.00  0.00    +0.000 C 
BRANCH   8   9
ATOM      9  C   UNL     1      54.263   5.174  16.992  0.00  0.00    +0.000 C 
BRANCH   9  15
ATOM     10  C   UNL     1      54.364   6.715  14.972  0.00  0.00    +0.000 A 
ATOM     11  C   UNL     1      53.795   7.813  14.347  0.00  0.00    +0.000 A 
ATOM     12  N   UNL     1      52.776   8.534  14.856  0.00  0.00    +0.000 NA
ATOM     13  C   UNL     1      52.305   8.115  16.037  0.00  0.00    +0.000 A 
ATOM     14  N   UNL     1      52.749   7.051  16.725  0.00  0.00    +0.000 NA
ATOM     15  C   UNL     1      53.769   6.344  16.173  0.00  0.00    +0.000 A 
BRANCH  10  17
ATOM     16  C   UNL     1      55.566   5.941  13.088  0.00  0.00    +0.000 C 
ATOM     17  O   UNL     1      55.422   5.996  14.508  0.00  0.00    +0.000 OA
ENDBRANCH  10  17
ENDBRANCH   9  15
ENDBRANCH   8   9
ENDBRANCH   7   8
ENDBRANCH   1   7
BRANCH   4  18
ATOM     18  C   UNL     1      47.223   3.403  17.112  0.00  0.00    +0.000 C 
BRANCH  18  19
ATOM     19  N   UNL     1      46.859   4.350  16.090  0.00  0.00    +0.000 N 
ATOM     20  C   UNL     1      47.037   4.047  14.763  0.00  0.00    +0.000 C 
ATOM     21  O   UNL     1      47.458   2.946  14.416  0.00  0.00    +0.000 OA
ATOM     22  H   UNL     1      46.355   5.186  16.358  0.00  0.00    +0.000 HD
BRANCH  20  23
ATOM     23  C   UNL     1      46.798   5.114  13.784  0.00  0.00    +0.000 A 
ATOM     24  C   UNL     1      47.723   6.145  13.676  0.00  0.00    +0.000 A 
ATOM     25  S   UNL     1      47.163   7.461  12.753  0.00  0.00    +0.000 S 
ATOM     26  C   UNL     1      45.703   6.659  12.418  0.00  0.00    +0.000 A 
ATOM     27  N   UNL     1      44.736   7.291  11.733  0.00  0.00    +0.000 NA
ATOM     28  C   UNL     1      43.678   6.514  11.502  0.00  0.00    +0.000 A 
ATOM     29  N   UNL     1      43.548   5.216  11.803  0.00  0.00    +0.000 NA
ATOM     30  C   UNL     1      44.547   4.623  12.486  0.00  0.00    +0.000 A 
ATOM     31  C   UNL     1      45.669   5.357  12.901  0.00  0.00    +0.000 A 
BRANCH  30  32
ATOM     32  O   UNL     1      44.481   3.265  12.730  0.00  0.00    +0.000 OA
ATOM     33  C   UNL     1      43.463   2.601  11.983  0.00  0.00    +0.000 C 
ENDBRANCH  30  32
ENDBRANCH  20  23
ENDBRANCH  18  19
ENDBRANCH   4  18
TORSDOF 9
ENDMDL
MODEL 7
REMARK VINA RESULT:    -6.072      1.413      2.008
REMARK INTER + INTRA:         -10.891
REMARK INTER:                  -9.661
REMARK INTRA:                  -1.229
REMARK UNBOUND:                -1.623
REMARK  Name = 
REMARK  11 active torsions:
REMARK  status: ('A' for Active; 'I' for Inactive)
REMARK    1  A    between atoms: C_1  and  O_2
REMARK    2  A    between atoms: O_2  and  C_3
REMARK    3  A    between atoms: C_8  and  C_9
REMARK    4  A    between atoms: C_9  and  C_10
REMARK    5  A    between atoms: C_10  and  O_11
REMARK    6  A    between atoms: O_11  and  C_12
REMARK    7  A    between atoms: C_15  and  C_16
REMARK    8  A    between atoms: C_16  and  N_17
REMARK    9  A    between atoms: C_18  and  C_20
REMARK   10  A    between atoms: C_27  and  O_28
REMARK   11  A    between atoms: O_28  and  C_29
REMARK                            x       y       z     vdW  Elec       q    Type
REMARK                         _______ _______ _______ _____ _____    ______ ____
ROOT
ATOM      1  C   UNL     1      50.158   7.238  15.785  0.00  0.00    +0.000 A 
ATOM      2  C   UNL     1      48.781   7.100  15.613  0.00  0.00    +0.000 A 
ATOM      3  C   UNL     1      48.173   7.476  14.415  0.00  0.00    +0.000 A 
ATOM      4  C   UNL     1      48.932   7.981  13.353  0.00  0.00    +0.000 A 
ATOM      5  C   UNL     1      50.308   8.145  13.535  0.00  0.00    +0.000 A 
ATOM      6  C   UNL     1      50.918   7.770  14.742  0.00  0.00    +0.000 A 
ENDROOT
BRANCH   1   7
ATOM      7  O   UNL     1      50.848   6.876  16.918  0.00  0.00    +0.000 OA
BRANCH   7   8
ATOM      8  C   UNL     1      51.902   5.925  16.718  0.00  0.00    +0.000 C 
BRANCH   8   9
ATOM      9  C   UNL     1      52.116   5.069  17.962  0.00  0.00    +0.000 C 
BRANCH   9  15
ATOM     10  C   UNL     1      49.858   3.909  18.111  0.00  0.00    +0.000 A 
ATOM     11  C   UNL     1      48.695   3.771  18.851  0.00  0.00    +0.000 A 
ATOM     12  N   UNL     1      48.423   4.463  19.976  0.00  0.00    +0.000 NA
ATOM     13  C   UNL     1      49.375   5.316  20.374  0.00  0.00    +0.000 A 
ATOM     14  N   UNL     1      50.553   5.516  19.763  0.00  0.00    +0.000 NA
ATOM     15  C   UNL     1      50.794   4.792  18.640  0.00  0.00    +0.000 A 
BRANCH  10  17
ATOM     16  C   UNL     1      50.532   1.894  17.074  0.00  0.00    +0.000 C 
ATOM     17  O   UNL     1      50.143   3.262  16.948  0.00  0.00    +0.000 OA
ENDBRANCH  10  17
ENDBRANCH   9  15
ENDBRANCH   8   9
ENDBRANCH   7   8
ENDBRANCH   1   7
BRANCH   4  18
ATOM     18  C   UNL     1      48.247   8.332  12.061  0.00  0.00    +0.000 C 
BRANCH  18  19
ATOM     19  N   UNL     1      47.671   7.177  11.422  0.00  0.00    +0.000 N 
ATOM     20  C   UNL     1      46.308   7.029  11.347  0.00  0.00    +0.000 C 
ATOM     21  O   UNL     1      45.552   7.899  11.772  0.00  0.00    +0.000 OA
ATOM     22  H   UNL     1      48.280   6.544  10.921  0.00  0.00    +0.000 HD
BRANCH  20  23
ATOM     23  C   UNL     1      45.791   5.757  10.829  0.00  0.00    +0.000 A 
ATOM     24  C   UNL     1      45.869   5.506   9.465  0.00  0.00    +0.000 A 
ATOM     25  S   UNL     1      44.949   4.162   8.972  0.00  0.00    +0.000 S 
ATOM     26  C   UNL     1      44.479   3.842  10.573  0.00  0.00    +0.000 A 
ATOM     27  N   UNL     1      43.604   2.856  10.828  0.00  0.00    +0.000 NA
ATOM     28  C   UNL     1      43.379   2.692  12.132  0.00  0.00    +0.000 A 
ATOM     29  N   UNL     1      43.982   3.332  13.141  0.00  0.00    +0.000 NA
ATOM     30  C   UNL     1      44.857   4.310  12.836  0.00  0.00    +0.000 A 
ATOM     31  C   UNL     1      45.096   4.671  11.501  0.00  0.00    +0.000 A 
BRANCH  30  32
ATOM     32  O   UNL     1      45.561   4.924  13.855  0.00  0.00    +0.000 OA
ATOM     33  C   UNL     1      46.763   4.243  14.208  0.00  0.00    +0.000 C 
ENDBRANCH  30  32
ENDBRANCH  20  23
ENDBRANCH  18  19
ENDBRANCH   4  18
TORSDOF 9
ENDMDL
MODEL 8
REMARK VINA RESULT:    -6.072      3.971      8.818
REMARK INTER + INTRA:         -10.890
REMARK INTER:                  -9.713
REMARK INTRA:                  -1.177
REMARK UNBOUND:                -1.623
REMARK  Name = 
REMARK  11 active torsions:
REMARK  status: ('A' for Active; 'I' for Inactive)
REMARK    1  A    between atoms: C_1  and  O_2
REMARK    2  A    between atoms: O_2  and  C_3
REMARK    3  A    between atoms: C_8  and  C_9
REMARK    4  A    between atoms: C_9  and  C_10
REMARK    5  A    between atoms: C_10  and  O_11
REMARK    6  A    between atoms: O_11  and  C_12
REMARK    7  A    between atoms: C_15  and  C_16
REMARK    8  A    between atoms: C_16  and  N_17
REMARK    9  A    between atoms: C_18  and  C_20
REMARK   10  A    between atoms: C_27  and  O_28
REMARK   11  A    between atoms: O_28  and  C_29
REMARK                            x       y       z     vdW  Elec       q    Type
REMARK                         _______ _______ _______ _____ _____    ______ ____
ROOT
ATOM      1  C   UNL     1      44.827   4.824  11.797  0.00  0.00    +0.000 A 
ATOM      2  C   UNL     1      44.716   6.165  11.430  0.00  0.00    +0.000 A 
ATOM      3  C   UNL     1      45.518   7.136  12.031  0.00  0.00    +0.000 A 
ATOM      4  C   UNL     1      46.463   6.784  13.002  0.00  0.00    +0.000 A 
ATOM      5  C   UNL     1      46.555   5.445  13.389  0.00  0.00    +0.000 A 
ATOM      6  C   UNL     1      45.746   4.470  12.787  0.00  0.00    +0.000 A 
ENDROOT
BRANCH   1   7
ATOM      7  O   UNL     1      44.098   3.796  11.248  0.00  0.00    +0.000 OA
BRANCH   7   8
ATOM      8  C   UNL     1      44.869   2.760  10.626  0.00  0.00    +0.000 C 
BRANCH   8   9
ATOM      9  C   UNL     1      44.454   2.559   9.172  0.00  0.00    +0.000 C 
BRANCH   9  15
ATOM     10  C   UNL     1      46.322   3.117   7.540  0.00  0.00    +0.000 A 
ATOM     11  C   UNL     1      47.400   2.616   6.827  0.00  0.00    +0.000 A 
ATOM     12  N   UNL     1      47.775   1.321   6.825  0.00  0.00    +0.000 NA
ATOM     13  C   UNL     1      47.038   0.505   7.591  0.00  0.00    +0.000 A 
ATOM     14  N   UNL     1      45.994   0.874   8.349  0.00  0.00    +0.000 NA
ATOM     15  C   UNL     1      45.655   2.188   8.332  0.00  0.00    +0.000 A 
BRANCH  10  17
ATOM     16  C   UNL     1      46.464   5.269   8.509  0.00  0.00    +0.000 C 
ATOM     17  O   UNL     1      45.890   4.407   7.525  0.00  0.00    +0.000 OA
ENDBRANCH  10  17
ENDBRANCH   9  15
ENDBRANCH   8   9
ENDBRANCH   7   8
ENDBRANCH   1   7
BRANCH   4  18
ATOM     18  C   UNL     1      47.341   7.853  13.594  0.00  0.00    +0.000 C 
BRANCH  18  19
ATOM     19  N   UNL     1      48.614   7.332  14.021  0.00  0.00    +0.000 N 
ATOM     20  C   UNL     1      49.113   7.642  15.261  0.00  0.00    +0.000 C 
ATOM     21  O   UNL     1      48.465   8.323  16.053  0.00  0.00    +0.000 OA
ATOM     22  H   UNL     1      49.073   6.636  13.447  0.00  0.00    +0.000 HD
BRANCH  20  23
ATOM     23  C   UNL     1      50.482   7.213  15.570  0.00  0.00    +0.000 A 
ATOM     24  C   UNL     1      50.683   6.293  16.591  0.00  0.00    +0.000 A 
ATOM     25  S   UNL     1      52.314   6.140  17.051  0.00  0.00    +0.000 S 
ATOM     26  C   UNL     1      52.800   7.244  15.854  0.00  0.00    +0.000 A 
ATOM     27  N   UNL     1      54.087   7.620  15.774  0.00  0.00    +0.000 NA
ATOM     28  C   UNL     1      54.319   8.444  14.752  0.00  0.00    +0.000 A 
ATOM     29  N   UNL     1      53.448   8.829  13.813  0.00  0.00    +0.000 NA
ATOM     30  C   UNL     1      52.169   8.422  13.931  0.00  0.00    +0.000 A 
ATOM     31  C   UNL     1      51.759   7.650  15.029  0.00  0.00    +0.000 A 
BRANCH  30  32
ATOM     32  O   UNL     1      51.270   8.729  12.928  0.00  0.00    +0.000 OA
ATOM     33  C   UNL     1      51.833   8.666  11.619  0.00  0.00    +0.000 C 
ENDBRANCH  30  32
ENDBRANCH  20  23
ENDBRANCH  18  19
ENDBRANCH   4  18
TORSDOF 9
ENDMDL
MODEL 9
REMARK VINA RESULT:    -5.865      2.917      5.706
REMARK INTER + INTRA:         -10.574
REMARK INTER:                  -8.634
REMARK INTRA:                  -1.939
REMARK UNBOUND:                -1.623
REMARK  Name = 
REMARK  11 active torsions:
REMARK  status: ('A' for Active; 'I' for Inactive)
REMARK    1  A    between atoms: C_1  and  O_2
REMARK    2  A    between atoms: O_2  and  C_3
REMARK    3  A    between atoms: C_8  and  C_9
REMARK    4  A    between atoms: C_9  and  C_10
REMARK    5  A    between atoms: C_10  and  O_11
REMARK    6  A    between atoms: O_11  and  C_12
REMARK    7  A    between atoms: C_15  and  C_16
REMARK    8  A    between atoms: C_16  and  N_17
REMARK    9  A    between atoms: C_18  and  C_20
REMARK   10  A    between atoms: C_27  and  O_28
REMARK   11  A    between atoms: O_28  and  C_29
REMARK                            x       y       z     vdW  Elec       q    Type
REMARK                         _______ _______ _______ _____ _____    ______ ____
ROOT
ATOM      1  C   UNL     1      51.496   2.854  17.727  0.00  0.00    +0.000 A 
ATOM      2  C   UNL     1      50.883   4.057  18.080  0.00  0.00    +0.000 A 
ATOM      3  C   UNL     1      49.533   4.275  17.806  0.00  0.00    +0.000 A 
ATOM      4  C   UNL     1      48.758   3.286  17.189  0.00  0.00    +0.000 A 
ATOM      5  C   UNL     1      49.377   2.091  16.811  0.00  0.00    +0.000 A 
ATOM      6  C   UNL     1      50.736   1.875  17.083  0.00  0.00    +0.000 A 
ENDROOT
BRANCH   1   7
ATOM      7  O   UNL     1      52.811   2.541  17.974  0.00  0.00    +0.000 OA
BRANCH   7   8
ATOM      8  C   UNL     1      53.423   3.263  19.051  0.00  0.00    +0.000 C 
BRANCH   8   9
ATOM      9  C   UNL     1      54.529   4.181  18.542  0.00  0.00    +0.000 C 
BRANCH   9  15
ATOM     10  C   UNL     1      53.664   6.424  17.714  0.00  0.00    +0.000 A 
ATOM     11  C   UNL     1      53.361   7.729  18.067  0.00  0.00    +0.000 A 
ATOM     12  N   UNL     1      53.555   8.249  19.296  0.00  0.00    +0.000 NA
ATOM     13  C   UNL     1      54.060   7.407  20.206  0.00  0.00    +0.000 A 
ATOM     14  N   UNL     1      54.364   6.117  19.996  0.00  0.00    +0.000 NA
ATOM     15  C   UNL     1      54.144   5.628  18.749  0.00  0.00    +0.000 A 
BRANCH  10  17
ATOM     16  C   UNL     1      54.442   6.349  15.482  0.00  0.00    +0.000 C 
ATOM     17  O   UNL     1      53.524   5.883  16.473  0.00  0.00    +0.000 OA
ENDBRANCH  10  17
ENDBRANCH   9  15
ENDBRANCH   8   9
ENDBRANCH   7   8
ENDBRANCH   1   7
BRANCH   4  18
ATOM     18  C   UNL     1      47.294   3.540  16.952  0.00  0.00    +0.000 C 
BRANCH  18  19
ATOM     19  N   UNL     1      47.075   4.582  15.983  0.00  0.00    +0.000 N 
ATOM     20  C   UNL     1      47.088   4.298  14.640  0.00  0.00    +0.000 C 
ATOM     21  O   UNL     1      47.233   3.146  14.237  0.00  0.00    +0.000 OA
ATOM     22  H   UNL     1      46.787   5.496  16.307  0.00  0.00    +0.000 HD
BRANCH  20  23
ATOM     23  C   UNL     1      47.020   5.427  13.706  0.00  0.00    +0.000 A 
ATOM     24  C   UNL     1      45.914   5.544  12.873  0.00  0.00    +0.000 A 
ATOM     25  S   UNL     1      46.120   6.692  11.634  0.00  0.00    +0.000 S 
ATOM     26  C   UNL     1      47.659   7.111  12.219  0.00  0.00    +0.000 A 
ATOM     27  N   UNL     1      48.414   7.992  11.542  0.00  0.00    +0.000 NA
ATOM     28  C   UNL     1      49.567   8.259  12.156  0.00  0.00    +0.000 A 
ATOM     29  N   UNL     1      49.965   7.815  13.353  0.00  0.00    +0.000 NA
ATOM     30  C   UNL     1      49.171   6.937  13.998  0.00  0.00    +0.000 A 
ATOM     31  C   UNL     1      47.984   6.475  13.409  0.00  0.00    +0.000 A 
BRANCH  30  32
ATOM     32  O   UNL     1      49.514   6.533  15.275  0.00  0.00    +0.000 OA
ATOM     33  C   UNL     1      49.906   7.607  16.126  0.00  0.00    +0.000 C 
ENDBRANCH  30  32
ENDBRANCH  20  23
ENDBRANCH  18  19
ENDBRANCH   4  18
TORSDOF 9
ENDMDL
