MODEL 1
REMARK VINA RESULT:    -7.316      0.000      0.000
REMARK INTER + INTRA:         -10.228
REMARK INTER:                  -9.668
REMARK INTRA:                  -0.560
REMARK UNBOUND:                -0.560
REMARK  Name = 
REMARK  7 active torsions:
REMARK  status: ('A' for Active; 'I' for Inactive)
REMARK    1  A    between atoms: C_1  and  C_2
REMARK    2  A    between atoms: C_2  and  C_3
REMARK    3  A    between atoms: C_3  and  N_4
REMARK    4  A    between atoms: C_3  and  C_5
REMARK    5  A    between atoms: C_8  and  C_9
REMARK    6  A    between atoms: C_9  and  N_10
REMARK    7  A    between atoms: N_10  and  C_11
REMARK                            x       y       z     vdW  Elec       q    Type
REMARK                         _______ _______ _______ _____ _____    ______ ____
ROOT
ATOM      1  C   UNL     1      46.386   4.805  13.526  0.00  0.00    +0.000 A 
ATOM      2  C   UNL     1      46.254   5.849  12.610  0.00  0.00    +0.000 A 
ATOM      3  C   UNL     1      45.523   5.639  11.441  0.00  0.00    +0.000 A 
ATOM      4  C   UNL     1      44.943   4.391  11.199  0.00  0.00    +0.000 A 
ATOM      5  C   UNL     1      45.183   3.391  12.135  0.00  0.00    +0.000 A 
ATOM      6  N   UNL     1      45.880   3.570  13.278  0.00  0.00    +0.000 NA
ENDROOT
BRANCH   1   7
ATOM      7  C   UNL     1      47.145   5.032  14.835  0.00  0.00    +0.000 C 
BRANCH   7   8
ATOM      8  N   UNL     1      48.365   5.818  14.600  0.00  0.00    +0.000 NA
ATOM      9  H   UNL     1      49.136   5.333  15.063  0.00  0.00    +0.000 HD
ATOM     10  H   UNL     1      48.283   6.722  15.058  0.00  0.00    +0.000 HD
ENDBRANCH   7   8
BRANCH   7  12
ATOM     11  C   UNL     1      47.207   3.705  17.047  0.00  0.00    +0.000 C 
ATOM     12  C   UNL     1      47.448   3.692  15.543  0.00  0.00    +0.000 C 
ENDBRANCH   7  12
ENDBRANCH   1   7
BRANCH   4  13
ATOM     13  C   UNL     1      44.086   4.133   9.992  0.00  0.00    +0.000 C 
BRANCH  13  14
ATOM     14  N   UNL     1      44.830   4.388   8.770  0.00  0.00    +0.000 N 
ATOM     15  H   UNL     1      44.298   4.907   8.074  0.00  0.00    +0.000 HD
BRANCH  14  16
ATOM     16  C   UNL     1      45.581   3.362   8.185  0.00  0.00    +0.000 A 
ATOM     17  C   UNL     1      45.546   2.026   8.605  0.00  0.00    +0.000 A 
ATOM     18  C   UNL     1      46.358   1.055   8.008  0.00  0.00    +0.000 A 
ATOM     19  C   UNL     1      47.251   1.410   7.002  0.00  0.00    +0.000 A 
ATOM     20  C   UNL     1      47.342   2.740   6.607  0.00  0.00    +0.000 A 
ATOM     21  C   UNL     1      46.521   3.705   7.201  0.00  0.00    +0.000 A 
ENDBRANCH  14  16
ENDBRANCH  13  14
ENDBRANCH   4  13
TORSDOF 6
ENDMDL
MODEL 2
REMARK VINA RESULT:    -7.052      2.154      6.343
REMARK INTER + INTRA:          -9.880
REMARK INTER:                  -9.205
REMARK INTRA:                  -0.675
REMARK UNBOUND:                -0.560
REMARK  Name = 
REMARK  7 active torsions:
REMARK  status: ('A' for Active; 'I' for Inactive)
REMARK    1  A    between atoms: C_1  and  C_2
REMARK    2  A    between atoms: C_2  and  C_3
REMARK    3  A    between atoms: C_3  and  N_4
REMARK    4  A    between atoms: C_3  and  C_5
REMARK    5  A    between atoms: C_8  and  C_9
REMARK    6  A    between atoms: C_9  and  N_10
REMARK    7  A    between atoms: N_10  and  C_11
REMARK                            x       y       z     vdW  Elec       q    Type
REMARK                         _______ _______ _______ _____ _____    ______ ____
ROOT
ATOM      1  C   UNL     1      45.798   2.188   8.088  0.00  0.00    +0.000 A 
ATOM      2  C   UNL     1      45.726   3.547   7.786  0.00  0.00    +0.000 A 
ATOM      3  C   UNL     1      44.962   4.384   8.599  0.00  0.00    +0.000 A 
ATOM      4  C   UNL     1      44.276   3.853   9.694  0.00  0.00    +0.000 A 
ATOM      5  C   UNL     1      44.352   2.477   9.879  0.00  0.00    +0.000 A 
ATOM      6  N   UNL     1      45.090   1.645   9.111  0.00  0.00    +0.000 NA
ENDROOT
BRANCH   1   7
ATOM      7  C   UNL     1      46.668   1.263   7.234  0.00  0.00    +0.000 C 
BRANCH   7   8
ATOM      8  N   UNL     1      46.981   0.024   7.961  0.00  0.00    +0.000 NA
ATOM      9  H   UNL     1      46.246  -0.116   8.656  0.00  0.00    +0.000 HD
ATOM     10  H   UNL     1      47.845   0.143   8.483  0.00  0.00    +0.000 HD
ENDBRANCH   7   8
BRANCH   7  12
ATOM     11  C   UNL     1      47.919   2.396   5.283  0.00  0.00    +0.000 C 
ATOM     12  C   UNL     1      47.945   1.989   6.750  0.00  0.00    +0.000 C 
ENDBRANCH   7  12
ENDBRANCH   1   7
BRANCH   4  13
ATOM     13  C   UNL     1      43.498   4.720  10.643  0.00  0.00    +0.000 C 
BRANCH  13  14
ATOM     14  N   UNL     1      44.244   5.924  10.967  0.00  0.00    +0.000 N 
ATOM     15  H   UNL     1      44.423   6.517  10.160  0.00  0.00    +0.000 HD
BRANCH  14  16
ATOM     16  C   UNL     1      45.361   5.846  11.808  0.00  0.00    +0.000 A 
ATOM     17  C   UNL     1      45.382   5.147  13.021  0.00  0.00    +0.000 A 
ATOM     18  C   UNL     1      46.517   5.146  13.840  0.00  0.00    +0.000 A 
ATOM     19  C   UNL     1      47.643   5.880  13.477  0.00  0.00    +0.000 A 
ATOM     20  C   UNL     1      47.624   6.626  12.304  0.00  0.00    +0.000 A 
ATOM     21  C   UNL     1      46.490   6.615  11.485  0.00  0.00    +0.000 A 
ENDBRANCH  14  16
ENDBRANCH  13  14
ENDBRANCH   4  13
TORSDOF 6
ENDMDL
MODEL 3
REMARK VINA RESULT:    -6.948      1.835      2.587
REMARK INTER + INTRA:          -9.741
REMARK INTER:                  -9.243
REMARK INTRA:                  -0.498
REMARK UNBOUND:                -0.560
REMARK  Name = 
REMARK  7 active torsions:
REMARK  status: ('A' for Active; 'I' for Inactive)
REMARK    1  A    between atoms: C_1  and  C_2
REMARK    2  A    between atoms: C_2  and  C_3
REMARK    3  A    between atoms: C_3  and  N_4
REMARK    4  A    between atoms: C_3  and  C_5
REMARK    5  A    between atoms: C_8  and  C_9
REMARK    6  A    between atoms: C_9  and  N_10
REMARK    7  A    between atoms: N_10  and  C_11
REMARK                            x       y       z     vdW  Elec       q    Type
REMARK                         _______ _______ _______ _____ _____    ______ ____
ROOT
ATOM      1  C   UNL     1      46.426   5.765  12.576  0.00  0.00    +0.000 A 
ATOM      2  C   UNL     1      46.080   4.500  13.051  0.00  0.00    +0.000 A 
ATOM      3  C   UNL     1      45.317   3.656  12.243  0.00  0.00    +0.000 A 
ATOM      4  C   UNL     1      44.905   4.089  10.981  0.00  0.00    +0.000 A 
ATOM      5  C   UNL     1      45.240   5.389  10.618  0.00  0.00    +0.000 A 
ATOM      6  N   UNL     1      45.983   6.223  11.378  0.00  0.00    +0.000 NA
ENDROOT
BRANCH   1   7
ATOM      7  C   UNL     1      47.301   6.685  13.430  0.00  0.00    +0.000 C 
BRANCH   7   8
ATOM      8  N   UNL     1      46.659   7.996  13.608  0.00  0.00    +0.000 NA
ATOM      9  H   UNL     1      47.285   8.568  14.177  0.00  0.00    +0.000 HD
ATOM     10  H   UNL     1      45.805   7.888  14.148  0.00  0.00    +0.000 HD
ENDBRANCH   7   8
BRANCH   7  12
ATOM     11  C   UNL     1      49.710   7.560  13.722  0.00  0.00    +0.000 C 
ATOM     12  C   UNL     1      48.722   6.813  12.835  0.00  0.00    +0.000 C 
ENDBRANCH   7  12
ENDBRANCH   1   7
BRANCH   4  13
ATOM     13  C   UNL     1      44.144   3.195  10.043  0.00  0.00    +0.000 C 
BRANCH  13  14
ATOM     14  N   UNL     1      44.980   2.096   9.589  0.00  0.00    +0.000 N 
ATOM     15  H   UNL     1      45.510   1.657  10.339  0.00  0.00    +0.000 HD
BRANCH  14  16
ATOM     16  C   UNL     1      45.749   2.240   8.429  0.00  0.00    +0.000 A 
ATOM     17  C   UNL     1      45.715   3.367   7.599  0.00  0.00    +0.000 A 
ATOM     18  C   UNL     1      46.475   3.430   6.425  0.00  0.00    +0.000 A 
ATOM     19  C   UNL     1      47.258   2.346   6.039  0.00  0.00    +0.000 A 
ATOM     20  C   UNL     1      47.264   1.195   6.819  0.00  0.00    +0.000 A 
ATOM     21  C   UNL     1      46.510   1.142   7.996  0.00  0.00    +0.000 A 
ENDBRANCH  14  16
ENDBRANCH  13  14
ENDBRANCH   4  13
TORSDOF 6
ENDMDL
MODEL 4
REMARK VINA RESULT:    -6.859      1.552      2.057
REMARK INTER + INTRA:          -9.624
REMARK INTER:                  -8.997
REMARK INTRA:                  -0.627
REMARK UNBOUND:                -0.560
REMARK  Name = 
REMARK  7 active torsions:
REMARK  status: ('A' for Active; 'I' for Inactive)
REMARK    1  A    between atoms: C_1  and  C_2
REMARK    2  A    between atoms: C_2  and  C_3
REMARK    3  A    between atoms: C_3  and  N_4
REMARK    4  A    between atoms: C_3  and  C_5
REMARK    5  A    between atoms: C_8  and  C_9
REMARK    6  A    between atoms: C_9  and  N_10
REMARK    7  A    between atoms: N_10  and  C_11
REMARK                            x       y       z     vdW  Elec       q    Type
REMARK                         _______ _______ _______ _____ _____    ______ ____
ROOT
ATOM      1  C   UNL     1      46.815   5.946  12.837  0.00  0.00    +0.000 A 
ATOM      2  C   UNL     1      46.703   6.448  11.540  0.00  0.00    +0.000 A 
ATOM      3  C   UNL     1      45.729   5.923  10.690  0.00  0.00    +0.000 A 
ATOM      4  C   UNL     1      44.890   4.902  11.141  0.00  0.00    +0.000 A 
ATOM      5  C   UNL     1      45.118   4.418  12.425  0.00  0.00    +0.000 A 
ATOM      6  N   UNL     1      46.048   4.914  13.271  0.00  0.00    +0.000 NA
ENDROOT
BRANCH   1   7
ATOM      7  C   UNL     1      47.846   6.542  13.797  0.00  0.00    +0.000 C 
BRANCH   7   8
ATOM      8  N   UNL     1      47.870   5.795  15.064  0.00  0.00    +0.000 NA
ATOM      9  H   UNL     1      48.387   4.929  14.898  0.00  0.00    +0.000 HD
ATOM     10  H   UNL     1      46.926   5.516  15.314  0.00  0.00    +0.000 HD
ENDBRANCH   7   8
BRANCH   7  12
ATOM     11  C   UNL     1      48.815   8.933  13.796  0.00  0.00    +0.000 C 
ATOM     12  C   UNL     1      47.594   8.051  14.021  0.00  0.00    +0.000 C 
ENDBRANCH   7  12
ENDBRANCH   1   7
BRANCH   4  13
ATOM     13  C   UNL     1      43.779   4.352  10.292  0.00  0.00    +0.000 C 
BRANCH  13  14
ATOM     14  N   UNL     1      44.140   4.392   8.885  0.00  0.00    +0.000 N 
ATOM     15  H   UNL     1      43.342   4.524   8.268  0.00  0.00    +0.000 HD
BRANCH  14  16
ATOM     16  C   UNL     1      45.041   3.452   8.371  0.00  0.00    +0.000 A 
ATOM     17  C   UNL     1      45.117   2.121   8.799  0.00  0.00    +0.000 A 
ATOM     18  C   UNL     1      46.072   1.242   8.277  0.00  0.00    +0.000 A 
ATOM     19  C   UNL     1      46.998   1.691   7.340  0.00  0.00    +0.000 A 
ATOM     20  C   UNL     1      46.977   3.023   6.941  0.00  0.00    +0.000 A 
ATOM     21  C   UNL     1      46.013   3.894   7.459  0.00  0.00    +0.000 A 
ENDBRANCH  14  16
ENDBRANCH  13  14
ENDBRANCH   4  13
TORSDOF 6
ENDMDL
MODEL 5
REMARK VINA RESULT:    -6.378      2.480      3.560
REMARK INTER + INTRA:          -8.989
REMARK INTER:                  -8.388
REMARK INTRA:                  -0.601
REMARK UNBOUND:                -0.560
REMARK  Name = 
REMARK  7 active torsions:
REMARK  status: ('A' for Active; 'I' for Inactive)
REMARK    1  A    between atoms: C_1  and  C_2
REMARK    2  A    between atoms: C_2  and  C_3
REMARK    3  A    between atoms: C_3  and  N_4
REMARK    4  A    between atoms: C_3  and  C_5
REMARK    5  A    between atoms: C_8  and  C_9
REMARK    6  A    between atoms: C_9  and  N_10
REMARK    7  A    between atoms: N_10  and  C_11
REMARK                            x       y       z     vdW  Elec       q    Type
REMARK                         _______ _______ _______ _____ _____    ______ ____
ROOT
ATOM      1  C   UNL     1      45.453   7.445  11.857  0.00  0.00    +0.000 A 
ATOM      2  C   UNL     1      44.128   7.193  11.501  0.00  0.00    +0.000 A 
ATOM      3  C   UNL     1      43.766   5.908  11.097  0.00  0.00    +0.000 A 
ATOM      4  C   UNL     1      44.730   4.898  11.045  0.00  0.00    +0.000 A 
ATOM      5  C   UNL     1      46.037   5.257  11.353  0.00  0.00    +0.000 A 
ATOM      6  N   UNL     1      46.413   6.491  11.754  0.00  0.00    +0.000 NA
ENDROOT
BRANCH   1   7
ATOM      7  C   UNL     1      45.858   8.836  12.347  0.00  0.00    +0.000 C 
BRANCH   7   8
ATOM      8  N   UNL     1      46.330   8.781  13.739  0.00  0.00    +0.000 NA
ATOM      9  H   UNL     1      45.755   9.427  14.282  0.00  0.00    +0.000 HD
ATOM     10  H   UNL     1      47.281   9.137  13.792  0.00  0.00    +0.000 HD
ENDBRANCH   7   8
BRANCH   7  12
ATOM     11  C   UNL     1      44.891  10.817  11.006  0.00  0.00    +0.000 C 
ATOM     12  C   UNL     1      44.704   9.849  12.168  0.00  0.00    +0.000 C 
ENDBRANCH   7  12
ENDBRANCH   1   7
BRANCH   4  13
ATOM     13  C   UNL     1      44.379   3.482  10.686  0.00  0.00    +0.000 C 
BRANCH  13  14
ATOM     14  N   UNL     1      44.173   3.351   9.253  0.00  0.00    +0.000 N 
ATOM     15  H   UNL     1      43.265   2.961   9.011  0.00  0.00    +0.000 HD
BRANCH  14  16
ATOM     16  C   UNL     1      45.192   2.826   8.449  0.00  0.00    +0.000 A 
ATOM     17  C   UNL     1      45.686   1.521   8.560  0.00  0.00    +0.000 A 
ATOM     18  C   UNL     1      46.738   1.070   7.755  0.00  0.00    +0.000 A 
ATOM     19  C   UNL     1      47.344   1.933   6.847  0.00  0.00    +0.000 A 
ATOM     20  C   UNL     1      46.907   3.250   6.759  0.00  0.00    +0.000 A 
ATOM     21  C   UNL     1      45.848   3.691   7.559  0.00  0.00    +0.000 A 
ENDBRANCH  14  16
ENDBRANCH  13  14
ENDBRANCH   4  13
TORSDOF 6
ENDMDL
MODEL 6
REMARK VINA RESULT:    -6.155      2.364      6.618
REMARK INTER + INTRA:          -8.694
REMARK INTER:                  -8.101
REMARK INTRA:                  -0.593
REMARK UNBOUND:                -0.560
REMARK  Name = 
REMARK  7 active torsions:
REMARK  status: ('A' for Active; 'I' for Inactive)
REMARK    1  A    between atoms: C_1  and  C_2
REMARK    2  A    between atoms: C_2  and  C_3
REMARK    3  A    between atoms: C_3  and  N_4
REMARK    4  A    between atoms: C_3  and  C_5
REMARK    5  A    between atoms: C_8  and  C_9
REMARK    6  A    between atoms: C_9  and  N_10
REMARK    7  A    between atoms: N_10  and  C_11
REMARK                            x       y       z     vdW  Elec       q    Type
REMARK                         _______ _______ _______ _____ _____    ______ ____
ROOT
ATOM      1  C   UNL     1      45.320   3.362   9.167  0.00  0.00    +0.000 A 
ATOM      2  C   UNL     1      45.565   4.735   9.155  0.00  0.00    +0.000 A 
ATOM      3  C   UNL     1      45.225   5.496  10.273  0.00  0.00    +0.000 A 
ATOM      4  C   UNL     1      44.638   4.879  11.381  0.00  0.00    +0.000 A 
ATOM      5  C   UNL     1      44.370   3.519  11.278  0.00  0.00    +0.000 A 
ATOM      6  N   UNL     1      44.696   2.757  10.210  0.00  0.00    +0.000 NA
ENDROOT
BRANCH   1   7
ATOM      7  C   UNL     1      45.729   2.504   7.968  0.00  0.00    +0.000 C 
BRANCH   7   8
ATOM      8  N   UNL     1      46.142   1.162   8.404  0.00  0.00    +0.000 NA
ATOM      9  H   UNL     1      45.882   1.067   9.388  0.00  0.00    +0.000 HD
ATOM     10  H   UNL     1      47.155   1.088   8.370  0.00  0.00    +0.000 HD
ENDBRANCH   7   8
BRANCH   7  12
ATOM     11  C   UNL     1      46.809   2.847   5.650  0.00  0.00    +0.000 C 
ATOM     12  C   UNL     1      46.825   3.203   7.131  0.00  0.00    +0.000 C 
ENDBRANCH   7  12
ENDBRANCH   1   7
BRANCH   4  13
ATOM     13  C   UNL     1      44.318   5.639  12.637  0.00  0.00    +0.000 C 
BRANCH  13  14
ATOM     14  N   UNL     1      45.537   6.016  13.334  0.00  0.00    +0.000 N 
ATOM     15  H   UNL     1      45.467   5.927  14.345  0.00  0.00    +0.000 HD
BRANCH  14  16
ATOM     16  C   UNL     1      46.217   7.182  12.964  0.00  0.00    +0.000 A 
ATOM     17  C   UNL     1      45.599   8.425  12.775  0.00  0.00    +0.000 A 
ATOM     18  C   UNL     1      46.330   9.544  12.360  0.00  0.00    +0.000 A 
ATOM     19  C   UNL     1      47.690   9.431  12.088  0.00  0.00    +0.000 A 
ATOM     20  C   UNL     1      48.313   8.195  12.216  0.00  0.00    +0.000 A 
ATOM     21  C   UNL     1      47.579   7.082  12.641  0.00  0.00    +0.000 A 
ENDBRANCH  14  16
ENDBRANCH  13  14
ENDBRANCH   4  13
TORSDOF 6
ENDMDL
MODEL 7
REMARK VINA RESULT:    -6.091      1.368      2.035
REMARK INTER + INTRA:          -8.609
REMARK INTER:                  -8.107
REMARK INTRA:                  -0.502
REMARK UNBOUND:                -0.560
REMARK  Name = 
REMARK  7 active torsions:
REMARK  status: ('A' for Active; 'I' for Inactive)
REMARK    1  A    between atoms: C_1  and  C_2
REMARK    2  A    between atoms: C_2  and  C_3
REMARK    3  A    between atoms: C_3  and  N_4
REMARK    4  A    between atoms: C_3  and  C_5
REMARK    5  A    between atoms: C_8  and  C_9
REMARK    6  A    between atoms: C_9  and  N_10
REMARK    7  A    between atoms: N_10  and  C_11
REMARK                            x       y       z     vdW  Elec       q    Type
REMARK                         _______ _______ _______ _____ _____    ______ ____
ROOT
ATOM      1  C   UNL     1      47.491   5.154  15.000  0.00  0.00    +0.000 A 
ATOM      2  C   UNL     1      47.899   6.297  14.312  0.00  0.00    +0.000 A 
ATOM      3  C   UNL     1      47.284   6.616  13.101  0.00  0.00    +0.000 A 
ATOM      4  C   UNL     1      46.281   5.788  12.592  0.00  0.00    +0.000 A 
ATOM      5  C   UNL     1      45.987   4.636  13.312  0.00  0.00    +0.000 A 
ATOM      6  N   UNL     1      46.561   4.307  14.490  0.00  0.00    +0.000 NA
ENDROOT
BRANCH   1   7
ATOM      7  C   UNL     1      48.122   4.814  16.352  0.00  0.00    +0.000 C 
BRANCH   7   8
ATOM      8  N   UNL     1      49.465   5.403  16.463  0.00  0.00    +0.000 NA
ATOM      9  H   UNL     1      50.126   4.733  16.065  0.00  0.00    +0.000 HD
ATOM     10  H   UNL     1      49.716   5.500  17.443  0.00  0.00    +0.000 HD
ENDBRANCH   7   8
BRANCH   7  12
ATOM     11  C   UNL     1      47.269   2.820  17.751  0.00  0.00    +0.000 C 
ATOM     12  C   UNL     1      48.139   3.286  16.591  0.00  0.00    +0.000 C 
ENDBRANCH   7  12
ENDBRANCH   1   7
BRANCH   4  13
ATOM     13  C   UNL     1      45.537   6.123  11.330  0.00  0.00    +0.000 C 
BRANCH  13  14
ATOM     14  N   UNL     1      44.636   5.044  10.963  0.00  0.00    +0.000 N 
ATOM     15  H   UNL     1      44.256   4.545  11.765  0.00  0.00    +0.000 HD
BRANCH  14  16
ATOM     16  C   UNL     1      44.985   4.168   9.928  0.00  0.00    +0.000 A 
ATOM     17  C   UNL     1      44.850   2.776  10.000  0.00  0.00    +0.000 A 
ATOM     18  C   UNL     1      45.260   1.951   8.947  0.00  0.00    +0.000 A 
ATOM     19  C   UNL     1      45.852   2.502   7.814  0.00  0.00    +0.000 A 
ATOM     20  C   UNL     1      46.047   3.877   7.745  0.00  0.00    +0.000 A 
ATOM     21  C   UNL     1      45.625   4.697   8.797  0.00  0.00    +0.000 A 
ENDBRANCH  14  16
ENDBRANCH  13  14
ENDBRANCH   4  13
TORSDOF 6
ENDMDL
MODEL 8
REMARK VINA RESULT:    -5.934      2.021      7.406
REMARK INTER + INTRA:          -8.401
REMARK INTER:                  -7.898
REMARK INTRA:                  -0.503
REMARK UNBOUND:                -0.560
REMARK  Name = 
REMARK  7 active torsions:
REMARK  status: ('A' for Active; 'I' for Inactive)
REMARK    1  A    between atoms: C_1  and  C_2
REMARK    2  A    between atoms: C_2  and  C_3
REMARK    3  A    between atoms: C_3  and  N_4
REMARK    4  A    between atoms: C_3  and  C_5
REMARK    5  A    between atoms: C_8  and  C_9
REMARK    6  A    between atoms: C_9  and  N_10
REMARK    7  A    between atoms: N_10  and  C_11
REMARK                            x       y       z     vdW  Elec       q    Type
REMARK                         _______ _______ _______ _____ _____    ______ ____
ROOT
ATOM      1  C   UNL     1      44.881   3.963  11.739  0.00  0.00    +0.000 A 
ATOM      2  C   UNL     1      45.104   5.330  11.572  0.00  0.00    +0.000 A 
ATOM      3  C   UNL     1      46.021   5.975  12.402  0.00  0.00    +0.000 A 
ATOM      4  C   UNL     1      46.694   5.251  13.389  0.00  0.00    +0.000 A 
ATOM      5  C   UNL     1      46.359   3.909  13.527  0.00  0.00    +0.000 A 
ATOM      6  N   UNL     1      45.481   3.258  12.732  0.00  0.00    +0.000 NA
ENDROOT
BRANCH   1   7
ATOM      7  C   UNL     1      43.913   3.230  10.808  0.00  0.00    +0.000 C 
BRANCH   7   8
ATOM      8  N   UNL     1      43.063   2.301  11.568  0.00  0.00    +0.000 NA
ATOM      9  H   UNL     1      43.575   1.421  11.655  0.00  0.00    +0.000 HD
ATOM     10  H   UNL     1      42.226   2.089  11.032  0.00  0.00    +0.000 HD
ENDBRANCH   7   8
BRANCH   7  12
ATOM     11  C   UNL     1      44.778   3.329   8.379  0.00  0.00    +0.000 C 
ATOM     12  C   UNL     1      44.671   2.518   9.664  0.00  0.00    +0.000 C 
ENDBRANCH   7  12
ENDBRANCH   1   7
BRANCH   4  13
ATOM     13  C   UNL     1      47.743   5.881  14.261  0.00  0.00    +0.000 C 
BRANCH  13  14
ATOM     14  N   UNL     1      47.512   5.558  15.658  0.00  0.00    +0.000 N 
ATOM     15  H   UNL     1      46.957   6.258  16.147  0.00  0.00    +0.000 HD
BRANCH  14  16
ATOM     16  C   UNL     1      48.568   5.091  16.449  0.00  0.00    +0.000 A 
ATOM     17  C   UNL     1      49.761   5.793  16.660  0.00  0.00    +0.000 A 
ATOM     18  C   UNL     1      50.799   5.250  17.425  0.00  0.00    +0.000 A 
ATOM     19  C   UNL     1      50.678   3.973  17.964  0.00  0.00    +0.000 A 
ATOM     20  C   UNL     1      49.524   3.235  17.722  0.00  0.00    +0.000 A 
ATOM     21  C   UNL     1      48.486   3.787  16.964  0.00  0.00    +0.000 A 
ENDBRANCH  14  16
ENDBRANCH  13  14
ENDBRANCH   4  13
TORSDOF 6
ENDMDL
MODEL 9
REMARK VINA RESULT:    -5.529      3.125      6.665
REMARK INTER + INTRA:          -7.867
REMARK INTER:                  -7.327
REMARK INTRA:                  -0.540
REMARK UNBOUND:                -0.560
REMARK  Name = 
REMARK  7 active torsions:
REMARK  status: ('A' for Active; 'I' for Inactive)
REMARK    1  A    between atoms: C_1  and  C_2
REMARK    2  A    between atoms: C_2  and  C_3
REMARK    3  A    between atoms: C_3  and  N_4
REMARK    4  A    between atoms: C_3  and  C_5
REMARK    5  A    between atoms: C_8  and  C_9
REMARK    6  A    between atoms: C_9  and  N_10
REMARK    7  A    between atoms: N_10  and  C_11
REMARK                            x       y       z     vdW  Elec       q    Type
REMARK                         _______ _______ _______ _____ _____    ______ ____
ROOT
ATOM      1  C   UNL     1      44.897   3.989  11.585  0.00  0.00    +0.000 A 
ATOM      2  C   UNL     1      45.177   5.290  11.168  0.00  0.00    +0.000 A 
ATOM      3  C   UNL     1      46.096   6.052  11.890  0.00  0.00    +0.000 A 
ATOM      4  C   UNL     1      46.714   5.509  13.019  0.00  0.00    +0.000 A 
ATOM      5  C   UNL     1      46.323   4.230  13.398  0.00  0.00    +0.000 A 
ATOM      6  N   UNL     1      45.442   3.468  12.713  0.00  0.00    +0.000 NA
ENDROOT
BRANCH   1   7
ATOM      7  C   UNL     1      43.926   3.124  10.778  0.00  0.00    +0.000 C 
BRANCH   7   8
ATOM      8  N   UNL     1      43.201   2.196  11.659  0.00  0.00    +0.000 NA
ATOM      9  H   UNL     1      42.977   2.702  12.518  0.00  0.00    +0.000 HD
ATOM     10  H   UNL     1      43.815   1.433  11.932  0.00  0.00    +0.000 HD
ENDBRANCH   7   8
BRANCH   7  12
ATOM     11  C   UNL     1      44.747   3.169   8.333  0.00  0.00    +0.000 C 
ATOM     12  C   UNL     1      44.657   2.384   9.634  0.00  0.00    +0.000 C 
ENDBRANCH   7  12
ENDBRANCH   1   7
BRANCH   4  13
ATOM     13  C   UNL     1      47.763   6.259  13.790  0.00  0.00    +0.000 C 
BRANCH  13  14
ATOM     14  N   UNL     1      48.989   6.366  13.018  0.00  0.00    +0.000 N 
ATOM     15  H   UNL     1      49.711   5.711  13.314  0.00  0.00    +0.000 HD
BRANCH  14  16
ATOM     16  C   UNL     1      49.523   7.627  12.730  0.00  0.00    +0.000 A 
ATOM     17  C   UNL     1      50.586   8.208  13.432  0.00  0.00    +0.000 A 
ATOM     18  C   UNL     1      51.044   9.494  13.125  0.00  0.00    +0.000 A 
ATOM     19  C   UNL     1      50.420  10.241  12.130  0.00  0.00    +0.000 A 
ATOM     20  C   UNL     1      49.327   9.705  11.457  0.00  0.00    +0.000 A 
ATOM     21  C   UNL     1      48.881   8.416  11.763  0.00  0.00    +0.000 A 
ENDBRANCH  14  16
ENDBRANCH  13  14
ENDBRANCH   4  13
TORSDOF 6
ENDMDL
