MODEL 1
REMARK VINA RESULT:    -7.540      0.000      0.000
REMARK INTER + INTRA:         -10.294
REMARK INTER:                  -9.744
REMARK INTRA:                  -0.550
REMARK UNBOUND:                -0.550
REMARK  Name = 
REMARK  6 active torsions:
REMARK  status: ('A' for Active; 'I' for Inactive)
REMARK    1  A    between atoms: C_1  and  C_2
REMARK    2  A    between atoms: C_2  and  C_3
REMARK    3  A    between atoms: C_2  and  C_14
REMARK    4  A    between atoms: C_3  and  N_4
REMARK    5  A    between atoms: N_4  and  C_5
REMARK    6  A    between atoms: C_8  and  C_9
REMARK                            x       y       z     vdW  Elec       q    Type
REMARK                         _______ _______ _______ _____ _____    ______ ____
ROOT
ATOM      1  N   UNL     1      43.911   4.990   9.853  0.00  0.00    +0.000 N 
ATOM      2  H   UNL     1      43.049   5.250   9.380  0.00  0.00    +0.000 HD
ENDROOT
BRANCH   1   3
ATOM      3  C   UNL     1      44.625   3.986   9.197  0.00  0.00    +0.000 A 
ATOM      4  C   UNL     1      44.528   2.622   9.442  0.00  0.00    +0.000 A 
ATOM      5  N   UNL     1      45.289   1.664   8.861  0.00  0.00    +0.000 NA
ATOM      6  C   UNL     1      46.228   2.116   8.001  0.00  0.00    +0.000 A 
ATOM      7  N   UNL     1      46.445   3.406   7.688  0.00  0.00    +0.000 NA
ATOM      8  C   UNL     1      45.640   4.299   8.305  0.00  0.00    +0.000 A 
BRANCH   6   9
ATOM      9  C   UNL     1      47.109   1.069   7.355  0.00  0.00    +0.000 C 
ATOM     10  N   UNL     1      46.814  -0.237   7.665  0.00  0.00    +0.000 N 
ATOM     11  O   UNL     1      48.040   1.329   6.598  0.00  0.00    +0.000 OA
ATOM     12  H   UNL     1      46.051  -0.451   8.298  0.00  0.00    +0.000 HD
ATOM     13  H   UNL     1      47.374  -0.974   7.269  0.00  0.00    +0.000 HD
ENDBRANCH   6   9
ENDBRANCH   1   3
BRANCH   1  14
ATOM     14  C   UNL     1      43.829   4.989  11.304  0.00  0.00    +0.000 C 
BRANCH  14  16
ATOM     15  C   UNL     1      45.638   3.942  12.843  0.00  0.00    +0.000 C 
ATOM     16  C   UNL     1      45.205   5.031  11.906  0.00  0.00    +0.000 C 
BRANCH  16  17
ATOM     17  C   UNL     1      45.824   6.364  12.056  0.00  0.00    +0.000 A 
ATOM     18  C   UNL     1      45.061   7.471  12.458  0.00  0.00    +0.000 A 
ATOM     19  C   UNL     1      45.639   8.736  12.578  0.00  0.00    +0.000 A 
ATOM     20  C   UNL     1      46.993   8.909  12.303  0.00  0.00    +0.000 A 
ATOM     21  C   UNL     1      47.760   7.816  11.907  0.00  0.00    +0.000 A 
ATOM     22 CL   UNL     1      49.435   8.028  11.570  0.00  0.00    +0.000 Cl
ATOM     23  C   UNL     1      47.185   6.550  11.779  0.00  0.00    +0.000 A 
ENDBRANCH  16  17
ENDBRANCH  14  16
ENDBRANCH   1  14
TORSDOF 5
ENDMDL
MODEL 2
REMARK VINA RESULT:    -7.533      1.213      1.600
REMARK INTER + INTRA:         -10.285
REMARK INTER:                  -9.798
REMARK INTRA:                  -0.486
REMARK UNBOUND:                -0.550
REMARK  Name = 
REMARK  6 active torsions:
REMARK  status: ('A' for Active; 'I' for Inactive)
REMARK    1  A    between atoms: C_1  and  C_2
REMARK    2  A    between atoms: C_2  and  C_3
REMARK    3  A    between atoms: C_2  and  C_14
REMARK    4  A    between atoms: C_3  and  N_4
REMARK    5  A    between atoms: N_4  and  C_5
REMARK    6  A    between atoms: C_8  and  C_9
REMARK                            x       y       z     vdW  Elec       q    Type
REMARK                         _______ _______ _______ _____ _____    ______ ____
ROOT
ATOM      1  N   UNL     1      43.788   4.905   9.816  0.00  0.00    +0.000 N 
ATOM      2  H   UNL     1      42.888   5.085   9.378  0.00  0.00    +0.000 HD
ENDROOT
BRANCH   1   3
ATOM      3  C   UNL     1      44.530   3.911   9.177  0.00  0.00    +0.000 A 
ATOM      4  C   UNL     1      44.471   2.549   9.445  0.00  0.00    +0.000 A 
ATOM      5  N   UNL     1      45.259   1.602   8.880  0.00  0.00    +0.000 NA
ATOM      6  C   UNL     1      46.185   2.066   8.012  0.00  0.00    +0.000 A 
ATOM      7  N   UNL     1      46.366   3.356   7.677  0.00  0.00    +0.000 NA
ATOM      8  C   UNL     1      45.537   4.237   8.280  0.00  0.00    +0.000 A 
BRANCH   6   9
ATOM      9  C   UNL     1      47.095   1.033   7.384  0.00  0.00    +0.000 C 
ATOM     10  N   UNL     1      46.794  -0.279   7.661  0.00  0.00    +0.000 N 
ATOM     11  O   UNL     1      48.053   1.309   6.667  0.00  0.00    +0.000 OA
ATOM     12  H   UNL     1      46.009  -0.506   8.261  0.00  0.00    +0.000 HD
ATOM     13  H   UNL     1      47.373  -1.007   7.275  0.00  0.00    +0.000 HD
ENDBRANCH   6   9
ENDBRANCH   1   3
BRANCH   1  14
ATOM     14  C   UNL     1      43.782   4.983  11.267  0.00  0.00    +0.000 C 
BRANCH  14  16
ATOM     15  C   UNL     1      45.685   3.943  12.693  0.00  0.00    +0.000 C 
ATOM     16  C   UNL     1      45.188   5.037  11.794  0.00  0.00    +0.000 C 
BRANCH  16  17
ATOM     17  C   UNL     1      45.797   6.376  11.927  0.00  0.00    +0.000 A 
ATOM     18  C   UNL     1      47.183   6.524  12.088  0.00  0.00    +0.000 A 
ATOM     19  C   UNL     1      47.758   7.788  12.237  0.00  0.00    +0.000 A 
ATOM     20  C   UNL     1      46.951   8.923  12.221  0.00  0.00    +0.000 A 
ATOM     21  C   UNL     1      45.575   8.787  12.058  0.00  0.00    +0.000 A 
ATOM     22 CL   UNL     1      44.578  10.190  12.035  0.00  0.00    +0.000 Cl
ATOM     23  C   UNL     1      44.995   7.525  11.916  0.00  0.00    +0.000 A 
ENDBRANCH  16  17
ENDBRANCH  14  16
ENDBRANCH   1  14
TORSDOF 5
ENDMDL
MODEL 3
REMARK VINA RESULT:    -7.448      1.567      2.132
REMARK INTER + INTRA:         -10.175
REMARK INTER:                  -9.709
REMARK INTRA:                  -0.467
REMARK UNBOUND:                -0.550
REMARK  Name = 
REMARK  6 active torsions:
REMARK  status: ('A' for Active; 'I' for Inactive)
REMARK    1  A    between atoms: C_1  and  C_2
REMARK    2  A    between atoms: C_2  and  C_3
REMARK    3  A    between atoms: C_2  and  C_14
REMARK    4  A    between atoms: C_3  and  N_4
REMARK    5  A    between atoms: N_4  and  C_5
REMARK    6  A    between atoms: C_8  and  C_9
REMARK                            x       y       z     vdW  Elec       q    Type
REMARK                         _______ _______ _______ _____ _____    ______ ____
ROOT
ATOM      1  N   UNL     1      43.847   3.678  10.460  0.00  0.00    +0.000 N 
ATOM      2  H   UNL     1      42.858   3.569  10.249  0.00  0.00    +0.000 HD
ENDROOT
BRANCH   1   3
ATOM      3  C   UNL     1      44.686   3.306   9.410  0.00  0.00    +0.000 A 
ATOM      4  C   UNL     1      45.208   2.037   9.192  0.00  0.00    +0.000 A 
ATOM      5  N   UNL     1      46.091   1.707   8.219  0.00  0.00    +0.000 NA
ATOM      6  C   UNL     1      46.495   2.732   7.436  0.00  0.00    +0.000 A 
ATOM      7  N   UNL     1      46.088   4.009   7.547  0.00  0.00    +0.000 NA
ATOM      8  C   UNL     1      45.203   4.254   8.539  0.00  0.00    +0.000 A 
BRANCH   6   9
ATOM      9  C   UNL     1      47.500   2.396   6.355  0.00  0.00    +0.000 C 
ATOM     10  N   UNL     1      47.379   3.104   5.183  0.00  0.00    +0.000 N 
ATOM     11  O   UNL     1      48.381   1.550   6.478  0.00  0.00    +0.000 OA
ATOM     12  H   UNL     1      46.644   3.796   5.079  0.00  0.00    +0.000 HD
ATOM     13  H   UNL     1      48.017   2.915   4.427  0.00  0.00    +0.000 HD
ENDBRANCH   6   9
ENDBRANCH   1   3
BRANCH   1  14
ATOM     14  C   UNL     1      44.213   3.352  11.828  0.00  0.00    +0.000 C 
BRANCH  14  16
ATOM     15  C   UNL     1      42.720   5.215  12.848  0.00  0.00    +0.000 C 
ATOM     16  C   UNL     1      44.062   4.559  12.712  0.00  0.00    +0.000 C 
BRANCH  16  17
ATOM     17  C   UNL     1      45.266   5.390  12.912  0.00  0.00    +0.000 A 
ATOM     18  C   UNL     1      46.407   4.866  13.537  0.00  0.00    +0.000 A 
ATOM     19  C   UNL     1      47.539   5.657  13.748  0.00  0.00    +0.000 A 
ATOM     20  C   UNL     1      47.544   6.986  13.329  0.00  0.00    +0.000 A 
ATOM     21  C   UNL     1      46.416   7.515  12.705  0.00  0.00    +0.000 A 
ATOM     22 CL   UNL     1      46.423   9.155  12.185  0.00  0.00    +0.000 Cl
ATOM     23  C   UNL     1      45.281   6.729  12.498  0.00  0.00    +0.000 A 
ENDBRANCH  16  17
ENDBRANCH  14  16
ENDBRANCH   1  14
TORSDOF 5
ENDMDL
MODEL 4
REMARK VINA RESULT:    -7.403      1.877      2.508
REMARK INTER + INTRA:         -10.116
REMARK INTER:                  -9.573
REMARK INTRA:                  -0.544
REMARK UNBOUND:                -0.550
REMARK  Name = 
REMARK  6 active torsions:
REMARK  status: ('A' for Active; 'I' for Inactive)
REMARK    1  A    between atoms: C_1  and  C_2
REMARK    2  A    between atoms: C_2  and  C_3
REMARK    3  A    between atoms: C_2  and  C_14
REMARK    4  A    between atoms: C_3  and  N_4
REMARK    5  A    between atoms: N_4  and  C_5
REMARK    6  A    between atoms: C_8  and  C_9
REMARK                            x       y       z     vdW  Elec       q    Type
REMARK                         _______ _______ _______ _____ _____    ______ ____
ROOT
ATOM      1  N   UNL     1      43.739   4.779   9.883  0.00  0.00    +0.000 N 
ATOM      2  H   UNL     1      42.877   4.250   9.999  0.00  0.00    +0.000 HD
ENDROOT
BRANCH   1   3
ATOM      3  C   UNL     1      44.728   4.088   9.184  0.00  0.00    +0.000 A 
ATOM      4  C   UNL     1      45.617   4.638   8.269  0.00  0.00    +0.000 A 
ATOM      5  N   UNL     1      46.515   3.942   7.531  0.00  0.00    +0.000 NA
ATOM      6  C   UNL     1      46.491   2.603   7.706  0.00  0.00    +0.000 A 
ATOM      7  N   UNL     1      45.672   1.937   8.540  0.00  0.00    +0.000 NA
ATOM      8  C   UNL     1      44.810   2.704   9.244  0.00  0.00    +0.000 A 
BRANCH   6   9
ATOM      9  C   UNL     1      47.469   1.798   6.876  0.00  0.00    +0.000 C 
ATOM     10  N   UNL     1      48.588   2.471   6.448  0.00  0.00    +0.000 N 
ATOM     11  O   UNL     1      47.306   0.618   6.580  0.00  0.00    +0.000 OA
ATOM     12  H   UNL     1      48.717   3.449   6.685  0.00  0.00    +0.000 HD
ATOM     13  H   UNL     1      49.267   1.985   5.885  0.00  0.00    +0.000 HD
ENDBRANCH   6   9
ENDBRANCH   1   3
BRANCH   1  14
ATOM     14  C   UNL     1      44.100   5.602  11.024  0.00  0.00    +0.000 C 
BRANCH  14  16
ATOM     15  C   UNL     1      43.820   3.801  12.873  0.00  0.00    +0.000 C 
ATOM     16  C   UNL     1      44.695   4.755  12.114  0.00  0.00    +0.000 C 
BRANCH  16  17
ATOM     17  C   UNL     1      45.892   5.291  12.793  0.00  0.00    +0.000 A 
ATOM     18  C   UNL     1      46.683   6.277  12.186  0.00  0.00    +0.000 A 
ATOM     19  C   UNL     1      47.828   6.768  12.817  0.00  0.00    +0.000 A 
ATOM     20  C   UNL     1      48.193   6.281  14.070  0.00  0.00    +0.000 A 
ATOM     21  C   UNL     1      47.412   5.304  14.682  0.00  0.00    +0.000 A 
ATOM     22 CL   UNL     1      47.861   4.704  16.232  0.00  0.00    +0.000 Cl
ATOM     23  C   UNL     1      46.270   4.805  14.052  0.00  0.00    +0.000 A 
ENDBRANCH  16  17
ENDBRANCH  14  16
ENDBRANCH   1  14
TORSDOF 5
ENDMDL
MODEL 5
REMARK VINA RESULT:    -7.286      4.042      6.361
REMARK INTER + INTRA:          -9.966
REMARK INTER:                  -9.372
REMARK INTRA:                  -0.594
REMARK UNBOUND:                -0.550
REMARK  Name = 
REMARK  6 active torsions:
REMARK  status: ('A' for Active; 'I' for Inactive)
REMARK    1  A    between atoms: C_1  and  C_2
REMARK    2  A    between atoms: C_2  and  C_3
REMARK    3  A    between atoms: C_2  and  C_14
REMARK    4  A    between atoms: C_3  and  N_4
REMARK    5  A    between atoms: N_4  and  C_5
REMARK    6  A    between atoms: C_8  and  C_9
REMARK                            x       y       z     vdW  Elec       q    Type
REMARK                         _______ _______ _______ _____ _____    ______ ____
ROOT
ATOM      1  N   UNL     1      44.037   5.212  12.156  0.00  0.00    +0.000 N 
ATOM      2  H   UNL     1      43.328   5.695  12.704  0.00  0.00    +0.000 HD
ENDROOT
BRANCH   1   3
ATOM      3  C   UNL     1      45.342   5.560  12.503  0.00  0.00    +0.000 A 
ATOM      4  C   UNL     1      46.275   4.728  13.111  0.00  0.00    +0.000 A 
ATOM      5  N   UNL     1      47.510   5.102  13.523  0.00  0.00    +0.000 NA
ATOM      6  C   UNL     1      47.810   6.406  13.335  0.00  0.00    +0.000 A 
ATOM      7  N   UNL     1      46.998   7.324  12.780  0.00  0.00    +0.000 NA
ATOM      8  C   UNL     1      45.786   6.870  12.391  0.00  0.00    +0.000 A 
BRANCH   6   9
ATOM      9  C   UNL     1      49.176   6.857  13.807  0.00  0.00    +0.000 C 
ATOM     10  N   UNL     1      50.013   7.351  12.836  0.00  0.00    +0.000 N 
ATOM     11  O   UNL     1      49.550   6.799  14.975  0.00  0.00    +0.000 OA
ATOM     12  H   UNL     1      49.707   7.389  11.870  0.00  0.00    +0.000 HD
ATOM     13  H   UNL     1      50.937   7.657  13.094  0.00  0.00    +0.000 HD
ENDBRANCH   6   9
ENDBRANCH   1   3
BRANCH   1  14
ATOM     14  C   UNL     1      43.688   5.010  10.761  0.00  0.00    +0.000 C 
BRANCH  14  16
ATOM     15  C   UNL     1      43.584   2.489  11.373  0.00  0.00    +0.000 C 
ATOM     16  C   UNL     1      43.881   3.570  10.375  0.00  0.00    +0.000 C 
BRANCH  16  17
ATOM     17  C   UNL     1      44.884   3.292   9.327  0.00  0.00    +0.000 A 
ATOM     18  C   UNL     1      45.450   4.334   8.578  0.00  0.00    +0.000 A 
ATOM     19  C   UNL     1      46.381   4.072   7.571  0.00  0.00    +0.000 A 
ATOM     20  C   UNL     1      46.763   2.760   7.304  0.00  0.00    +0.000 A 
ATOM     21  C   UNL     1      46.210   1.718   8.045  0.00  0.00    +0.000 A 
ATOM     22 CL   UNL     1      46.684   0.096   7.718  0.00  0.00    +0.000 Cl
ATOM     23  C   UNL     1      45.274   1.975   9.048  0.00  0.00    +0.000 A 
ENDBRANCH  16  17
ENDBRANCH  14  16
ENDBRANCH   1  14
TORSDOF 5
ENDMDL
MODEL 6
REMARK VINA RESULT:    -7.219      4.146      6.842
REMARK INTER + INTRA:          -9.879
REMARK INTER:                  -9.599
REMARK INTRA:                  -0.280
REMARK UNBOUND:                -0.550
REMARK  Name = 
REMARK  6 active torsions:
REMARK  status: ('A' for Active; 'I' for Inactive)
REMARK    1  A    between atoms: C_1  and  C_2
REMARK    2  A    between atoms: C_2  and  C_3
REMARK    3  A    between atoms: C_2  and  C_14
REMARK    4  A    between atoms: C_3  and  N_4
REMARK    5  A    between atoms: N_4  and  C_5
REMARK    6  A    between atoms: C_8  and  C_9
REMARK                            x       y       z     vdW  Elec       q    Type
REMARK                         _______ _______ _______ _____ _____    ______ ____
ROOT
ATOM      1  N   UNL     1      45.306   5.860  10.778  0.00  0.00    +0.000 N 
ATOM      2  H   UNL     1      44.981   6.824  10.798  0.00  0.00    +0.000 HD
ENDROOT
BRANCH   1   3
ATOM      3  C   UNL     1      45.843   5.428  11.990  0.00  0.00    +0.000 A 
ATOM      4  C   UNL     1      45.405   4.341  12.737  0.00  0.00    +0.000 A 
ATOM      5  N   UNL     1      45.876   3.984  13.955  0.00  0.00    +0.000 NA
ATOM      6  C   UNL     1      46.830   4.794  14.464  0.00  0.00    +0.000 A 
ATOM      7  N   UNL     1      47.331   5.888  13.862  0.00  0.00    +0.000 NA
ATOM      8  C   UNL     1      46.813   6.173  12.648  0.00  0.00    +0.000 A 
BRANCH   6   9
ATOM      9  C   UNL     1      47.359   4.431  15.836  0.00  0.00    +0.000 C 
ATOM     10  N   UNL     1      48.012   5.434  16.511  0.00  0.00    +0.000 N 
ATOM     11  O   UNL     1      47.234   3.322  16.346  0.00  0.00    +0.000 OA
ATOM     12  H   UNL     1      48.124   6.347  16.084  0.00  0.00    +0.000 HD
ATOM     13  H   UNL     1      48.392   5.244  17.425  0.00  0.00    +0.000 HD
ENDBRANCH   6   9
ENDBRANCH   1   3
BRANCH   1  14
ATOM     14  C   UNL     1      45.926   5.457   9.527  0.00  0.00    +0.000 C 
BRANCH  14  16
ATOM     15  C   UNL     1      43.931   3.797   9.585  0.00  0.00    +0.000 C 
ATOM     16  C   UNL     1      45.147   4.340   8.893  0.00  0.00    +0.000 C 
BRANCH  16  17
ATOM     17  C   UNL     1      45.893   3.439   7.989  0.00  0.00    +0.000 A 
ATOM     18  C   UNL     1      46.527   3.935   6.841  0.00  0.00    +0.000 A 
ATOM     19  C   UNL     1      47.213   3.082   5.974  0.00  0.00    +0.000 A 
ATOM     20  C   UNL     1      47.278   1.719   6.249  0.00  0.00    +0.000 A 
ATOM     21  C   UNL     1      46.655   1.217   7.390  0.00  0.00    +0.000 A 
ATOM     22 CL   UNL     1      46.738  -0.468   7.733  0.00  0.00    +0.000 Cl
ATOM     23  C   UNL     1      45.962   2.065   8.256  0.00  0.00    +0.000 A 
ENDBRANCH  16  17
ENDBRANCH  14  16
ENDBRANCH   1  14
TORSDOF 5
ENDMDL
MODEL 7
REMARK VINA RESULT:    -6.989      4.516      6.502
REMARK INTER + INTRA:          -9.582
REMARK INTER:                  -9.031
REMARK INTRA:                  -0.551
REMARK UNBOUND:                -0.550
REMARK  Name = 
REMARK  6 active torsions:
REMARK  status: ('A' for Active; 'I' for Inactive)
REMARK    1  A    between atoms: C_1  and  C_2
REMARK    2  A    between atoms: C_2  and  C_3
REMARK    3  A    between atoms: C_2  and  C_14
REMARK    4  A    between atoms: C_3  and  N_4
REMARK    5  A    between atoms: N_4  and  C_5
REMARK    6  A    between atoms: C_8  and  C_9
REMARK                            x       y       z     vdW  Elec       q    Type
REMARK                         _______ _______ _______ _____ _____    ______ ____
ROOT
ATOM      1  N   UNL     1      46.622   6.589  12.968  0.00  0.00    +0.000 N 
ATOM      2  H   UNL     1      46.797   7.518  13.344  0.00  0.00    +0.000 HD
ENDROOT
BRANCH   1   3
ATOM      3  C   UNL     1      47.108   5.561  13.776  0.00  0.00    +0.000 A 
ATOM      4  C   UNL     1      46.810   4.210  13.645  0.00  0.00    +0.000 A 
ATOM      5  N   UNL     1      47.218   3.230  14.488  0.00  0.00    +0.000 NA
ATOM      6  C   UNL     1      47.948   3.648  15.546  0.00  0.00    +0.000 A 
ATOM      7  N   UNL     1      48.291   4.922  15.806  0.00  0.00    +0.000 NA
ATOM      8  C   UNL     1      47.850   5.837  14.915  0.00  0.00    +0.000 A 
BRANCH   6   9
ATOM      9  C   UNL     1      48.397   2.577  16.518  0.00  0.00    +0.000 C 
ATOM     10  N   UNL     1      47.777   2.583  17.744  0.00  0.00    +0.000 N 
ATOM     11  O   UNL     1      49.259   1.741  16.264  0.00  0.00    +0.000 OA
ATOM     12  H   UNL     1      47.072   3.281  17.957  0.00  0.00    +0.000 HD
ATOM     13  H   UNL     1      48.044   1.897  18.433  0.00  0.00    +0.000 HD
ENDBRANCH   6   9
ENDBRANCH   1   3
BRANCH   1  14
ATOM     14  C   UNL     1      46.736   6.490  11.523  0.00  0.00    +0.000 C 
BRANCH  14  16
ATOM     15  C   UNL     1      44.191   7.002  11.478  0.00  0.00    +0.000 C 
ATOM     16  C   UNL     1      45.381   6.292  10.903  0.00  0.00    +0.000 C 
BRANCH  16  17
ATOM     17  C   UNL     1      45.154   5.013  10.198  0.00  0.00    +0.000 A 
ATOM     18  C   UNL     1      44.426   3.978  10.802  0.00  0.00    +0.000 A 
ATOM     19  C   UNL     1      44.229   2.761  10.146  0.00  0.00    +0.000 A 
ATOM     20  C   UNL     1      44.757   2.566   8.872  0.00  0.00    +0.000 A 
ATOM     21  C   UNL     1      45.479   3.590   8.262  0.00  0.00    +0.000 A 
ATOM     22 CL   UNL     1      46.128   3.351   6.686  0.00  0.00    +0.000 Cl
ATOM     23  C   UNL     1      45.683   4.806   8.917  0.00  0.00    +0.000 A 
ENDBRANCH  16  17
ENDBRANCH  14  16
ENDBRANCH   1  14
TORSDOF 5
ENDMDL
MODEL 8
REMARK VINA RESULT:    -6.485      4.865      6.875
REMARK INTER + INTRA:          -8.931
REMARK INTER:                  -8.376
REMARK INTRA:                  -0.555
REMARK UNBOUND:                -0.550
REMARK  Name = 
REMARK  6 active torsions:
REMARK  status: ('A' for Active; 'I' for Inactive)
REMARK    1  A    between atoms: C_1  and  C_2
REMARK    2  A    between atoms: C_2  and  C_3
REMARK    3  A    between atoms: C_2  and  C_14
REMARK    4  A    between atoms: C_3  and  N_4
REMARK    5  A    between atoms: N_4  and  C_5
REMARK    6  A    between atoms: C_8  and  C_9
REMARK                            x       y       z     vdW  Elec       q    Type
REMARK                         _______ _______ _______ _____ _____    ______ ____
ROOT
ATOM      1  N   UNL     1      47.208   6.960  13.239  0.00  0.00    +0.000 N 
ATOM      2  H   UNL     1      47.580   7.862  13.530  0.00  0.00    +0.000 HD
ENDROOT
BRANCH   1   3
ATOM      3  C   UNL     1      47.444   5.938  14.157  0.00  0.00    +0.000 A 
ATOM      4  C   UNL     1      46.761   4.730  14.228  0.00  0.00    +0.000 A 
ATOM      5  N   UNL     1      46.939   3.781  15.178  0.00  0.00    +0.000 NA
ATOM      6  C   UNL     1      47.844   4.086  16.135  0.00  0.00    +0.000 A 
ATOM      7  N   UNL     1      48.560   5.223  16.201  0.00  0.00    +0.000 NA
ATOM      8  C   UNL     1      48.327   6.115  15.213  0.00  0.00    +0.000 A 
BRANCH   6   9
ATOM      9  C   UNL     1      48.047   3.053  17.223  0.00  0.00    +0.000 C 
ATOM     10  N   UNL     1      46.907   2.615  17.852  0.00  0.00    +0.000 N 
ATOM     11  O   UNL     1      49.144   2.613  17.553  0.00  0.00    +0.000 OA
ATOM     12  H   UNL     1      46.002   2.986  17.586  0.00  0.00    +0.000 HD
ATOM     13  H   UNL     1      46.985   1.933  18.591  0.00  0.00    +0.000 HD
ENDBRANCH   6   9
ENDBRANCH   1   3
BRANCH   1  14
ATOM     14  C   UNL     1      47.313   6.693  11.815  0.00  0.00    +0.000 C 
BRANCH  14  16
ATOM     15  C   UNL     1      44.955   7.767  11.657  0.00  0.00    +0.000 C 
ATOM     16  C   UNL     1      45.959   6.766  11.166  0.00  0.00    +0.000 C 
BRANCH  16  17
ATOM     17  C   UNL     1      45.457   5.528  10.537  0.00  0.00    +0.000 A 
ATOM     18  C   UNL     1      45.751   5.230   9.198  0.00  0.00    +0.000 A 
ATOM     19  C   UNL     1      45.258   4.071   8.595  0.00  0.00    +0.000 A 
ATOM     20  C   UNL     1      44.466   3.190   9.328  0.00  0.00    +0.000 A 
ATOM     21  C   UNL     1      44.172   3.475  10.659  0.00  0.00    +0.000 A 
ATOM     22 CL   UNL     1      43.197   2.385  11.566  0.00  0.00    +0.000 Cl
ATOM     23  C   UNL     1      44.657   4.636  11.264  0.00  0.00    +0.000 A 
ENDBRANCH  16  17
ENDBRANCH  14  16
ENDBRANCH   1  14
TORSDOF 5
ENDMDL
MODEL 9
REMARK VINA RESULT:    -6.009      4.539      6.981
REMARK INTER + INTRA:          -8.315
REMARK INTER:                  -7.901
REMARK INTRA:                  -0.414
REMARK UNBOUND:                -0.550
REMARK  Name = 
REMARK  6 active torsions:
REMARK  status: ('A' for Active; 'I' for Inactive)
REMARK    1  A    between atoms: C_1  and  C_2
REMARK    2  A    between atoms: C_2  and  C_3
REMARK    3  A    between atoms: C_2  and  C_14
REMARK    4  A    between atoms: C_3  and  N_4
REMARK    5  A    between atoms: N_4  and  C_5
REMARK    6  A    between atoms: C_8  and  C_9
REMARK                            x       y       z     vdW  Elec       q    Type
REMARK                         _______ _______ _______ _____ _____    ______ ____
ROOT
ATOM      1  N   UNL     1      46.078   5.491  12.061  0.00  0.00    +0.000 N 
ATOM      2  H   UNL     1      45.677   4.713  12.580  0.00  0.00    +0.000 HD
ENDROOT
BRANCH   1   3
ATOM      3  C   UNL     1      47.116   6.134  12.735  0.00  0.00    +0.000 A 
ATOM      4  C   UNL     1      47.955   7.107  12.205  0.00  0.00    +0.000 A 
ATOM      5  N   UNL     1      49.014   7.662  12.841  0.00  0.00    +0.000 NA
ATOM      6  C   UNL     1      49.260   7.180  14.080  0.00  0.00    +0.000 A 
ATOM      7  N   UNL     1      48.544   6.228  14.705  0.00  0.00    +0.000 NA
ATOM      8  C   UNL     1      47.501   5.730  14.006  0.00  0.00    +0.000 A 
BRANCH   6   9
ATOM      9  C   UNL     1      50.453   7.766  14.805  0.00  0.00    +0.000 C 
ATOM     10  N   UNL     1      51.641   7.748  14.115  0.00  0.00    +0.000 N 
ATOM     11  O   UNL     1      50.403   8.233  15.939  0.00  0.00    +0.000 OA
ATOM     12  H   UNL     1      51.683   7.353  13.182  0.00  0.00    +0.000 HD
ATOM     13  H   UNL     1      52.469   8.118  14.554  0.00  0.00    +0.000 HD
ENDBRANCH   6   9
ENDBRANCH   1   3
BRANCH   1  14
ATOM     14  C   UNL     1      45.116   6.270  11.300  0.00  0.00    +0.000 C 
BRANCH  14  16
ATOM     15  C   UNL     1      42.743   5.226  11.440  0.00  0.00    +0.000 C 
ATOM     16  C   UNL     1      44.055   5.375  10.725  0.00  0.00    +0.000 C 
BRANCH  16  17
ATOM     17  C   UNL     1      44.516   4.256   9.879  0.00  0.00    +0.000 A 
ATOM     18  C   UNL     1      44.178   2.931  10.190  0.00  0.00    +0.000 A 
ATOM     19  C   UNL     1      44.632   1.870   9.404  0.00  0.00    +0.000 A 
ATOM     20  C   UNL     1      45.429   2.123   8.290  0.00  0.00    +0.000 A 
ATOM     21  C   UNL     1      45.767   3.436   7.971  0.00  0.00    +0.000 A 
ATOM     22 CL   UNL     1      46.749   3.749   6.592  0.00  0.00    +0.000 Cl
ATOM     23  C   UNL     1      45.321   4.499   8.758  0.00  0.00    +0.000 A 
ENDBRANCH  16  17
ENDBRANCH  14  16
ENDBRANCH   1  14
TORSDOF 5
ENDMDL
