MODEL 1
REMARK VINA RESULT:    -9.616      0.000      0.000
REMARK INTER + INTRA:         -13.431
REMARK INTER:                 -12.427
REMARK INTRA:                  -1.004
REMARK UNBOUND:                -1.004
REMARK  Name = 
REMARK  5 active torsions:
REMARK  status: ('A' for Active; 'I' for Inactive)
REMARK    1  A    between atoms: C_2  and  C_4
REMARK    2  A    between atoms: N_8  and  C_9
REMARK    3  A    between atoms: C_9  and  C_10
REMARK    4  A    between atoms: C_10  and  C_13
REMARK    5  A    between atoms: C_15  and  C_16
REMARK                            x       y       z     vdW  Elec       q    Type
REMARK                         _______ _______ _______ _____ _____    ______ ____
ROOT
ATOM      1  C   UNL     1      43.623   5.456  12.092  0.00  0.00    +0.000 C 
ATOM      2  F   UNL     1      42.994   6.588  11.644  0.00  0.00    +0.000 F 
ATOM      3  F   UNL     1      42.935   5.093  13.221  0.00  0.00    +0.000 F 
ENDROOT
BRANCH   1   4
ATOM      4  C   UNL     1      45.099   5.715  12.395  0.00  0.00    +0.000 A 
ATOM      5  C   UNL     1      45.624   5.283  13.617  0.00  0.00    +0.000 A 
ATOM      6  C   UNL     1      46.969   5.525  13.946  0.00  0.00    +0.000 A 
ATOM      7  C   UNL     1      47.736   6.209  12.997  0.00  0.00    +0.000 A 
ATOM      8  C   UNL     1      47.147   6.619  11.811  0.00  0.00    +0.000 A 
ATOM      9  N   UNL     1      45.856   6.392  11.495  0.00  0.00    +0.000 NA
BRANCH   6  10
ATOM     10  C   UNL     1      47.530   5.089  15.246  0.00  0.00    +0.000 A 
ATOM     11  C   UNL     1      48.546   5.812  15.888  0.00  0.00    +0.000 A 
ATOM     12  C   UNL     1      49.076   5.342  17.082  0.00  0.00    +0.000 A 
ATOM     13  N   UNL     1      48.663   4.219  17.694  0.00  0.00    +0.000 NA
ATOM     14  C   UNL     1      47.677   3.538  17.081  0.00  0.00    +0.000 A 
ATOM     15  F   UNL     1      47.242   2.415  17.670  0.00  0.00    +0.000 F 
ATOM     16  C   UNL     1      47.091   3.920  15.885  0.00  0.00    +0.000 A 
ENDBRANCH   6  10
ENDBRANCH   1   4
BRANCH   1  17
ATOM     17  C   UNL     1      43.448   4.348  11.031  0.00  0.00    +0.000 C 
BRANCH  17  22
ATOM     18  C   UNL     1      46.431   2.334   7.707  0.00  0.00    +0.000 A 
ATOM     19  C   UNL     1      45.544   1.857   8.640  0.00  0.00    +0.000 A 
ATOM     20  N   UNL     1      44.661   2.637   9.295  0.00  0.00    +0.000 NA
ATOM     21  C   UNL     1      44.675   3.952   9.019  0.00  0.00    +0.000 A 
ATOM     22  N   UNL     1      43.775   4.789   9.661  0.00  0.00    +0.000 N 
ATOM     23  N   UNL     1      45.523   4.518   8.149  0.00  0.00    +0.000 NA
ATOM     24  C   UNL     1      46.391   3.696   7.511  0.00  0.00    +0.000 A 
ATOM     25  H   UNL     1      44.123   5.741   9.578  0.00  0.00    +0.000 HD
BRANCH  18  27
ATOM     26  N   UNL     1      48.523   2.060   6.514  0.00  0.00    +0.000 N 
ATOM     27  C   UNL     1      47.381   1.476   6.991  0.00  0.00    +0.000 C 
ATOM     28  O   UNL     1      47.171   0.278   6.850  0.00  0.00    +0.000 OA
ATOM     29  H   UNL     1      49.210   1.439   6.104  0.00  0.00    +0.000 HD
ATOM     30  H   UNL     1      48.852   2.966   6.821  0.00  0.00    +0.000 HD
ENDBRANCH  18  27
ENDBRANCH  17  22
ENDBRANCH   1  17
TORSDOF 5
ENDMDL
MODEL 2
REMARK VINA RESULT:    -9.526      2.313      3.735
REMARK INTER + INTRA:         -13.314
REMARK INTER:                 -12.440
REMARK INTRA:                  -0.875
REMARK UNBOUND:                -1.004
REMARK  Name = 
REMARK  5 active torsions:
REMARK  status: ('A' for Active; 'I' for Inactive)
REMARK    1  A    between atoms: C_2  and  C_4
REMARK    2  A    between atoms: N_8  and  C_9
REMARK    3  A    between atoms: C_9  and  C_10
REMARK    4  A    between atoms: C_10  and  C_13
REMARK    5  A    between atoms: C_15  and  C_16
REMARK                            x       y       z     vdW  Elec       q    Type
REMARK                         _______ _______ _______ _____ _____    ______ ____
ROOT
ATOM      1  C   UNL     1      43.477   5.168  12.292  0.00  0.00    +0.000 C 
ATOM      2  F   UNL     1      42.987   6.356  11.818  0.00  0.00    +0.000 F 
ATOM      3  F   UNL     1      42.606   4.798  13.286  0.00  0.00    +0.000 F 
ENDROOT
BRANCH   1   4
ATOM      4  C   UNL     1      44.902   5.317  12.824  0.00  0.00    +0.000 A 
ATOM      5  C   UNL     1      45.678   6.395  12.387  0.00  0.00    +0.000 A 
ATOM      6  C   UNL     1      47.001   6.554  12.832  0.00  0.00    +0.000 A 
ATOM      7  C   UNL     1      47.488   5.588  13.720  0.00  0.00    +0.000 A 
ATOM      8  C   UNL     1      46.667   4.538  14.102  0.00  0.00    +0.000 A 
ATOM      9  N   UNL     1      45.398   4.382  13.674  0.00  0.00    +0.000 NA
BRANCH   6  10
ATOM     10  C   UNL     1      47.838   7.681  12.360  0.00  0.00    +0.000 A 
ATOM     11  C   UNL     1      47.332   8.986  12.269  0.00  0.00    +0.000 A 
ATOM     12  C   UNL     1      48.137  10.004  11.776  0.00  0.00    +0.000 A 
ATOM     13  N   UNL     1      49.411   9.828  11.383  0.00  0.00    +0.000 NA
ATOM     14  C   UNL     1      49.896   8.577  11.489  0.00  0.00    +0.000 A 
ATOM     15  F   UNL     1      51.165   8.372  11.107  0.00  0.00    +0.000 F 
ATOM     16  C   UNL     1      49.169   7.495  11.958  0.00  0.00    +0.000 A 
ENDBRANCH   6  10
ENDBRANCH   1   4
BRANCH   1  17
ATOM     17  C   UNL     1      43.401   4.122  11.159  0.00  0.00    +0.000 C 
BRANCH  17  22
ATOM     18  C   UNL     1      46.453   2.513   7.680  0.00  0.00    +0.000 A 
ATOM     19  C   UNL     1      45.598   1.924   8.579  0.00  0.00    +0.000 A 
ATOM     20  N   UNL     1      44.684   2.608   9.294  0.00  0.00    +0.000 NA
ATOM     21  C   UNL     1      44.629   3.939   9.117  0.00  0.00    +0.000 A 
ATOM     22  N   UNL     1      43.694   4.680   9.824  0.00  0.00    +0.000 N 
ATOM     23  N   UNL     1      45.441   4.610   8.288  0.00  0.00    +0.000 NA
ATOM     24  C   UNL     1      46.343   3.882   7.586  0.00  0.00    +0.000 A 
ATOM     25  H   UNL     1      43.994   5.651   9.810  0.00  0.00    +0.000 HD
BRANCH  18  27
ATOM     26  N   UNL     1      48.543   2.436   6.456  0.00  0.00    +0.000 N 
ATOM     27  C   UNL     1      47.438   1.760   6.897  0.00  0.00    +0.000 C 
ATOM     28  O   UNL     1      47.289   0.566   6.671  0.00  0.00    +0.000 OA
ATOM     29  H   UNL     1      49.257   1.883   5.997  0.00  0.00    +0.000 HD
ATOM     30  H   UNL     1      48.828   3.333   6.824  0.00  0.00    +0.000 HD
ENDBRANCH  18  27
ENDBRANCH  17  22
ENDBRANCH   1  17
TORSDOF 5
ENDMDL
MODEL 3
REMARK VINA RESULT:    -8.955      2.553      3.530
REMARK INTER + INTRA:         -12.576
REMARK INTER:                 -11.531
REMARK INTRA:                  -1.045
REMARK UNBOUND:                -1.004
REMARK  Name = 
REMARK  5 active torsions:
REMARK  status: ('A' for Active; 'I' for Inactive)
REMARK    1  A    between atoms: C_2  and  C_4
REMARK    2  A    between atoms: N_8  and  C_9
REMARK    3  A    between atoms: C_9  and  C_10
REMARK    4  A    between atoms: C_10  and  C_13
REMARK    5  A    between atoms: C_15  and  C_16
REMARK                            x       y       z     vdW  Elec       q    Type
REMARK                         _______ _______ _______ _____ _____    ______ ____
ROOT
ATOM      1  C   UNL     1      44.414   4.435  12.235  0.00  0.00    +0.000 C 
ATOM      2  F   UNL     1      43.803   4.275  13.450  0.00  0.00    +0.000 F 
ATOM      3  F   UNL     1      45.426   3.508  12.223  0.00  0.00    +0.000 F 
ENDROOT
BRANCH   1   4
ATOM      4  C   UNL     1      44.954   5.854  12.059  0.00  0.00    +0.000 A 
ATOM      5  C   UNL     1      46.299   6.107  12.347  0.00  0.00    +0.000 A 
ATOM      6  C   UNL     1      46.828   7.403  12.223  0.00  0.00    +0.000 A 
ATOM      7  C   UNL     1      45.947   8.406  11.802  0.00  0.00    +0.000 A 
ATOM      8  C   UNL     1      44.622   8.086  11.546  0.00  0.00    +0.000 A 
ATOM      9  N   UNL     1      44.112   6.844  11.668  0.00  0.00    +0.000 NA
BRANCH   6  10
ATOM     10  C   UNL     1      48.246   7.686  12.544  0.00  0.00    +0.000 A 
ATOM     11  C   UNL     1      48.802   7.341  13.785  0.00  0.00    +0.000 A 
ATOM     12  C   UNL     1      50.123   7.668  14.062  0.00  0.00    +0.000 A 
ATOM     13  N   UNL     1      50.937   8.295  13.196  0.00  0.00    +0.000 NA
ATOM     14  C   UNL     1      50.402   8.608  12.000  0.00  0.00    +0.000 A 
ATOM     15  F   UNL     1      51.191   9.232  11.114  0.00  0.00    +0.000 F 
ATOM     16  C   UNL     1      49.094   8.334  11.635  0.00  0.00    +0.000 A 
ENDBRANCH   6  10
ENDBRANCH   1   4
BRANCH   1  17
ATOM     17  C   UNL     1      43.401   4.072  11.128  0.00  0.00    +0.000 C 
BRANCH  17  22
ATOM     18  C   UNL     1      46.436   2.453   7.639  0.00  0.00    +0.000 A 
ATOM     19  C   UNL     1      45.548   1.870   8.510  0.00  0.00    +0.000 A 
ATOM     20  N   UNL     1      44.651   2.566   9.234  0.00  0.00    +0.000 NA
ATOM     21  C   UNL     1      44.648   3.903   9.096  0.00  0.00    +0.000 A 
ATOM     22  N   UNL     1      43.733   4.657   9.814  0.00  0.00    +0.000 N 
ATOM     23  N   UNL     1      45.495   4.568   8.298  0.00  0.00    +0.000 NA
ATOM     24  C   UNL     1      46.379   3.827   7.585  0.00  0.00    +0.000 A 
ATOM     25  H   UNL     1      44.068   5.617   9.833  0.00  0.00    +0.000 HD
BRANCH  18  27
ATOM     26  N   UNL     1      48.500   2.353   6.373  0.00  0.00    +0.000 N 
ATOM     27  C   UNL     1      47.403   1.686   6.846  0.00  0.00    +0.000 C 
ATOM     28  O   UNL     1      47.245   0.490   6.639  0.00  0.00    +0.000 OA
ATOM     29  H   UNL     1      49.203   1.791   5.907  0.00  0.00    +0.000 HD
ATOM     30  H   UNL     1      48.796   3.254   6.725  0.00  0.00    +0.000 HD
ENDBRANCH  18  27
ENDBRANCH  17  22
ENDBRANCH   1  17
TORSDOF 5
ENDMDL
MODEL 4
REMARK VINA RESULT:    -8.256      3.275      8.144
REMARK INTER + INTRA:         -11.673
REMARK INTER:                 -10.782
REMARK INTRA:                  -0.891
REMARK UNBOUND:                -1.004
REMARK  Name = 
REMARK  5 active torsions:
REMARK  status: ('A' for Active; 'I' for Inactive)
REMARK    1  A    between atoms: C_2  and  C_4
REMARK    2  A    between atoms: N_8  and  C_9
REMARK    3  A    between atoms: C_9  and  C_10
REMARK    4  A    between atoms: C_10  and  C_13
REMARK    5  A    between atoms: C_15  and  C_16
REMARK                            x       y       z     vdW  Elec       q    Type
REMARK                         _______ _______ _______ _____ _____    ______ ____
ROOT
ATOM      1  C   UNL     1      45.554   6.197  11.952  0.00  0.00    +0.000 C 
ATOM      2  F   UNL     1      44.544   6.999  12.412  0.00  0.00    +0.000 F 
ATOM      3  F   UNL     1      46.218   6.961  11.025  0.00  0.00    +0.000 F 
ENDROOT
BRANCH   1   4
ATOM      4  C   UNL     1      45.013   4.909  11.330  0.00  0.00    +0.000 A 
ATOM      5  C   UNL     1      45.643   4.388  10.196  0.00  0.00    +0.000 A 
ATOM      6  C   UNL     1      45.160   3.221   9.580  0.00  0.00    +0.000 A 
ATOM      7  C   UNL     1      44.034   2.623  10.156  0.00  0.00    +0.000 A 
ATOM      8  C   UNL     1      43.452   3.201  11.274  0.00  0.00    +0.000 A 
ATOM      9  N   UNL     1      43.912   4.323  11.865  0.00  0.00    +0.000 NA
BRANCH   6  10
ATOM     10  C   UNL     1      45.808   2.672   8.366  0.00  0.00    +0.000 A 
ATOM     11  C   UNL     1      46.248   1.341   8.304  0.00  0.00    +0.000 A 
ATOM     12  C   UNL     1      46.893   0.881   7.164  0.00  0.00    +0.000 A 
ATOM     13  N   UNL     1      47.120   1.637   6.075  0.00  0.00    +0.000 NA
ATOM     14  C   UNL     1      46.681   2.909   6.134  0.00  0.00    +0.000 A 
ATOM     15  F   UNL     1      46.890   3.685   5.062  0.00  0.00    +0.000 F 
ATOM     16  C   UNL     1      46.037   3.462   7.229  0.00  0.00    +0.000 A 
ENDBRANCH   6  10
ENDBRANCH   1   4
BRANCH   1  17
ATOM     17  C   UNL     1      46.515   5.901  13.123  0.00  0.00    +0.000 C 
BRANCH  17  22
ATOM     18  C   UNL     1      48.717   3.836  16.982  0.00  0.00    +0.000 A 
ATOM     19  C   UNL     1      48.301   5.104  16.657  0.00  0.00    +0.000 A 
ATOM     20  N   UNL     1      47.505   5.379  15.605  0.00  0.00    +0.000 NA
ATOM     21  C   UNL     1      47.118   4.348  14.836  0.00  0.00    +0.000 A 
ATOM     22  N   UNL     1      46.288   4.584  13.751  0.00  0.00    +0.000 N 
ATOM     23  N   UNL     1      47.496   3.080  15.051  0.00  0.00    +0.000 NA
ATOM     24  C   UNL     1      48.295   2.848  16.122  0.00  0.00    +0.000 A 
ATOM     25  H   UNL     1      46.356   3.784  13.128  0.00  0.00    +0.000 HD
BRANCH  18  27
ATOM     26  N   UNL     1      48.988   3.535  19.371  0.00  0.00    +0.000 N 
ATOM     27  C   UNL     1      49.575   3.544  18.135  0.00  0.00    +0.000 C 
ATOM     28  O   UNL     1      50.764   3.291  17.992  0.00  0.00    +0.000 OA
ATOM     29  H   UNL     1      49.571   3.242  20.146  0.00  0.00    +0.000 HD
ATOM     30  H   UNL     1      47.987   3.486  19.510  0.00  0.00    +0.000 HD
ENDBRANCH  18  27
ENDBRANCH  17  22
ENDBRANCH   1  17
TORSDOF 5
ENDMDL
MODEL 5
REMARK VINA RESULT:    -7.628      3.605      7.857
REMARK INTER + INTRA:         -10.862
REMARK INTER:                 -10.042
REMARK INTRA:                  -0.820
REMARK UNBOUND:                -1.004
REMARK  Name = 
REMARK  5 active torsions:
REMARK  status: ('A' for Active; 'I' for Inactive)
REMARK    1  A    between atoms: C_2  and  C_4
REMARK    2  A    between atoms: N_8  and  C_9
REMARK    3  A    between atoms: C_9  and  C_10
REMARK    4  A    between atoms: C_10  and  C_13
REMARK    5  A    between atoms: C_15  and  C_16
REMARK                            x       y       z     vdW  Elec       q    Type
REMARK                         _______ _______ _______ _____ _____    ______ ____
ROOT
ATOM      1  C   UNL     1      48.773   8.048  12.410  0.00  0.00    +0.000 C 
ATOM      2  F   UNL     1      49.212   9.137  11.706  0.00  0.00    +0.000 F 
ATOM      3  F   UNL     1      49.575   7.014  11.997  0.00  0.00    +0.000 F 
ENDROOT
BRANCH   1   4
ATOM      4  C   UNL     1      47.298   7.755  12.133  0.00  0.00    +0.000 A 
ATOM      5  C   UNL     1      46.958   6.587  11.445  0.00  0.00    +0.000 A 
ATOM      6  C   UNL     1      45.616   6.295  11.148  0.00  0.00    +0.000 A 
ATOM      7  C   UNL     1      44.659   7.224  11.573  0.00  0.00    +0.000 A 
ATOM      8  C   UNL     1      45.069   8.368  12.240  0.00  0.00    +0.000 A 
ATOM      9  N   UNL     1      46.356   8.652  12.523  0.00  0.00    +0.000 NA
BRANCH   6  10
ATOM     10  C   UNL     1      45.245   5.070  10.401  0.00  0.00    +0.000 A 
ATOM     11  C   UNL     1      44.592   3.997  11.026  0.00  0.00    +0.000 A 
ATOM     12  C   UNL     1      44.307   2.848  10.300  0.00  0.00    +0.000 A 
ATOM     13  N   UNL     1      44.604   2.691   8.998  0.00  0.00    +0.000 NA
ATOM     14  C   UNL     1      45.216   3.731   8.401  0.00  0.00    +0.000 A 
ATOM     15  F   UNL     1      45.523   3.605   7.102  0.00  0.00    +0.000 F 
ATOM     16  C   UNL     1      45.551   4.913   9.041  0.00  0.00    +0.000 A 
ENDBRANCH   6  10
ENDBRANCH   1   4
BRANCH   1  17
ATOM     17  C   UNL     1      49.029   8.301  13.911  0.00  0.00    +0.000 C 
BRANCH  17  22
ATOM     18  C   UNL     1      48.297   4.487  16.899  0.00  0.00    +0.000 A 
ATOM     19  C   UNL     1      47.644   5.019  15.814  0.00  0.00    +0.000 A 
ATOM     20  N   UNL     1      48.178   5.961  15.012  0.00  0.00    +0.000 NA
ATOM     21  C   UNL     1      49.410   6.403  15.313  0.00  0.00    +0.000 A 
ATOM     22  N   UNL     1      50.002   7.364  14.507  0.00  0.00    +0.000 N 
ATOM     23  N   UNL     1      50.116   5.972  16.368  0.00  0.00    +0.000 NA
ATOM     24  C   UNL     1      49.541   5.021  17.146  0.00  0.00    +0.000 A 
ATOM     25  H   UNL     1      50.756   7.792  15.037  0.00  0.00    +0.000 HD
BRANCH  18  27
ATOM     26  N   UNL     1      48.364   3.166  18.929  0.00  0.00    +0.000 N 
ATOM     27  C   UNL     1      47.713   3.454  17.760  0.00  0.00    +0.000 C 
ATOM     28  O   UNL     1      46.669   2.892  17.457  0.00  0.00    +0.000 OA
ATOM     29  H   UNL     1      47.901   2.519  19.555  0.00  0.00    +0.000 HD
ATOM     30  H   UNL     1      49.069   3.767  19.334  0.00  0.00    +0.000 HD
ENDBRANCH  18  27
ENDBRANCH  17  22
ENDBRANCH   1  17
TORSDOF 5
ENDMDL
MODEL 6
REMARK VINA RESULT:    -7.346      3.599      5.981
REMARK INTER + INTRA:         -10.497
REMARK INTER:                  -9.688
REMARK INTRA:                  -0.809
REMARK UNBOUND:                -1.004
REMARK  Name = 
REMARK  5 active torsions:
REMARK  status: ('A' for Active; 'I' for Inactive)
REMARK    1  A    between atoms: C_2  and  C_4
REMARK    2  A    between atoms: N_8  and  C_9
REMARK    3  A    between atoms: C_9  and  C_10
REMARK    4  A    between atoms: C_10  and  C_13
REMARK    5  A    between atoms: C_15  and  C_16
REMARK                            x       y       z     vdW  Elec       q    Type
REMARK                         _______ _______ _______ _____ _____    ______ ____
ROOT
ATOM      1  C   UNL     1      47.625   3.779  17.025  0.00  0.00    +0.000 C 
ATOM      2  F   UNL     1      46.793   4.602  17.736  0.00  0.00    +0.000 F 
ATOM      3  F   UNL     1      47.467   2.539  17.593  0.00  0.00    +0.000 F 
ENDROOT
BRANCH   1   4
ATOM      4  C   UNL     1      49.079   4.246  17.101  0.00  0.00    +0.000 A 
ATOM      5  C   UNL     1      50.053   3.356  17.563  0.00  0.00    +0.000 A 
ATOM      6  C   UNL     1      51.396   3.755  17.672  0.00  0.00    +0.000 A 
ATOM      7  C   UNL     1      51.695   5.070  17.299  0.00  0.00    +0.000 A 
ATOM      8  C   UNL     1      50.676   5.903  16.862  0.00  0.00    +0.000 A 
ATOM      9  N   UNL     1      49.387   5.524  16.759  0.00  0.00    +0.000 NA
BRANCH   6  10
ATOM     10  C   UNL     1      52.432   2.826  18.179  0.00  0.00    +0.000 A 
ATOM     11  C   UNL     1      53.365   3.222  19.149  0.00  0.00    +0.000 A 
ATOM     12  C   UNL     1      54.349   2.334  19.560  0.00  0.00    +0.000 A 
ATOM     13  N   UNL     1      54.468   1.078  19.095  0.00  0.00    +0.000 NA
ATOM     14  C   UNL     1      53.559   0.699  18.176  0.00  0.00    +0.000 A 
ATOM     15  F   UNL     1      53.651  -0.549  17.695  0.00  0.00    +0.000 F 
ATOM     16  C   UNL     1      52.548   1.514  17.695  0.00  0.00    +0.000 A 
ENDBRANCH   6  10
ENDBRANCH   1   4
BRANCH   1  17
ATOM     17  C   UNL     1      47.124   3.719  15.566  0.00  0.00    +0.000 C 
BRANCH  17  22
ATOM     18  C   UNL     1      45.519   4.925  11.097  0.00  0.00    +0.000 A 
ATOM     19  C   UNL     1      45.272   3.904  11.982  0.00  0.00    +0.000 A 
ATOM     20  N   UNL     1      45.682   3.916  13.265  0.00  0.00    +0.000 NA
ATOM     21  C   UNL     1      46.381   4.986  13.681  0.00  0.00    +0.000 A 
ATOM     22  N   UNL     1      46.811   5.045  14.998  0.00  0.00    +0.000 N 
ATOM     23  N   UNL     1      46.700   6.017  12.887  0.00  0.00    +0.000 NA
ATOM     24  C   UNL     1      46.265   5.965  11.604  0.00  0.00    +0.000 A 
ATOM     25  H   UNL     1      47.558   5.732  15.050  0.00  0.00    +0.000 HD
BRANCH  18  27
ATOM     26  N   UNL     1      43.749   4.593   9.476  0.00  0.00    +0.000 N 
ATOM     27  C   UNL     1      45.060   4.909   9.704  0.00  0.00    +0.000 C 
ATOM     28  O   UNL     1      45.816   5.195   8.784  0.00  0.00    +0.000 OA
ATOM     29  H   UNL     1      43.424   4.675   8.520  0.00  0.00    +0.000 HD
ATOM     30  H   UNL     1      43.043   4.600  10.200  0.00  0.00    +0.000 HD
ENDBRANCH  18  27
ENDBRANCH  17  22
ENDBRANCH   1  17
TORSDOF 5
ENDMDL
MODEL 7
REMARK VINA RESULT:    -7.184      3.895      6.504
REMARK INTER + INTRA:         -10.288
REMARK INTER:                  -9.682
REMARK INTRA:                  -0.606
REMARK UNBOUND:                -1.004
REMARK  Name = 
REMARK  5 active torsions:
REMARK  status: ('A' for Active; 'I' for Inactive)
REMARK    1  A    between atoms: C_2  and  C_4
REMARK    2  A    between atoms: N_8  and  C_9
REMARK    3  A    between atoms: C_9  and  C_10
REMARK    4  A    between atoms: C_10  and  C_13
REMARK    5  A    between atoms: C_15  and  C_16
REMARK                            x       y       z     vdW  Elec       q    Type
REMARK                         _______ _______ _______ _____ _____    ______ ____
ROOT
ATOM      1  C   UNL     1      47.961   3.666  17.024  0.00  0.00    +0.000 C 
ATOM      2  F   UNL     1      47.256   3.906  18.173  0.00  0.00    +0.000 F 
ATOM      3  F   UNL     1      47.872   2.310  16.831  0.00  0.00    +0.000 F 
ENDROOT
BRANCH   1   4
ATOM      4  C   UNL     1      49.415   4.119  17.150  0.00  0.00    +0.000 A 
ATOM      5  C   UNL     1      50.369   3.210  17.618  0.00  0.00    +0.000 A 
ATOM      6  C   UNL     1      51.712   3.595  17.773  0.00  0.00    +0.000 A 
ATOM      7  C   UNL     1      52.032   4.915  17.439  0.00  0.00    +0.000 A 
ATOM      8  C   UNL     1      51.032   5.767  16.993  0.00  0.00    +0.000 A 
ATOM      9  N   UNL     1      49.743   5.401  16.847  0.00  0.00    +0.000 NA
BRANCH   6  10
ATOM     10  C   UNL     1      52.726   2.645  18.286  0.00  0.00    +0.000 A 
ATOM     11  C   UNL     1      53.651   3.018  19.273  0.00  0.00    +0.000 A 
ATOM     12  C   UNL     1      54.615   2.111  19.691  0.00  0.00    +0.000 A 
ATOM     13  N   UNL     1      54.721   0.858  19.216  0.00  0.00    +0.000 NA
ATOM     14  C   UNL     1      53.820   0.500  18.280  0.00  0.00    +0.000 A 
ATOM     15  F   UNL     1      53.899  -0.744  17.790  0.00  0.00    +0.000 F 
ATOM     16  C   UNL     1      52.829   1.336  17.793  0.00  0.00    +0.000 A 
ENDBRANCH   6  10
ENDBRANCH   1   4
BRANCH   1  17
ATOM     17  C   UNL     1      47.245   4.377  15.855  0.00  0.00    +0.000 C 
BRANCH  17  22
ATOM     18  C   UNL     1      44.495   4.918  11.837  0.00  0.00    +0.000 A 
ATOM     19  C   UNL     1      45.129   5.769  12.709  0.00  0.00    +0.000 A 
ATOM     20  N   UNL     1      46.026   5.359  13.628  0.00  0.00    +0.000 NA
ATOM     21  C   UNL     1      46.290   4.043  13.690  0.00  0.00    +0.000 A 
ATOM     22  N   UNL     1      47.215   3.580  14.613  0.00  0.00    +0.000 N 
ATOM     23  N   UNL     1      45.700   3.131  12.906  0.00  0.00    +0.000 NA
ATOM     24  C   UNL     1      44.807   3.587  11.993  0.00  0.00    +0.000 A 
ATOM     25  H   UNL     1      47.060   2.583  14.734  0.00  0.00    +0.000 HD
BRANCH  18  27
ATOM     26  N   UNL     1      42.776   6.476  11.136  0.00  0.00    +0.000 N 
ATOM     27  C   UNL     1      43.528   5.374  10.832  0.00  0.00    +0.000 C 
ATOM     28  O   UNL     1      43.420   4.806   9.753  0.00  0.00    +0.000 OA
ATOM     29  H   UNL     1      42.180   6.833  10.398  0.00  0.00    +0.000 HD
ATOM     30  H   UNL     1      43.004   7.113  11.887  0.00  0.00    +0.000 HD
ENDBRANCH  18  27
ENDBRANCH  17  22
ENDBRANCH   1  17
TORSDOF 5
ENDMDL
MODEL 8
REMARK VINA RESULT:    -7.126      3.882      7.750
REMARK INTER + INTRA:         -10.213
REMARK INTER:                  -9.501
REMARK INTRA:                  -0.712
REMARK UNBOUND:                -1.004
REMARK  Name = 
REMARK  5 active torsions:
REMARK  status: ('A' for Active; 'I' for Inactive)
REMARK    1  A    between atoms: C_2  and  C_4
REMARK    2  A    between atoms: N_8  and  C_9
REMARK    3  A    between atoms: C_9  and  C_10
REMARK    4  A    between atoms: C_10  and  C_13
REMARK    5  A    between atoms: C_15  and  C_16
REMARK                            x       y       z     vdW  Elec       q    Type
REMARK                         _______ _______ _______ _____ _____    ______ ____
ROOT
ATOM      1  C   UNL     1      44.044   6.028  11.703  0.00  0.00    +0.000 C 
ATOM      2  F   UNL     1      44.122   6.090  13.069  0.00  0.00    +0.000 F 
ATOM      3  F   UNL     1      42.870   6.665  11.387  0.00  0.00    +0.000 F 
ENDROOT
BRANCH   1   4
ATOM      4  C   UNL     1      44.048   4.584  11.203  0.00  0.00    +0.000 A 
ATOM      5  C   UNL     1      44.831   4.254  10.093  0.00  0.00    +0.000 A 
ATOM      6  C   UNL     1      44.842   2.943   9.586  0.00  0.00    +0.000 A 
ATOM      7  C   UNL     1      44.038   2.006  10.245  0.00  0.00    +0.000 A 
ATOM      8  C   UNL     1      43.277   2.405  11.332  0.00  0.00    +0.000 A 
ATOM      9  N   UNL     1      43.262   3.663  11.818  0.00  0.00    +0.000 NA
BRANCH   6  10
ATOM     10  C   UNL     1      45.653   2.588   8.398  0.00  0.00    +0.000 A 
ATOM     11  C   UNL     1      46.267   1.333   8.275  0.00  0.00    +0.000 A 
ATOM     12  C   UNL     1      47.058   1.059   7.167  0.00  0.00    +0.000 A 
ATOM     13  N   UNL     1      47.271   1.929   6.166  0.00  0.00    +0.000 NA
ATOM     14  C   UNL     1      46.666   3.127   6.282  0.00  0.00    +0.000 A 
ATOM     15  F   UNL     1      46.858   4.014   5.296  0.00  0.00    +0.000 F 
ATOM     16  C   UNL     1      45.868   3.497   7.352  0.00  0.00    +0.000 A 
ENDBRANCH   6  10
ENDBRANCH   1   4
BRANCH   1  17
ATOM     17  C   UNL     1      45.218   6.837  11.110  0.00  0.00    +0.000 C 
BRANCH  17  22
ATOM     18  C   UNL     1      49.089   8.207  13.781  0.00  0.00    +0.000 A 
ATOM     19  C   UNL     1      48.904   7.490  12.624  0.00  0.00    +0.000 A 
ATOM     20  N   UNL     1      47.733   7.438  11.960  0.00  0.00    +0.000 NA
ATOM     21  C   UNL     1      46.698   8.119  12.479  0.00  0.00    +0.000 A 
ATOM     22  N   UNL     1      45.477   8.104  11.821  0.00  0.00    +0.000 N 
ATOM     23  N   UNL     1      46.768   8.821  13.619  0.00  0.00    +0.000 NA
ATOM     24  C   UNL     1      47.967   8.848  14.252  0.00  0.00    +0.000 A 
ATOM     25  H   UNL     1      44.763   8.388  12.486  0.00  0.00    +0.000 HD
BRANCH  18  27
ATOM     26  N   UNL     1      51.458   7.706  13.878  0.00  0.00    +0.000 N 
ATOM     27  C   UNL     1      50.371   8.266  14.492  0.00  0.00    +0.000 C 
ATOM     28  O   UNL     1      50.467   8.819  15.580  0.00  0.00    +0.000 OA
ATOM     29  H   UNL     1      52.352   7.836  14.338  0.00  0.00    +0.000 HD
ATOM     30  H   UNL     1      51.481   7.472  12.895  0.00  0.00    +0.000 HD
ENDBRANCH  18  27
ENDBRANCH  17  22
ENDBRANCH   1  17
TORSDOF 5
ENDMDL
MODEL 9
REMARK VINA RESULT:    -7.091      3.605      7.391
REMARK INTER + INTRA:         -10.167
REMARK INTER:                  -9.167
REMARK INTRA:                  -1.000
REMARK UNBOUND:                -1.004
REMARK  Name = 
REMARK  5 active torsions:
REMARK  status: ('A' for Active; 'I' for Inactive)
REMARK    1  A    between atoms: C_2  and  C_4
REMARK    2  A    between atoms: N_8  and  C_9
REMARK    3  A    between atoms: C_9  and  C_10
REMARK    4  A    between atoms: C_10  and  C_13
REMARK    5  A    between atoms: C_15  and  C_16
REMARK                            x       y       z     vdW  Elec       q    Type
REMARK                         _______ _______ _______ _____ _____    ______ ____
ROOT
ATOM      1  C   UNL     1      45.353   4.128  13.128  0.00  0.00    +0.000 C 
ATOM      2  F   UNL     1      46.092   3.002  13.377  0.00  0.00    +0.000 F 
ATOM      3  F   UNL     1      44.268   4.031  13.962  0.00  0.00    +0.000 F 
ENDROOT
BRANCH   1   4
ATOM      4  C   UNL     1      44.925   4.207  11.662  0.00  0.00    +0.000 A 
ATOM      5  C   UNL     1      45.618   3.451  10.713  0.00  0.00    +0.000 A 
ATOM      6  C   UNL     1      45.273   3.516   9.352  0.00  0.00    +0.000 A 
ATOM      7  C   UNL     1      44.215   4.366   9.010  0.00  0.00    +0.000 A 
ATOM      8  C   UNL     1      43.580   5.097  10.002  0.00  0.00    +0.000 A 
ATOM      9  N   UNL     1      43.912   5.038  11.308  0.00  0.00    +0.000 NA
BRANCH   6  10
ATOM     10  C   UNL     1      46.013   2.733   8.335  0.00  0.00    +0.000 A 
ATOM     11  C   UNL     1      46.664   3.355   7.259  0.00  0.00    +0.000 A 
ATOM     12  C   UNL     1      47.306   2.580   6.302  0.00  0.00    +0.000 A 
ATOM     13  N   UNL     1      47.366   1.237   6.343  0.00  0.00    +0.000 NA
ATOM     14  C   UNL     1      46.754   0.648   7.387  0.00  0.00    +0.000 A 
ATOM     15  F   UNL     1      46.799  -0.690   7.456  0.00  0.00    +0.000 F 
ATOM     16  C   UNL     1      46.079   1.333   8.385  0.00  0.00    +0.000 A 
ENDBRANCH   6  10
ENDBRANCH   1   4
BRANCH   1  17
ATOM     17  C   UNL     1      46.185   5.360  13.543  0.00  0.00    +0.000 C 
BRANCH  17  22
ATOM     18  C   UNL     1      48.480   9.286  11.720  0.00  0.00    +0.000 A 
ATOM     19  C   UNL     1      48.645   7.926  11.625  0.00  0.00    +0.000 A 
ATOM     20  N   UNL     1      47.729   7.034  12.050  0.00  0.00    +0.000 NA
ATOM     21  C   UNL     1      46.607   7.518  12.608  0.00  0.00    +0.000 A 
ATOM     22  N   UNL     1      45.632   6.636  13.048  0.00  0.00    +0.000 N 
ATOM     23  N   UNL     1      46.367   8.826  12.776  0.00  0.00    +0.000 NA
ATOM     24  C   UNL     1      47.314   9.688  12.330  0.00  0.00    +0.000 A 
ATOM     25  H   UNL     1      45.031   7.136  13.699  0.00  0.00    +0.000 HD
BRANCH  18  27
ATOM     26  N   UNL     1      50.766  10.088  11.675  0.00  0.00    +0.000 N 
ATOM     27  C   UNL     1      49.478  10.250  11.245  0.00  0.00    +0.000 C 
ATOM     28  O   UNL     1      49.172  11.148  10.470  0.00  0.00    +0.000 OA
ATOM     29  H   UNL     1      51.459  10.704  11.267  0.00  0.00    +0.000 HD
ATOM     30  H   UNL     1      51.107   9.235  12.098  0.00  0.00    +0.000 HD
ENDBRANCH  18  27
ENDBRANCH  17  22
ENDBRANCH   1  17
TORSDOF 5
ENDMDL
