MODEL 1
REMARK VINA RESULT:    -7.530      0.000      0.000
REMARK INTER + INTRA:          -7.765
REMARK INTER:                  -8.411
REMARK INTRA:                   0.646
REMARK UNBOUND:                 0.646
REMARK  Name = 
REMARK  4 active torsions:
REMARK  status: ('A' for Active; 'I' for Inactive)
REMARK    1  A    between atoms: C_1  and  C_2
REMARK    2  A    between atoms: N_7  and  C_8
REMARK    3  A    between atoms: C_8  and  C_9
REMARK    4  A    between atoms: C_8  and  C_10
REMARK                            x       y       z     vdW  Elec       q    Type
REMARK                         _______ _______ _______ _____ _____    ______ ____
ROOT
ATOM      1  C   UNL     1      47.013   3.425   5.940  0.00  0.00    +0.000 C 
ATOM      2  C   UNL     1      46.273   3.060   7.192  0.00  0.00    +0.000 A 
ATOM      3  C   UNL     1      46.360   1.795   7.721  0.00  0.00    +0.000 A 
ATOM      4  C   UNL     1      45.603   1.570   8.845  0.00  0.00    +0.000 A 
ATOM      5  N   UNL     1      44.829   2.509   9.427  0.00  0.00    +0.000 NA
ATOM      6  C   UNL     1      44.807   3.719   8.854  0.00  0.00    +0.000 A 
ATOM      7  N   UNL     1      44.024   4.743   9.363  0.00  0.00    +0.000 N 
ATOM      8  N   UNL     1      45.508   4.029   7.750  0.00  0.00    +0.000 NA
ATOM      9  H   UNL     1      44.340   5.600   8.927  0.00  0.00    +0.000 HD
ENDROOT
BRANCH   7  10
ATOM     10  C   UNL     1      43.786   4.792  10.795  0.00  0.00    +0.000 C 
ATOM     11  C   UNL     1      43.270   3.450  11.326  0.00  0.00    +0.000 C 
BRANCH  10  12
ATOM     12  C   UNL     1      45.074   5.185  11.523  0.00  0.00    +0.000 A 
ATOM     13  C   UNL     1      45.861   6.231  11.012  0.00  0.00    +0.000 A 
ATOM     14  C   UNL     1      47.008   6.669  11.680  0.00  0.00    +0.000 A 
ATOM     15  C   UNL     1      47.396   6.062  12.871  0.00  0.00    +0.000 A 
ATOM     16  C   UNL     1      46.638   5.010  13.381  0.00  0.00    +0.000 A 
ATOM     17 CL   UNL     1      47.121   4.261  14.855  0.00  0.00    +0.000 Cl
ATOM     18  C   UNL     1      45.488   4.569  12.718  0.00  0.00    +0.000 A 
ENDBRANCH  10  12
ENDBRANCH   7  10
TORSDOF 2
ENDMDL
MODEL 2
REMARK VINA RESULT:    -7.465      4.327      6.973
REMARK INTER + INTRA:          -7.692
REMARK INTER:                  -7.383
REMARK INTRA:                  -0.310
REMARK UNBOUND:                 0.646
REMARK  Name = 
REMARK  4 active torsions:
REMARK  status: ('A' for Active; 'I' for Inactive)
REMARK    1  A    between atoms: C_1  and  C_2
REMARK    2  A    between atoms: N_7  and  C_8
REMARK    3  A    between atoms: C_8  and  C_9
REMARK    4  A    between atoms: C_8  and  C_10
REMARK                            x       y       z     vdW  Elec       q    Type
REMARK                         _______ _______ _______ _____ _____    ______ ____
ROOT
ATOM      1  C   UNL     1      50.431   1.762  17.091  0.00  0.00    +0.000 C 
ATOM      2  C   UNL     1      49.175   2.580  17.016  0.00  0.00    +0.000 A 
ATOM      3  C   UNL     1      48.608   3.108  18.151  0.00  0.00    +0.000 A 
ATOM      4  C   UNL     1      47.437   3.801  17.959  0.00  0.00    +0.000 A 
ATOM      5  N   UNL     1      46.865   3.985  16.751  0.00  0.00    +0.000 NA
ATOM      6  C   UNL     1      47.486   3.445  15.696  0.00  0.00    +0.000 A 
ATOM      7  N   UNL     1      46.965   3.559  14.417  0.00  0.00    +0.000 N 
ATOM      8  N   UNL     1      48.631   2.746  15.787  0.00  0.00    +0.000 NA
ATOM      9  H   UNL     1      47.699   3.291  13.774  0.00  0.00    +0.000 HD
ENDROOT
BRANCH   7  10
ATOM     10  C   UNL     1      46.206   4.750  14.078  0.00  0.00    +0.000 C 
ATOM     11  C   UNL     1      47.124   5.895  13.635  0.00  0.00    +0.000 C 
BRANCH  10  12
ATOM     12  C   UNL     1      45.198   4.427  12.973  0.00  0.00    +0.000 A 
ATOM     13  C   UNL     1      43.943   5.059  12.981  0.00  0.00    +0.000 A 
ATOM     14  C   UNL     1      43.017   4.846  11.956  0.00  0.00    +0.000 A 
ATOM     15  C   UNL     1      43.325   3.988  10.904  0.00  0.00    +0.000 A 
ATOM     16  C   UNL     1      44.558   3.339  10.891  0.00  0.00    +0.000 A 
ATOM     17 CL   UNL     1      44.937   2.278   9.588  0.00  0.00    +0.000 Cl
ATOM     18  C   UNL     1      45.490   3.550  11.913  0.00  0.00    +0.000 A 
ENDBRANCH  10  12
ENDBRANCH   7  10
TORSDOF 2
ENDMDL
MODEL 3
REMARK VINA RESULT:    -6.835      3.148      3.717
REMARK INTER + INTRA:          -6.988
REMARK INTER:                  -6.725
REMARK INTRA:                  -0.263
REMARK UNBOUND:                 0.646
REMARK  Name = 
REMARK  4 active torsions:
REMARK  status: ('A' for Active; 'I' for Inactive)
REMARK    1  A    between atoms: C_1  and  C_2
REMARK    2  A    between atoms: N_7  and  C_8
REMARK    3  A    between atoms: C_8  and  C_9
REMARK    4  A    between atoms: C_8  and  C_10
REMARK                            x       y       z     vdW  Elec       q    Type
REMARK                         _______ _______ _______ _____ _____    ______ ____
ROOT
ATOM      1  C   UNL     1      46.719   2.816   6.658  0.00  0.00    +0.000 C 
ATOM      2  C   UNL     1      45.947   3.087   7.915  0.00  0.00    +0.000 A 
ATOM      3  C   UNL     1      45.267   2.080   8.556  0.00  0.00    +0.000 A 
ATOM      4  C   UNL     1      44.561   2.460   9.673  0.00  0.00    +0.000 A 
ATOM      5  N   UNL     1      44.533   3.723  10.146  0.00  0.00    +0.000 NA
ATOM      6  C   UNL     1      45.230   4.643   9.467  0.00  0.00    +0.000 A 
ATOM      7  N   UNL     1      45.243   5.971   9.860  0.00  0.00    +0.000 N 
ATOM      8  N   UNL     1      45.942   4.365   8.362  0.00  0.00    +0.000 NA
ATOM      9  H   UNL     1      45.999   6.419   9.359  0.00  0.00    +0.000 HD
ENDROOT
BRANCH   7  10
ATOM     10  C   UNL     1      45.127   6.281  11.275  0.00  0.00    +0.000 C 
ATOM     11  C   UNL     1      46.395   5.889  12.042  0.00  0.00    +0.000 C 
BRANCH  10  12
ATOM     12  C   UNL     1      44.841   7.772  11.459  0.00  0.00    +0.000 A 
ATOM     13  C   UNL     1      45.742   8.561  12.194  0.00  0.00    +0.000 A 
ATOM     14  C   UNL     1      45.556   9.939  12.331  0.00  0.00    +0.000 A 
ATOM     15  C   UNL     1      44.457  10.557  11.740  0.00  0.00    +0.000 A 
ATOM     16  C   UNL     1      43.543   9.787  11.023  0.00  0.00    +0.000 A 
ATOM     17 CL   UNL     1      42.185  10.554  10.294  0.00  0.00    +0.000 Cl
ATOM     18  C   UNL     1      43.726   8.407  10.881  0.00  0.00    +0.000 A 
ENDBRANCH  10  12
ENDBRANCH   7  10
TORSDOF 2
ENDMDL
MODEL 4
REMARK VINA RESULT:    -6.694      4.944      6.951
REMARK INTER + INTRA:          -6.831
REMARK INTER:                  -6.487
REMARK INTRA:                  -0.344
REMARK UNBOUND:                 0.646
REMARK  Name = 
REMARK  4 active torsions:
REMARK  status: ('A' for Active; 'I' for Inactive)
REMARK    1  A    between atoms: C_1  and  C_2
REMARK    2  A    between atoms: N_7  and  C_8
REMARK    3  A    between atoms: C_8  and  C_9
REMARK    4  A    between atoms: C_8  and  C_10
REMARK                            x       y       z     vdW  Elec       q    Type
REMARK                         _______ _______ _______ _____ _____    ______ ____
ROOT
ATOM      1  C   UNL     1      44.291   4.481  12.141  0.00  0.00    +0.000 C 
ATOM      2  C   UNL     1      45.558   4.896  12.829  0.00  0.00    +0.000 A 
ATOM      3  C   UNL     1      46.404   5.814  12.256  0.00  0.00    +0.000 A 
ATOM      4  C   UNL     1      47.553   6.081  12.961  0.00  0.00    +0.000 A 
ATOM      5  N   UNL     1      47.852   5.512  14.147  0.00  0.00    +0.000 NA
ATOM      6  C   UNL     1      46.969   4.635  14.641  0.00  0.00    +0.000 A 
ATOM      7  N   UNL     1      47.198   3.981  15.841  0.00  0.00    +0.000 N 
ATOM      8  N   UNL     1      45.824   4.307  14.019  0.00  0.00    +0.000 NA
ATOM      9  H   UNL     1      46.320   3.564  16.121  0.00  0.00    +0.000 HD
ENDROOT
BRANCH   7  10
ATOM     10  C   UNL     1      47.952   4.667  16.876  0.00  0.00    +0.000 C 
ATOM     11  C   UNL     1      47.129   4.827  18.159  0.00  0.00    +0.000 C 
BRANCH  10  12
ATOM     12  C   UNL     1      49.244   3.904  17.171  0.00  0.00    +0.000 A 
ATOM     13  C   UNL     1      49.274   2.509  17.001  0.00  0.00    +0.000 A 
ATOM     14  C   UNL     1      50.449   1.779  17.194  0.00  0.00    +0.000 A 
ATOM     15  C   UNL     1      51.621   2.430  17.569  0.00  0.00    +0.000 A 
ATOM     16  C   UNL     1      51.605   3.811  17.760  0.00  0.00    +0.000 A 
ATOM     17 CL   UNL     1      53.057   4.614  18.223  0.00  0.00    +0.000 Cl
ATOM     18  C   UNL     1      50.431   4.547  17.566  0.00  0.00    +0.000 A 
ENDBRANCH  10  12
ENDBRANCH   7  10
TORSDOF 2
ENDMDL
MODEL 5
REMARK VINA RESULT:    -6.526      3.723      6.455
REMARK INTER + INTRA:          -6.643
REMARK INTER:                  -6.303
REMARK INTRA:                  -0.340
REMARK UNBOUND:                 0.646
REMARK  Name = 
REMARK  4 active torsions:
REMARK  status: ('A' for Active; 'I' for Inactive)
REMARK    1  A    between atoms: C_1  and  C_2
REMARK    2  A    between atoms: N_7  and  C_8
REMARK    3  A    between atoms: C_8  and  C_9
REMARK    4  A    between atoms: C_8  and  C_10
REMARK                            x       y       z     vdW  Elec       q    Type
REMARK                         _______ _______ _______ _____ _____    ______ ____
ROOT
ATOM      1  C   UNL     1      50.170   6.216  16.453  0.00  0.00    +0.000 C 
ATOM      2  C   UNL     1      48.885   5.561  16.038  0.00  0.00    +0.000 A 
ATOM      3  C   UNL     1      48.309   4.584  16.813  0.00  0.00    +0.000 A 
ATOM      4  C   UNL     1      47.158   4.028  16.307  0.00  0.00    +0.000 A 
ATOM      5  N   UNL     1      46.596   4.407  15.140  0.00  0.00    +0.000 NA
ATOM      6  C   UNL     1      47.216   5.372  14.451  0.00  0.00    +0.000 A 
ATOM      7  N   UNL     1      46.729   5.812  13.230  0.00  0.00    +0.000 N 
ATOM      8  N   UNL     1      48.348   5.967  14.863  0.00  0.00    +0.000 NA
ATOM      9  H   UNL     1      47.206   6.678  13.017  0.00  0.00    +0.000 HD
ENDROOT
BRANCH   7  10
ATOM     10  C   UNL     1      45.294   5.788  13.003  0.00  0.00    +0.000 C 
ATOM     11  C   UNL     1      44.777   7.149  12.523  0.00  0.00    +0.000 C 
BRANCH  10  12
ATOM     12  C   UNL     1      44.947   4.703  11.982  0.00  0.00    +0.000 A 
ATOM     13  C   UNL     1      44.195   3.589  12.390  0.00  0.00    +0.000 A 
ATOM     14  C   UNL     1      43.797   2.608  11.478  0.00  0.00    +0.000 A 
ATOM     15  C   UNL     1      44.152   2.717  10.136  0.00  0.00    +0.000 A 
ATOM     16  C   UNL     1      44.915   3.807   9.718  0.00  0.00    +0.000 A 
ATOM     17 CL   UNL     1      45.353   3.940   8.058  0.00  0.00    +0.000 Cl
ATOM     18  C   UNL     1      45.313   4.793  10.627  0.00  0.00    +0.000 A 
ENDBRANCH  10  12
ENDBRANCH   7  10
TORSDOF 2
ENDMDL
MODEL 6
REMARK VINA RESULT:    -6.431      2.889      6.025
REMARK INTER + INTRA:          -6.537
REMARK INTER:                  -7.525
REMARK INTRA:                   0.988
REMARK UNBOUND:                 0.646
REMARK  Name = 
REMARK  4 active torsions:
REMARK  status: ('A' for Active; 'I' for Inactive)
REMARK    1  A    between atoms: C_1  and  C_2
REMARK    2  A    between atoms: N_7  and  C_8
REMARK    3  A    between atoms: C_8  and  C_9
REMARK    4  A    between atoms: C_8  and  C_10
REMARK                            x       y       z     vdW  Elec       q    Type
REMARK                         _______ _______ _______ _____ _____    ______ ____
ROOT
ATOM      1  C   UNL     1      46.809   4.598  14.494  0.00  0.00    +0.000 C 
ATOM      2  C   UNL     1      45.819   4.736  13.376  0.00  0.00    +0.000 A 
ATOM      3  C   UNL     1      45.013   5.844  13.279  0.00  0.00    +0.000 A 
ATOM      4  C   UNL     1      44.116   5.836  12.238  0.00  0.00    +0.000 A 
ATOM      5  N   UNL     1      44.020   4.831  11.342  0.00  0.00    +0.000 NA
ATOM      6  C   UNL     1      44.848   3.792  11.502  0.00  0.00    +0.000 A 
ATOM      7  N   UNL     1      44.809   2.701  10.648  0.00  0.00    +0.000 N 
ATOM      8  N   UNL     1      45.751   3.710  12.494  0.00  0.00    +0.000 NA
ATOM      9  H   UNL     1      45.654   2.169  10.811  0.00  0.00    +0.000 HD
ENDROOT
BRANCH   7  10
ATOM     10  C   UNL     1      44.434   2.916   9.261  0.00  0.00    +0.000 C 
ATOM     11  C   UNL     1      44.291   4.408   8.942  0.00  0.00    +0.000 C 
BRANCH  10  12
ATOM     12  C   UNL     1      45.472   2.277   8.337  0.00  0.00    +0.000 A 
ATOM     13  C   UNL     1      45.821   0.929   8.522  0.00  0.00    +0.000 A 
ATOM     14  C   UNL     1      46.713   0.285   7.661  0.00  0.00    +0.000 A 
ATOM     15  C   UNL     1      47.281   0.980   6.597  0.00  0.00    +0.000 A 
ATOM     16  C   UNL     1      46.960   2.324   6.410  0.00  0.00    +0.000 A 
ATOM     17 CL   UNL     1      47.665   3.182   5.093  0.00  0.00    +0.000 Cl
ATOM     18  C   UNL     1      46.066   2.972   7.268  0.00  0.00    +0.000 A 
ENDBRANCH  10  12
ENDBRANCH   7  10
TORSDOF 2
ENDMDL
MODEL 7
REMARK VINA RESULT:    -6.389      2.873      3.579
REMARK INTER + INTRA:          -6.490
REMARK INTER:                  -6.378
REMARK INTRA:                  -0.113
REMARK UNBOUND:                 0.646
REMARK  Name = 
REMARK  4 active torsions:
REMARK  status: ('A' for Active; 'I' for Inactive)
REMARK    1  A    between atoms: C_1  and  C_2
REMARK    2  A    between atoms: N_7  and  C_8
REMARK    3  A    between atoms: C_8  and  C_9
REMARK    4  A    between atoms: C_8  and  C_10
REMARK                            x       y       z     vdW  Elec       q    Type
REMARK                         _______ _______ _______ _____ _____    ______ ____
ROOT
ATOM      1  C   UNL     1      46.179   2.877   6.936  0.00  0.00    +0.000 C 
ATOM      2  C   UNL     1      45.580   3.274   8.253  0.00  0.00    +0.000 A 
ATOM      3  C   UNL     1      44.905   2.360   9.025  0.00  0.00    +0.000 A 
ATOM      4  C   UNL     1      44.364   2.853  10.189  0.00  0.00    +0.000 A 
ATOM      5  N   UNL     1      44.485   4.137  10.585  0.00  0.00    +0.000 NA
ATOM      6  C   UNL     1      45.167   4.960   9.779  0.00  0.00    +0.000 A 
ATOM      7  N   UNL     1      45.325   6.302  10.087  0.00  0.00    +0.000 N 
ATOM      8  N   UNL     1      45.724   4.570   8.620  0.00  0.00    +0.000 NA
ATOM      9  H   UNL     1      46.050   6.661   9.480  0.00  0.00    +0.000 HD
ENDROOT
BRANCH   7  10
ATOM     10  C   UNL     1      45.397   6.692  11.485  0.00  0.00    +0.000 C 
ATOM     11  C   UNL     1      46.582   6.026  12.194  0.00  0.00    +0.000 C 
BRANCH  10  12
ATOM     12  C   UNL     1      45.506   8.214  11.596  0.00  0.00    +0.000 A 
ATOM     13  C   UNL     1      44.424   9.013  11.188  0.00  0.00    +0.000 A 
ATOM     14  C   UNL     1      44.452  10.402  11.333  0.00  0.00    +0.000 A 
ATOM     15  C   UNL     1      45.570  11.024  11.884  0.00  0.00    +0.000 A 
ATOM     16  C   UNL     1      46.659  10.248  12.276  0.00  0.00    +0.000 A 
ATOM     17 CL   UNL     1      48.040  11.020  12.957  0.00  0.00    +0.000 Cl
ATOM     18  C   UNL     1      46.635   8.856  12.135  0.00  0.00    +0.000 A 
ENDBRANCH  10  12
ENDBRANCH   7  10
TORSDOF 2
ENDMDL
MODEL 8
REMARK VINA RESULT:    -6.194      3.517      6.016
REMARK INTER + INTRA:          -6.273
REMARK INTER:                  -5.956
REMARK INTRA:                  -0.316
REMARK UNBOUND:                 0.646
REMARK  Name = 
REMARK  4 active torsions:
REMARK  status: ('A' for Active; 'I' for Inactive)
REMARK    1  A    between atoms: C_1  and  C_2
REMARK    2  A    between atoms: N_7  and  C_8
REMARK    3  A    between atoms: C_8  and  C_9
REMARK    4  A    between atoms: C_8  and  C_10
REMARK                            x       y       z     vdW  Elec       q    Type
REMARK                         _______ _______ _______ _____ _____    ______ ____
ROOT
ATOM      1  C   UNL     1      51.297   8.626  11.882  0.00  0.00    +0.000 C 
ATOM      2  C   UNL     1      50.138   8.022  12.619  0.00  0.00    +0.000 A 
ATOM      3  C   UNL     1      50.174   7.865  13.983  0.00  0.00    +0.000 A 
ATOM      4  C   UNL     1      49.072   7.259  14.539  0.00  0.00    +0.000 A 
ATOM      5  N   UNL     1      48.003   6.852  13.824  0.00  0.00    +0.000 NA
ATOM      6  C   UNL     1      48.044   7.050  12.501  0.00  0.00    +0.000 A 
ATOM      7  N   UNL     1      47.005   6.645  11.679  0.00  0.00    +0.000 N 
ATOM      8  N   UNL     1      49.081   7.627  11.870  0.00  0.00    +0.000 NA
ATOM      9  H   UNL     1      47.143   7.097  10.784  0.00  0.00    +0.000 HD
ENDROOT
BRANCH   7  10
ATOM     10  C   UNL     1      45.653   6.654  12.210  0.00  0.00    +0.000 C 
ATOM     11  C   UNL     1      44.824   7.800  11.619  0.00  0.00    +0.000 C 
BRANCH  10  12
ATOM     12  C   UNL     1      44.973   5.313  11.926  0.00  0.00    +0.000 A 
ATOM     13  C   UNL     1      44.190   4.713  12.925  0.00  0.00    +0.000 A 
ATOM     14  C   UNL     1      43.496   3.523  12.688  0.00  0.00    +0.000 A 
ATOM     15  C   UNL     1      43.579   2.903  11.444  0.00  0.00    +0.000 A 
ATOM     16  C   UNL     1      44.368   3.475  10.447  0.00  0.00    +0.000 A 
ATOM     17 CL   UNL     1      44.469   2.707   8.909  0.00  0.00    +0.000 Cl
ATOM     18  C   UNL     1      45.062   4.667  10.679  0.00  0.00    +0.000 A 
ENDBRANCH  10  12
ENDBRANCH   7  10
TORSDOF 2
ENDMDL
MODEL 9
REMARK VINA RESULT:    -6.018      3.000      4.662
REMARK INTER + INTRA:          -6.076
REMARK INTER:                  -5.686
REMARK INTRA:                  -0.390
REMARK UNBOUND:                 0.646
REMARK  Name = 
REMARK  4 active torsions:
REMARK  status: ('A' for Active; 'I' for Inactive)
REMARK    1  A    between atoms: C_1  and  C_2
REMARK    2  A    between atoms: N_7  and  C_8
REMARK    3  A    between atoms: C_8  and  C_9
REMARK    4  A    between atoms: C_8  and  C_10
REMARK                            x       y       z     vdW  Elec       q    Type
REMARK                         _______ _______ _______ _____ _____    ______ ____
ROOT
ATOM      1  C   UNL     1      43.427   2.614  11.760  0.00  0.00    +0.000 C 
ATOM      2  C   UNL     1      44.280   3.705  11.183  0.00  0.00    +0.000 A 
ATOM      3  C   UNL     1      44.499   3.789   9.829  0.00  0.00    +0.000 A 
ATOM      4  C   UNL     1      45.333   4.804   9.426  0.00  0.00    +0.000 A 
ATOM      5  N   UNL     1      45.900   5.688  10.274  0.00  0.00    +0.000 NA
ATOM      6  C   UNL     1      45.628   5.542  11.576  0.00  0.00    +0.000 A 
ATOM      7  N   UNL     1      46.181   6.385  12.527  0.00  0.00    +0.000 N 
ATOM      8  N   UNL     1      44.830   4.575  12.063  0.00  0.00    +0.000 NA
ATOM      9  H   UNL     1      45.664   6.241  13.385  0.00  0.00    +0.000 HD
ENDROOT
BRANCH   7  10
ATOM     10  C   UNL     1      46.459   7.762  12.159  0.00  0.00    +0.000 C 
ATOM     11  C   UNL     1      45.633   8.746  12.995  0.00  0.00    +0.000 C 
BRANCH  10  12
ATOM     12  C   UNL     1      47.952   8.054  12.326  0.00  0.00    +0.000 A 
ATOM     13  C   UNL     1      48.399   8.717  13.481  0.00  0.00    +0.000 A 
ATOM     14  C   UNL     1      49.759   8.943  13.707  0.00  0.00    +0.000 A 
ATOM     15  C   UNL     1      50.702   8.518  12.776  0.00  0.00    +0.000 A 
ATOM     16  C   UNL     1      50.274   7.876  11.615  0.00  0.00    +0.000 A 
ATOM     17 CL   UNL     1      51.443   7.350  10.465  0.00  0.00    +0.000 Cl
ATOM     18  C   UNL     1      48.914   7.644  11.385  0.00  0.00    +0.000 A 
ENDBRANCH  10  12
ENDBRANCH   7  10
TORSDOF 2
ENDMDL
