MODEL 1
REMARK VINA RESULT:    -7.732      0.000      0.000
REMARK INTER + INTRA:         -10.855
REMARK INTER:                 -10.218
REMARK INTRA:                  -0.637
REMARK UNBOUND:                -0.637
REMARK  Name = 
REMARK  6 active torsions:
REMARK  status: ('A' for Active; 'I' for Inactive)
REMARK    1  A    between atoms: N_1  and  C_2
REMARK    2  A    between atoms: C_2  and  C_3
REMARK    3  A    between atoms: C_3  and  C_4
REMARK    4  A    between atoms: C_7  and  C_8
REMARK    5  A    between atoms: C_8  and  N_9
REMARK    6  A    between atoms: C_14  and  C_15
REMARK                            x       y       z     vdW  Elec       q    Type
REMARK                         _______ _______ _______ _____ _____    ______ ____
ROOT
ATOM      1  N   UNL     1      44.711   5.867  11.101  0.00  0.00    +0.000 N 
ATOM      2  N   UNL     1      45.160   7.106  10.786  0.00  0.00    +0.000 NA
ATOM      3  C   UNL     1      46.074   7.358  11.723  0.00  0.00    +0.000 A 
ATOM      4  C   UNL     1      46.197   6.308  12.654  0.00  0.00    +0.000 A 
ATOM      5  C   UNL     1      47.024   6.034  13.743  0.00  0.00    +0.000 A 
ATOM      6  C   UNL     1      46.773   4.841  14.405  0.00  0.00    +0.000 A 
ATOM      7  N   UNL     1      45.747   3.987  14.118  0.00  0.00    +0.000 NA
ATOM      8  C   UNL     1      44.946   4.260  13.057  0.00  0.00    +0.000 A 
ATOM      9  C   UNL     1      45.212   5.392  12.292  0.00  0.00    +0.000 A 
ENDROOT
BRANCH   6  10
ATOM     10  C   UNL     1      47.742   4.415  15.473  0.00  0.00    +0.000 C 
ATOM     11  N   UNL     1      47.563   3.156  15.971  0.00  0.00    +0.000 N 
ATOM     12  O   UNL     1      48.662   5.129  15.845  0.00  0.00    +0.000 OA
ATOM     13  H   UNL     1      46.846   2.557  15.576  0.00  0.00    +0.000 HD
ATOM     14  H   UNL     1      48.246   2.783  16.615  0.00  0.00    +0.000 HD
ENDBRANCH   6  10
BRANCH   1  15
ATOM     15  C   UNL     1      43.814   5.195  10.174  0.00  0.00    +0.000 C 
BRANCH  15  19
ATOM     16  C   UNL     1      46.078   2.301   7.971  0.00  0.00    +0.000 A 
ATOM     17  C   UNL     1      45.179   1.850   8.936  0.00  0.00    +0.000 A 
ATOM     18  C   UNL     1      44.388   2.767   9.638  0.00  0.00    +0.000 A 
ATOM     19  C   UNL     1      44.492   4.129   9.344  0.00  0.00    +0.000 A 
ATOM     20  N   UNL     1      45.322   4.576   8.367  0.00  0.00    +0.000 NA
ATOM     21  C   UNL     1      46.087   3.666   7.713  0.00  0.00    +0.000 A 
BRANCH  16  22
ATOM     22  C   UNL     1      47.037   1.377   7.265  0.00  0.00    +0.000 C 
BRANCH  22  23
ATOM     23  C   UNL     1      48.292   2.075   6.729  0.00  0.00    +0.000 C 
BRANCH  23  24
ATOM     24  N   UNL     1      48.416   1.877   5.284  0.00  0.00    +0.000 NA
ATOM     25  H   UNL     1      49.166   2.467   4.923  0.00  0.00    +0.000 HD
ATOM     26  H   UNL     1      47.565   2.184   4.816  0.00  0.00    +0.000 HD
ENDBRANCH  23  24
ENDBRANCH  22  23
ENDBRANCH  16  22
ENDBRANCH  15  19
ENDBRANCH   1  15
TORSDOF 6
ENDMDL
MODEL 2
REMARK VINA RESULT:    -7.581      2.684      6.792
REMARK INTER + INTRA:         -10.657
REMARK INTER:                 -10.045
REMARK INTRA:                  -0.612
REMARK UNBOUND:                -0.637
REMARK  Name = 
REMARK  6 active torsions:
REMARK  status: ('A' for Active; 'I' for Inactive)
REMARK    1  A    between atoms: N_1  and  C_2
REMARK    2  A    between atoms: C_2  and  C_3
REMARK    3  A    between atoms: C_3  and  C_4
REMARK    4  A    between atoms: C_7  and  C_8
REMARK    5  A    between atoms: C_8  and  N_9
REMARK    6  A    between atoms: C_14  and  C_15
REMARK                            x       y       z     vdW  Elec       q    Type
REMARK                         _______ _______ _______ _____ _____    ______ ____
ROOT
ATOM      1  N   UNL     1      44.027   4.242  10.502  0.00  0.00    +0.000 N 
ATOM      2  N   UNL     1      43.388   3.187  11.062  0.00  0.00    +0.000 NA
ATOM      3  C   UNL     1      43.888   2.135  10.414  0.00  0.00    +0.000 A 
ATOM      4  C   UNL     1      44.819   2.504   9.423  0.00  0.00    +0.000 A 
ATOM      5  C   UNL     1      45.660   1.822   8.543  0.00  0.00    +0.000 A 
ATOM      6  C   UNL     1      46.425   2.619   7.703  0.00  0.00    +0.000 A 
ATOM      7  N   UNL     1      46.346   3.980   7.627  0.00  0.00    +0.000 NA
ATOM      8  C   UNL     1      45.525   4.636   8.485  0.00  0.00    +0.000 A 
ATOM      9  C   UNL     1      44.807   3.896   9.421  0.00  0.00    +0.000 A 
ENDROOT
BRANCH   6  10
ATOM     10  C   UNL     1      47.472   1.944   6.861  0.00  0.00    +0.000 C 
ATOM     11  N   UNL     1      48.521   2.728   6.474  0.00  0.00    +0.000 N 
ATOM     12  O   UNL     1      47.418   0.757   6.574  0.00  0.00    +0.000 OA
ATOM     13  H   UNL     1      48.581   3.685   6.805  0.00  0.00    +0.000 HD
ATOM     14  H   UNL     1      49.301   2.302   5.995  0.00  0.00    +0.000 HD
ENDBRANCH   6  10
BRANCH   1  15
ATOM     15  C   UNL     1      43.850   5.559  11.095  0.00  0.00    +0.000 C 
BRANCH  15  19
ATOM     16  C   UNL     1      47.521   6.688  12.994  0.00  0.00    +0.000 A 
ATOM     17  C   UNL     1      46.946   7.568  12.077  0.00  0.00    +0.000 A 
ATOM     18  C   UNL     1      45.721   7.250  11.477  0.00  0.00    +0.000 A 
ATOM     19  C   UNL     1      45.075   6.062  11.825  0.00  0.00    +0.000 A 
ATOM     20  N   UNL     1      45.597   5.224  12.757  0.00  0.00    +0.000 NA
ATOM     21  C   UNL     1      46.791   5.549  13.311  0.00  0.00    +0.000 A 
BRANCH  16  22
ATOM     22  C   UNL     1      48.889   6.917  13.584  0.00  0.00    +0.000 C 
BRANCH  22  23
ATOM     23  C   UNL     1      48.879   7.153  15.098  0.00  0.00    +0.000 C 
BRANCH  23  24
ATOM     24  N   UNL     1      49.449   6.004  15.805  0.00  0.00    +0.000 NA
ATOM     25  H   UNL     1      50.094   5.510  15.188  0.00  0.00    +0.000 HD
ATOM     26  H   UNL     1      48.713   5.338  16.036  0.00  0.00    +0.000 HD
ENDBRANCH  23  24
ENDBRANCH  22  23
ENDBRANCH  16  22
ENDBRANCH  15  19
ENDBRANCH   1  15
TORSDOF 6
ENDMDL
MODEL 3
REMARK VINA RESULT:    -7.510      1.992      2.781
REMARK INTER + INTRA:         -10.561
REMARK INTER:                 -10.073
REMARK INTRA:                  -0.489
REMARK UNBOUND:                -0.637
REMARK  Name = 
REMARK  6 active torsions:
REMARK  status: ('A' for Active; 'I' for Inactive)
REMARK    1  A    between atoms: N_1  and  C_2
REMARK    2  A    between atoms: C_2  and  C_3
REMARK    3  A    between atoms: C_3  and  C_4
REMARK    4  A    between atoms: C_7  and  C_8
REMARK    5  A    between atoms: C_8  and  N_9
REMARK    6  A    between atoms: C_14  and  C_15
REMARK                            x       y       z     vdW  Elec       q    Type
REMARK                         _______ _______ _______ _____ _____    ______ ____
ROOT
ATOM      1  N   UNL     1      45.600   4.363  12.579  0.00  0.00    +0.000 N 
ATOM      2  N   UNL     1      46.061   3.276  13.245  0.00  0.00    +0.000 NA
ATOM      3  C   UNL     1      46.986   3.777  14.063  0.00  0.00    +0.000 A 
ATOM      4  C   UNL     1      47.147   5.168  13.911  0.00  0.00    +0.000 A 
ATOM      5  C   UNL     1      47.894   6.160  14.546  0.00  0.00    +0.000 A 
ATOM      6  C   UNL     1      47.746   7.443  14.039  0.00  0.00    +0.000 A 
ATOM      7  N   UNL     1      47.005   7.770  12.940  0.00  0.00    +0.000 NA
ATOM      8  C   UNL     1      46.281   6.799  12.326  0.00  0.00    +0.000 A 
ATOM      9  C   UNL     1      46.310   5.511  12.852  0.00  0.00    +0.000 A 
ENDROOT
BRANCH   6  10
ATOM     10  C   UNL     1      48.390   8.573  14.793  0.00  0.00    +0.000 C 
ATOM     11  N   UNL     1      47.572   9.267  15.638  0.00  0.00    +0.000 N 
ATOM     12  O   UNL     1      49.581   8.830  14.695  0.00  0.00    +0.000 OA
ATOM     13  H   UNL     1      46.611   8.970  15.762  0.00  0.00    +0.000 HD
ATOM     14  H   UNL     1      47.975   9.968  16.243  0.00  0.00    +0.000 HD
ENDBRANCH   6  10
BRANCH   1  15
ATOM     15  C   UNL     1      44.442   4.209  11.713  0.00  0.00    +0.000 C 
BRANCH  15  19
ATOM     16  C   UNL     1      45.816   3.139   7.799  0.00  0.00    +0.000 A 
ATOM     17  C   UNL     1      45.236   2.152   8.595  0.00  0.00    +0.000 A 
ATOM     18  C   UNL     1      44.732   2.480   9.859  0.00  0.00    +0.000 A 
ATOM     19  C   UNL     1      44.794   3.804  10.299  0.00  0.00    +0.000 A 
ATOM     20  N   UNL     1      45.305   4.784   9.511  0.00  0.00    +0.000 NA
ATOM     21  C   UNL     1      45.800   4.435   8.298  0.00  0.00    +0.000 A 
BRANCH  16  22
ATOM     22  C   UNL     1      46.480   2.827   6.482  0.00  0.00    +0.000 C 
BRANCH  22  23
ATOM     23  C   UNL     1      47.615   1.804   6.585  0.00  0.00    +0.000 C 
BRANCH  23  24
ATOM     24  N   UNL     1      48.495   1.888   5.418  0.00  0.00    +0.000 NA
ATOM     25  H   UNL     1      48.625   2.866   5.158  0.00  0.00    +0.000 HD
ATOM     26  H   UNL     1      48.054   1.439   4.616  0.00  0.00    +0.000 HD
ENDBRANCH  23  24
ENDBRANCH  22  23
ENDBRANCH  16  22
ENDBRANCH  15  19
ENDBRANCH   1  15
TORSDOF 6
ENDMDL
MODEL 4
REMARK VINA RESULT:    -7.210      1.793      2.077
REMARK INTER + INTRA:         -10.166
REMARK INTER:                  -9.668
REMARK INTRA:                  -0.497
REMARK UNBOUND:                -0.637
REMARK  Name = 
REMARK  6 active torsions:
REMARK  status: ('A' for Active; 'I' for Inactive)
REMARK    1  A    between atoms: N_1  and  C_2
REMARK    2  A    between atoms: C_2  and  C_3
REMARK    3  A    between atoms: C_3  and  C_4
REMARK    4  A    between atoms: C_7  and  C_8
REMARK    5  A    between atoms: C_8  and  N_9
REMARK    6  A    between atoms: C_14  and  C_15
REMARK                            x       y       z     vdW  Elec       q    Type
REMARK                         _______ _______ _______ _____ _____    ______ ____
ROOT
ATOM      1  N   UNL     1      44.609   5.783  11.816  0.00  0.00    +0.000 N 
ATOM      2  N   UNL     1      44.096   6.989  11.470  0.00  0.00    +0.000 NA
ATOM      3  C   UNL     1      44.957   7.860  11.996  0.00  0.00    +0.000 A 
ATOM      4  C   UNL     1      46.000   7.230  12.702  0.00  0.00    +0.000 A 
ATOM      5  C   UNL     1      47.160   7.651  13.353  0.00  0.00    +0.000 A 
ATOM      6  C   UNL     1      47.917   6.650  13.943  0.00  0.00    +0.000 A 
ATOM      7  N   UNL     1      47.566   5.332  13.999  0.00  0.00    +0.000 NA
ATOM      8  C   UNL     1      46.435   4.929  13.365  0.00  0.00    +0.000 A 
ATOM      9  C   UNL     1      45.688   5.873  12.667  0.00  0.00    +0.000 A 
ENDROOT
BRANCH   6  10
ATOM     10  C   UNL     1      49.260   7.026  14.504  0.00  0.00    +0.000 C 
ATOM     11  N   UNL     1      50.202   7.405  13.591  0.00  0.00    +0.000 N 
ATOM     12  O   UNL     1      49.489   7.038  15.705  0.00  0.00    +0.000 OA
ATOM     13  H   UNL     1      49.952   7.471  12.610  0.00  0.00    +0.000 HD
ATOM     14  H   UNL     1      51.087   7.765  13.920  0.00  0.00    +0.000 HD
ENDBRANCH   6  10
BRANCH   1  15
ATOM     15  C   UNL     1      44.009   4.584  11.252  0.00  0.00    +0.000 C 
BRANCH  15  19
ATOM     16  C   UNL     1      45.841   2.885   7.772  0.00  0.00    +0.000 A 
ATOM     17  C   UNL     1      46.001   4.250   8.011  0.00  0.00    +0.000 A 
ATOM     18  C   UNL     1      45.457   4.825   9.165  0.00  0.00    +0.000 A 
ATOM     19  C   UNL     1      44.779   4.017  10.081  0.00  0.00    +0.000 A 
ATOM     20  N   UNL     1      44.665   2.678   9.888  0.00  0.00    +0.000 NA
ATOM     21  C   UNL     1      45.189   2.150   8.754  0.00  0.00    +0.000 A 
BRANCH  16  22
ATOM     22  C   UNL     1      46.302   2.229   6.495  0.00  0.00    +0.000 C 
BRANCH  22  23
ATOM     23  C   UNL     1      47.583   1.404   6.648  0.00  0.00    +0.000 C 
BRANCH  23  24
ATOM     24  N   UNL     1      48.616   1.876   5.724  0.00  0.00    +0.000 NA
ATOM     25  H   UNL     1      49.411   2.232   6.254  0.00  0.00    +0.000 HD
ATOM     26  H   UNL     1      48.263   2.663   5.180  0.00  0.00    +0.000 HD
ENDBRANCH  23  24
ENDBRANCH  22  23
ENDBRANCH  16  22
ENDBRANCH  15  19
ENDBRANCH   1  15
TORSDOF 6
ENDMDL
MODEL 5
REMARK VINA RESULT:    -5.972      3.552      7.852
REMARK INTER + INTRA:          -8.530
REMARK INTER:                  -8.027
REMARK INTRA:                  -0.502
REMARK UNBOUND:                -0.637
REMARK  Name = 
REMARK  6 active torsions:
REMARK  status: ('A' for Active; 'I' for Inactive)
REMARK    1  A    between atoms: N_1  and  C_2
REMARK    2  A    between atoms: C_2  and  C_3
REMARK    3  A    between atoms: C_3  and  C_4
REMARK    4  A    between atoms: C_7  and  C_8
REMARK    5  A    between atoms: C_8  and  N_9
REMARK    6  A    between atoms: C_14  and  C_15
REMARK                            x       y       z     vdW  Elec       q    Type
REMARK                         _______ _______ _______ _____ _____    ______ ____
ROOT
ATOM      1  N   UNL     1      48.081   5.800  15.155  0.00  0.00    +0.000 N 
ATOM      2  N   UNL     1      49.075   6.625  14.744  0.00  0.00    +0.000 NA
ATOM      3  C   UNL     1      48.764   6.885  13.474  0.00  0.00    +0.000 A 
ATOM      4  C   UNL     1      47.599   6.214  13.055  0.00  0.00    +0.000 A 
ATOM      5  C   UNL     1      46.822   6.196  11.896  0.00  0.00    +0.000 A 
ATOM      6  C   UNL     1      45.725   5.346  11.920  0.00  0.00    +0.000 A 
ATOM      7  N   UNL     1      45.418   4.491  12.939  0.00  0.00    +0.000 NA
ATOM      8  C   UNL     1      46.180   4.514  14.063  0.00  0.00    +0.000 A 
ATOM      9  C   UNL     1      47.234   5.420  14.139  0.00  0.00    +0.000 A 
ENDROOT
BRANCH   6  10
ATOM     10  C   UNL     1      44.759   5.417  10.770  0.00  0.00    +0.000 C 
ATOM     11  N   UNL     1      45.303   5.275   9.526  0.00  0.00    +0.000 N 
ATOM     12  O   UNL     1      43.554   5.547  10.934  0.00  0.00    +0.000 OA
ATOM     13  H   UNL     1      46.294   5.079   9.431  0.00  0.00    +0.000 HD
ATOM     14  H   UNL     1      44.689   5.213   8.727  0.00  0.00    +0.000 HD
ENDBRANCH   6  10
BRANCH   1  15
ATOM     15  C   UNL     1      48.006   5.450  16.564  0.00  0.00    +0.000 C 
BRANCH  15  19
ATOM     16  C   UNL     1      50.819   2.309  17.324  0.00  0.00    +0.000 A 
ATOM     17  C   UNL     1      51.129   3.600  17.753  0.00  0.00    +0.000 A 
ATOM     18  C   UNL     1      50.209   4.638  17.564  0.00  0.00    +0.000 A 
ATOM     19  C   UNL     1      48.976   4.363  16.969  0.00  0.00    +0.000 A 
ATOM     20  N   UNL     1      48.640   3.100  16.598  0.00  0.00    +0.000 NA
ATOM     21  C   UNL     1      49.556   2.117  16.780  0.00  0.00    +0.000 A 
BRANCH  16  22
ATOM     22  C   UNL     1      51.811   1.176  17.394  0.00  0.00    +0.000 C 
BRANCH  22  23
ATOM     23  C   UNL     1      53.133   1.549  18.072  0.00  0.00    +0.000 C 
BRANCH  23  24
ATOM     24  N   UNL     1      53.767   0.365  18.655  0.00  0.00    +0.000 NA
ATOM     25  H   UNL     1      54.565   0.650  19.223  0.00  0.00    +0.000 HD
ATOM     26  H   UNL     1      54.143  -0.228  17.917  0.00  0.00    +0.000 HD
ENDBRANCH  23  24
ENDBRANCH  22  23
ENDBRANCH  16  22
ENDBRANCH  15  19
ENDBRANCH   1  15
TORSDOF 6
ENDMDL
MODEL 6
REMARK VINA RESULT:    -5.460      4.483      8.059
REMARK INTER + INTRA:          -7.853
REMARK INTER:                  -7.259
REMARK INTRA:                  -0.595
REMARK UNBOUND:                -0.637
REMARK  Name = 
REMARK  6 active torsions:
REMARK  status: ('A' for Active; 'I' for Inactive)
REMARK    1  A    between atoms: N_1  and  C_2
REMARK    2  A    between atoms: C_2  and  C_3
REMARK    3  A    between atoms: C_3  and  C_4
REMARK    4  A    between atoms: C_7  and  C_8
REMARK    5  A    between atoms: C_8  and  N_9
REMARK    6  A    between atoms: C_14  and  C_15
REMARK                            x       y       z     vdW  Elec       q    Type
REMARK                         _______ _______ _______ _____ _____    ______ ____
ROOT
ATOM      1  N   UNL     1      48.410   7.505  13.403  0.00  0.00    +0.000 N 
ATOM      2  N   UNL     1      48.159   8.638  12.703  0.00  0.00    +0.000 NA
ATOM      3  C   UNL     1      46.907   8.475  12.277  0.00  0.00    +0.000 A 
ATOM      4  C   UNL     1      46.359   7.238  12.669  0.00  0.00    +0.000 A 
ATOM      5  C   UNL     1      45.113   6.621  12.559  0.00  0.00    +0.000 A 
ATOM      6  C   UNL     1      45.024   5.346  13.099  0.00  0.00    +0.000 A 
ATOM      7  N   UNL     1      46.066   4.647  13.636  0.00  0.00    +0.000 NA
ATOM      8  C   UNL     1      47.276   5.254  13.739  0.00  0.00    +0.000 A 
ATOM      9  C   UNL     1      47.402   6.571  13.307  0.00  0.00    +0.000 A 
ENDROOT
BRANCH   6  10
ATOM     10  C   UNL     1      43.664   4.707  13.163  0.00  0.00    +0.000 C 
ATOM     11  N   UNL     1      42.602   5.547  12.986  0.00  0.00    +0.000 N 
ATOM     12  O   UNL     1      43.512   3.504  13.319  0.00  0.00    +0.000 OA
ATOM     13  H   UNL     1      42.767   6.524  12.769  0.00  0.00    +0.000 HD
ATOM     14  H   UNL     1      41.674   5.156  12.918  0.00  0.00    +0.000 HD
ENDBRANCH   6  10
BRANCH   1  15
ATOM     15  C   UNL     1      49.645   7.416  14.166  0.00  0.00    +0.000 C 
BRANCH  15  19
ATOM     16  C   UNL     1      48.644   7.218  18.327  0.00  0.00    +0.000 A 
ATOM     17  C   UNL     1      49.454   6.219  17.788  0.00  0.00    +0.000 A 
ATOM     18  C   UNL     1      49.839   6.282  16.444  0.00  0.00    +0.000 A 
ATOM     19  C   UNL     1      49.428   7.363  15.662  0.00  0.00    +0.000 A 
ATOM     20  N   UNL     1      48.686   8.371  16.189  0.00  0.00    +0.000 NA
ATOM     21  C   UNL     1      48.315   8.277  17.490  0.00  0.00    +0.000 A 
BRANCH  16  22
ATOM     22  C   UNL     1      48.101   7.147  19.732  0.00  0.00    +0.000 C 
BRANCH  22  23
ATOM     23  C   UNL     1      47.321   5.863  20.032  0.00  0.00    +0.000 C 
BRANCH  23  24
ATOM     24  N   UNL     1      46.385   5.562  18.947  0.00  0.00    +0.000 NA
ATOM     25  H   UNL     1      45.450   5.879  19.206  0.00  0.00    +0.000 HD
ATOM     26  H   UNL     1      46.315   4.553  18.818  0.00  0.00    +0.000 HD
ENDBRANCH  23  24
ENDBRANCH  22  23
ENDBRANCH  16  22
ENDBRANCH  15  19
ENDBRANCH   1  15
TORSDOF 6
ENDMDL
MODEL 7
REMARK VINA RESULT:    -5.381      4.171      7.102
REMARK INTER + INTRA:          -7.749
REMARK INTER:                  -7.389
REMARK INTRA:                  -0.360
REMARK UNBOUND:                -0.637
REMARK  Name = 
REMARK  6 active torsions:
REMARK  status: ('A' for Active; 'I' for Inactive)
REMARK    1  A    between atoms: N_1  and  C_2
REMARK    2  A    between atoms: C_2  and  C_3
REMARK    3  A    between atoms: C_3  and  C_4
REMARK    4  A    between atoms: C_7  and  C_8
REMARK    5  A    between atoms: C_8  and  N_9
REMARK    6  A    between atoms: C_14  and  C_15
REMARK                            x       y       z     vdW  Elec       q    Type
REMARK                         _______ _______ _______ _____ _____    ______ ____
ROOT
ATOM      1  N   UNL     1      48.625   4.272  17.391  0.00  0.00    +0.000 N 
ATOM      2  N   UNL     1      48.959   5.465  17.942  0.00  0.00    +0.000 NA
ATOM      3  C   UNL     1      50.247   5.320  18.251  0.00  0.00    +0.000 A 
ATOM      4  C   UNL     1      50.739   4.039  17.933  0.00  0.00    +0.000 A 
ATOM      5  C   UNL     1      51.983   3.411  17.976  0.00  0.00    +0.000 A 
ATOM      6  C   UNL     1      52.003   2.086  17.563  0.00  0.00    +0.000 A 
ATOM      7  N   UNL     1      50.904   1.358  17.210  0.00  0.00    +0.000 NA
ATOM      8  C   UNL     1      49.696   1.977  17.172  0.00  0.00    +0.000 A 
ATOM      9  C   UNL     1      49.629   3.333  17.477  0.00  0.00    +0.000 A 
ENDROOT
BRANCH   6  10
ATOM     10  C   UNL     1      53.343   1.417  17.424  0.00  0.00    +0.000 C 
ATOM     11  N   UNL     1      53.315   0.101  17.058  0.00  0.00    +0.000 N 
ATOM     12  O   UNL     1      54.395   2.018  17.583  0.00  0.00    +0.000 OA
ATOM     13  H   UNL     1      52.428  -0.342  16.847  0.00  0.00    +0.000 HD
ATOM     14  H   UNL     1      54.185  -0.368  16.851  0.00  0.00    +0.000 HD
ENDBRANCH   6  10
BRANCH   1  15
ATOM     15  C   UNL     1      47.316   4.133  16.773  0.00  0.00    +0.000 C 
BRANCH  15  19
ATOM     16  C   UNL     1      46.793   5.685  12.814  0.00  0.00    +0.000 A 
ATOM     17  C   UNL     1      47.727   6.295  13.651  0.00  0.00    +0.000 A 
ATOM     18  C   UNL     1      47.956   5.781  14.933  0.00  0.00    +0.000 A 
ATOM     19  C   UNL     1      47.263   4.642  15.350  0.00  0.00    +0.000 A 
ATOM     20  N   UNL     1      46.394   4.006  14.524  0.00  0.00    +0.000 NA
ATOM     21  C   UNL     1      46.179   4.535  13.294  0.00  0.00    +0.000 A 
BRANCH  16  22
ATOM     22  C   UNL     1      46.416   6.258  11.471  0.00  0.00    +0.000 C 
BRANCH  22  23
ATOM     23  C   UNL     1      44.945   6.671  11.363  0.00  0.00    +0.000 C 
BRANCH  23  24
ATOM     24  N   UNL     1      44.606   7.654  12.394  0.00  0.00    +0.000 NA
ATOM     25  H   UNL     1      44.449   8.563  11.959  0.00  0.00    +0.000 HD
ATOM     26  H   UNL     1      45.393   7.777  13.029  0.00  0.00    +0.000 HD
ENDBRANCH  23  24
ENDBRANCH  22  23
ENDBRANCH  16  22
ENDBRANCH  15  19
ENDBRANCH   1  15
TORSDOF 6
ENDMDL
MODEL 8
REMARK VINA RESULT:    -5.286      3.717      5.836
REMARK INTER + INTRA:          -7.623
REMARK INTER:                  -7.150
REMARK INTRA:                  -0.473
REMARK UNBOUND:                -0.637
REMARK  Name = 
REMARK  6 active torsions:
REMARK  status: ('A' for Active; 'I' for Inactive)
REMARK    1  A    between atoms: N_1  and  C_2
REMARK    2  A    between atoms: C_2  and  C_3
REMARK    3  A    between atoms: C_3  and  C_4
REMARK    4  A    between atoms: C_7  and  C_8
REMARK    5  A    between atoms: C_8  and  N_9
REMARK    6  A    between atoms: C_14  and  C_15
REMARK                            x       y       z     vdW  Elec       q    Type
REMARK                         _______ _______ _______ _____ _____    ______ ____
ROOT
ATOM      1  N   UNL     1      48.722   7.242  15.145  0.00  0.00    +0.000 N 
ATOM      2  N   UNL     1      48.888   8.561  15.413  0.00  0.00    +0.000 NA
ATOM      3  C   UNL     1      49.071   8.593  16.733  0.00  0.00    +0.000 A 
ATOM      4  C   UNL     1      48.995   7.315  17.321  0.00  0.00    +0.000 A 
ATOM      5  C   UNL     1      49.181   6.795  18.601  0.00  0.00    +0.000 A 
ATOM      6  C   UNL     1      48.985   5.428  18.731  0.00  0.00    +0.000 A 
ATOM      7  N   UNL     1      48.552   4.601  17.735  0.00  0.00    +0.000 NA
ATOM      8  C   UNL     1      48.372   5.114  16.491  0.00  0.00    +0.000 A 
ATOM      9  C   UNL     1      48.652   6.460  16.276  0.00  0.00    +0.000 A 
ENDROOT
BRANCH   6  10
ATOM     10  C   UNL     1      49.341   4.790  20.045  0.00  0.00    +0.000 C 
ATOM     11  N   UNL     1      48.588   3.710  20.406  0.00  0.00    +0.000 N 
ATOM     12  O   UNL     1      50.275   5.181  20.731  0.00  0.00    +0.000 OA
ATOM     13  H   UNL     1      47.880   3.357  19.771  0.00  0.00    +0.000 HD
ATOM     14  H   UNL     1      48.850   3.183  21.227  0.00  0.00    +0.000 HD
ENDBRANCH   6  10
BRANCH   1  15
ATOM     15  C   UNL     1      48.670   6.816  13.755  0.00  0.00    +0.000 C 
BRANCH  15  19
ATOM     16  C   UNL     1      44.653   5.671  12.802  0.00  0.00    +0.000 A 
ATOM     17  C   UNL     1      45.011   7.013  12.677  0.00  0.00    +0.000 A 
ATOM     18  C   UNL     1      46.329   7.411  12.933  0.00  0.00    +0.000 A 
ATOM     19  C   UNL     1      47.279   6.451  13.287  0.00  0.00    +0.000 A 
ATOM     20  N   UNL     1      46.956   5.134  13.358  0.00  0.00    +0.000 NA
ATOM     21  C   UNL     1      45.669   4.778  13.120  0.00  0.00    +0.000 A 
BRANCH  16  22
ATOM     22  C   UNL     1      43.229   5.198  12.654  0.00  0.00    +0.000 C 
BRANCH  22  23
ATOM     23  C   UNL     1      42.974   4.388  11.379  0.00  0.00    +0.000 C 
BRANCH  23  24
ATOM     24  N   UNL     1      43.414   5.132  10.197  0.00  0.00    +0.000 NA
ATOM     25  H   UNL     1      43.012   6.069  10.215  0.00  0.00    +0.000 HD
ATOM     26  H   UNL     1      43.055   4.688   9.353  0.00  0.00    +0.000 HD
ENDBRANCH  23  24
ENDBRANCH  22  23
ENDBRANCH  16  22
ENDBRANCH  15  19
ENDBRANCH   1  15
TORSDOF 6
ENDMDL
MODEL 9
REMARK VINA RESULT:    -5.188      3.882      7.898
REMARK INTER + INTRA:          -7.494
REMARK INTER:                  -6.990
REMARK INTRA:                  -0.504
REMARK UNBOUND:                -0.637
REMARK  Name = 
REMARK  6 active torsions:
REMARK  status: ('A' for Active; 'I' for Inactive)
REMARK    1  A    between atoms: N_1  and  C_2
REMARK    2  A    between atoms: C_2  and  C_3
REMARK    3  A    between atoms: C_3  and  C_4
REMARK    4  A    between atoms: C_7  and  C_8
REMARK    5  A    between atoms: C_8  and  N_9
REMARK    6  A    between atoms: C_14  and  C_15
REMARK                            x       y       z     vdW  Elec       q    Type
REMARK                         _______ _______ _______ _____ _____    ______ ____
ROOT
ATOM      1  N   UNL     1      47.932   7.064  13.947  0.00  0.00    +0.000 N 
ATOM      2  N   UNL     1      48.346   7.806  12.891  0.00  0.00    +0.000 NA
ATOM      3  C   UNL     1      47.692   7.277  11.858  0.00  0.00    +0.000 A 
ATOM      4  C   UNL     1      46.884   6.185  12.231  0.00  0.00    +0.000 A 
ATOM      5  C   UNL     1      45.971   5.353  11.583  0.00  0.00    +0.000 A 
ATOM      6  C   UNL     1      45.396   4.363  12.367  0.00  0.00    +0.000 A 
ATOM      7  N   UNL     1      45.722   4.105  13.668  0.00  0.00    +0.000 NA
ATOM      8  C   UNL     1      46.613   4.917  14.291  0.00  0.00    +0.000 A 
ATOM      9  C   UNL     1      47.147   5.992  13.586  0.00  0.00    +0.000 A 
ENDROOT
BRANCH   6  10
ATOM     10  C   UNL     1      44.280   3.554  11.767  0.00  0.00    +0.000 C 
ATOM     11  N   UNL     1      43.807   2.530  12.536  0.00  0.00    +0.000 N 
ATOM     12  O   UNL     1      43.791   3.820  10.678  0.00  0.00    +0.000 OA
ATOM     13  H   UNL     1      44.174   2.394  13.471  0.00  0.00    +0.000 HD
ATOM     14  H   UNL     1      42.992   2.020  12.225  0.00  0.00    +0.000 HD
ENDBRANCH   6  10
BRANCH   1  15
ATOM     15  C   UNL     1      48.319   7.480  15.286  0.00  0.00    +0.000 C 
BRANCH  15  19
ATOM     16  C   UNL     1      51.593   5.458  17.169  0.00  0.00    +0.000 A 
ATOM     17  C   UNL     1      50.299   4.992  17.402  0.00  0.00    +0.000 A 
ATOM     18  C   UNL     1      49.212   5.601  16.763  0.00  0.00    +0.000 A 
ATOM     19  C   UNL     1      49.441   6.654  15.875  0.00  0.00    +0.000 A 
ATOM     20  N   UNL     1      50.700   7.079  15.597  0.00  0.00    +0.000 NA
ATOM     21  C   UNL     1      51.732   6.482  16.242  0.00  0.00    +0.000 A 
BRANCH  16  22
ATOM     22  C   UNL     1      52.790   4.923  17.914  0.00  0.00    +0.000 C 
BRANCH  22  23
ATOM     23  C   UNL     1      52.491   3.679  18.757  0.00  0.00    +0.000 C 
BRANCH  23  24
ATOM     24  N   UNL     1      52.378   4.029  20.174  0.00  0.00    +0.000 NA
ATOM     25  H   UNL     1      52.234   3.182  20.724  0.00  0.00    +0.000 HD
ATOM     26  H   UNL     1      51.552   4.608  20.325  0.00  0.00    +0.000 HD
ENDBRANCH  23  24
ENDBRANCH  22  23
ENDBRANCH  16  22
ENDBRANCH  15  19
ENDBRANCH   1  15
TORSDOF 6
ENDMDL
