MODEL 1
REMARK VINA RESULT:    -9.458      0.000      0.000
REMARK INTER + INTRA:         -13.191
REMARK INTER:                 -12.223
REMARK INTRA:                  -0.968
REMARK UNBOUND:                -0.968
REMARK  Name = 
REMARK  5 active torsions:
REMARK  status: ('A' for Active; 'I' for Inactive)
REMARK    1  A    between atoms: C_2  and  C_4
REMARK    2  A    between atoms: C_7  and  C_8
REMARK    3  A    between atoms: C_8  and  C_9
REMARK    4  A    between atoms: C_9  and  C_10
REMARK    5  A    between atoms: C_14  and  C_15
REMARK                            x       y       z     vdW  Elec       q    Type
REMARK                         _______ _______ _______ _____ _____    ______ ____
ROOT
ATOM      1  C   UNL     1      44.226   4.668  11.889  0.00  0.00    +0.000 C 
ATOM      2  C   UNL     1      43.500   3.738  12.857  0.00  0.00    +0.000 C 
ATOM      3  C   UNL     1      43.118   5.182  12.821  0.00  0.00    +0.000 C 
ENDROOT
BRANCH   1   4
ATOM      4  C   UNL     1      45.609   5.177  12.287  0.00  0.00    +0.000 A 
ATOM      5  C   UNL     1      46.188   6.249  11.607  0.00  0.00    +0.000 A 
ATOM      6  C   UNL     1      47.213   6.965  12.210  0.00  0.00    +0.000 A 
ATOM      7  C   UNL     1      47.670   6.569  13.462  0.00  0.00    +0.000 A 
ATOM      8  C   UNL     1      47.129   5.431  14.049  0.00  0.00    +0.000 A 
ATOM      9  N   UNL     1      46.121   4.738  13.464  0.00  0.00    +0.000 NA
BRANCH   8  10
ATOM     10  C   UNL     1      47.556   4.923  15.366  0.00  0.00    +0.000 A 
ATOM     11  C   UNL     1      47.142   3.669  15.845  0.00  0.00    +0.000 A 
ATOM     12  C   UNL     1      47.555   3.209  17.104  0.00  0.00    +0.000 A 
ATOM     13  C   UNL     1      48.388   3.997  17.884  0.00  0.00    +0.000 A 
ATOM     14  F   UNL     1      48.773   3.559  19.088  0.00  0.00    +0.000 F 
ATOM     15  C   UNL     1      48.830   5.231  17.430  0.00  0.00    +0.000 A 
ATOM     16  C   UNL     1      48.419   5.688  16.176  0.00  0.00    +0.000 A 
ENDBRANCH   8  10
ENDBRANCH   1   4
BRANCH   1  17
ATOM     17  C   UNL     1      43.861   4.646  10.419  0.00  0.00    +0.000 C 
BRANCH  17  21
ATOM     18  C   UNL     1      46.424   2.363   7.764  0.00  0.00    +0.000 A 
ATOM     19  C   UNL     1      46.406   3.759   7.644  0.00  0.00    +0.000 A 
ATOM     20  C   UNL     1      45.585   4.538   8.478  0.00  0.00    +0.000 A 
ATOM     21  C   UNL     1      44.761   3.931   9.431  0.00  0.00    +0.000 A 
ATOM     22  C   UNL     1      44.777   2.523   9.520  0.00  0.00    +0.000 A 
ATOM     23  C   UNL     1      45.590   1.745   8.695  0.00  0.00    +0.000 A 
BRANCH  18  25
ATOM     24  N   UNL     1      48.356   2.106   6.312  0.00  0.00    +0.000 N 
ATOM     25  C   UNL     1      47.310   1.495   6.948  0.00  0.00    +0.000 C 
ATOM     26  O   UNL     1      47.159   0.281   6.889  0.00  0.00    +0.000 OA
ATOM     27  H   UNL     1      49.042   1.487   5.897  0.00  0.00    +0.000 HD
ATOM     28  H   UNL     1      48.658   3.037   6.560  0.00  0.00    +0.000 HD
ENDBRANCH  18  25
ENDBRANCH  17  21
ENDBRANCH   1  17
TORSDOF 5
ENDMDL
MODEL 2
REMARK VINA RESULT:    -8.273      2.948      4.263
REMARK INTER + INTRA:         -11.660
REMARK INTER:                 -11.236
REMARK INTRA:                  -0.424
REMARK UNBOUND:                -0.968
REMARK  Name = 
REMARK  5 active torsions:
REMARK  status: ('A' for Active; 'I' for Inactive)
REMARK    1  A    between atoms: C_2  and  C_4
REMARK    2  A    between atoms: C_7  and  C_8
REMARK    3  A    between atoms: C_8  and  C_9
REMARK    4  A    between atoms: C_9  and  C_10
REMARK    5  A    between atoms: C_14  and  C_15
REMARK                            x       y       z     vdW  Elec       q    Type
REMARK                         _______ _______ _______ _____ _____    ______ ____
ROOT
ATOM      1  C   UNL     1      43.716   4.842  11.696  0.00  0.00    +0.000 C 
ATOM      2  C   UNL     1      42.396   5.438  12.179  0.00  0.00    +0.000 C 
ATOM      3  C   UNL     1      43.097   6.078  11.025  0.00  0.00    +0.000 C 
ENDROOT
BRANCH   1   4
ATOM      4  C   UNL     1      44.981   5.175  12.482  0.00  0.00    +0.000 A 
ATOM      5  C   UNL     1      45.634   4.184  13.216  0.00  0.00    +0.000 A 
ATOM      6  C   UNL     1      46.964   4.365  13.573  0.00  0.00    +0.000 A 
ATOM      7  C   UNL     1      47.603   5.550  13.226  0.00  0.00    +0.000 A 
ATOM      8  C   UNL     1      46.875   6.546  12.585  0.00  0.00    +0.000 A 
ATOM      9  N   UNL     1      45.579   6.366  12.229  0.00  0.00    +0.000 NA
BRANCH   8  10
ATOM     10  C   UNL     1      47.458   7.841  12.189  0.00  0.00    +0.000 A 
ATOM     11  C   UNL     1      48.782   7.948  11.731  0.00  0.00    +0.000 A 
ATOM     12  C   UNL     1      49.319   9.191  11.367  0.00  0.00    +0.000 A 
ATOM     13  C   UNL     1      48.532  10.329  11.451  0.00  0.00    +0.000 A 
ATOM     14  F   UNL     1      49.050  11.516  11.110  0.00  0.00    +0.000 F 
ATOM     15  C   UNL     1      47.215  10.254  11.879  0.00  0.00    +0.000 A 
ATOM     16  C   UNL     1      46.681   9.016  12.242  0.00  0.00    +0.000 A 
ENDBRANCH   8  10
ENDBRANCH   1   4
BRANCH   1  17
ATOM     17  C   UNL     1      43.701   3.586  10.850  0.00  0.00    +0.000 C 
BRANCH  17  21
ATOM     18  C   UNL     1      46.482   2.935   7.585  0.00  0.00    +0.000 A 
ATOM     19  C   UNL     1      46.152   4.252   7.933  0.00  0.00    +0.000 A 
ATOM     20  C   UNL     1      45.249   4.509   8.979  0.00  0.00    +0.000 A 
ATOM     21  C   UNL     1      44.654   3.455   9.679  0.00  0.00    +0.000 A 
ATOM     22  C   UNL     1      44.983   2.137   9.298  0.00  0.00    +0.000 A 
ATOM     23  C   UNL     1      45.879   1.876   8.260  0.00  0.00    +0.000 A 
BRANCH  18  25
ATOM     24  N   UNL     1      47.166   3.007   5.253  0.00  0.00    +0.000 N 
ATOM     25  C   UNL     1      47.469   2.605   6.525  0.00  0.00    +0.000 C 
ATOM     26  O   UNL     1      48.534   2.056   6.775  0.00  0.00    +0.000 OA
ATOM     27  H   UNL     1      47.913   2.924   4.574  0.00  0.00    +0.000 HD
ATOM     28  H   UNL     1      46.444   3.688   5.069  0.00  0.00    +0.000 HD
ENDBRANCH  18  25
ENDBRANCH  17  21
ENDBRANCH   1  17
TORSDOF 5
ENDMDL
MODEL 3
REMARK VINA RESULT:    -7.458      3.889      7.797
REMARK INTER + INTRA:         -10.606
REMARK INTER:                 -10.547
REMARK INTRA:                  -0.058
REMARK UNBOUND:                -0.968
REMARK  Name = 
REMARK  5 active torsions:
REMARK  status: ('A' for Active; 'I' for Inactive)
REMARK    1  A    between atoms: C_2  and  C_4
REMARK    2  A    between atoms: C_7  and  C_8
REMARK    3  A    between atoms: C_8  and  C_9
REMARK    4  A    between atoms: C_9  and  C_10
REMARK    5  A    between atoms: C_14  and  C_15
REMARK                            x       y       z     vdW  Elec       q    Type
REMARK                         _______ _______ _______ _____ _____    ______ ____
ROOT
ATOM      1  C   UNL     1      46.313   7.409  12.313  0.00  0.00    +0.000 C 
ATOM      2  C   UNL     1      46.098   8.815  11.757  0.00  0.00    +0.000 C 
ATOM      3  C   UNL     1      45.645   8.512  13.149  0.00  0.00    +0.000 C 
ENDROOT
BRANCH   1   4
ATOM      4  C   UNL     1      45.332   6.317  11.894  0.00  0.00    +0.000 A 
ATOM      5  C   UNL     1      43.982   6.415  12.234  0.00  0.00    +0.000 A 
ATOM      6  C   UNL     1      43.045   5.677  11.523  0.00  0.00    +0.000 A 
ATOM      7  C   UNL     1      43.479   4.824  10.515  0.00  0.00    +0.000 A 
ATOM      8  C   UNL     1      44.843   4.688  10.286  0.00  0.00    +0.000 A 
ATOM      9  N   UNL     1      45.757   5.415  10.974  0.00  0.00    +0.000 NA
BRANCH   8  10
ATOM     10  C   UNL     1      45.401   3.800   9.249  0.00  0.00    +0.000 A 
ATOM     11  C   UNL     1      45.304   2.401   9.342  0.00  0.00    +0.000 A 
ATOM     12  C   UNL     1      45.848   1.575   8.348  0.00  0.00    +0.000 A 
ATOM     13  C   UNL     1      46.485   2.144   7.256  0.00  0.00    +0.000 A 
ATOM     14  F   UNL     1      47.010   1.353   6.313  0.00  0.00    +0.000 F 
ATOM     15  C   UNL     1      46.580   3.522   7.125  0.00  0.00    +0.000 A 
ATOM     16  C   UNL     1      46.037   4.344   8.115  0.00  0.00    +0.000 A 
ENDBRANCH   8  10
ENDBRANCH   1   4
BRANCH   1  17
ATOM     17  C   UNL     1      47.691   6.998  12.789  0.00  0.00    +0.000 C 
BRANCH  17  21
ATOM     18  C   UNL     1      47.880   4.691  16.458  0.00  0.00    +0.000 A 
ATOM     19  C   UNL     1      48.622   5.877  16.372  0.00  0.00    +0.000 A 
ATOM     20  C   UNL     1      48.597   6.651  15.199  0.00  0.00    +0.000 A 
ATOM     21  C   UNL     1      47.842   6.244  14.095  0.00  0.00    +0.000 A 
ATOM     22  C   UNL     1      47.121   5.035  14.194  0.00  0.00    +0.000 A 
ATOM     23  C   UNL     1      47.142   4.263  15.356  0.00  0.00    +0.000 A 
BRANCH  18  25
ATOM     24  N   UNL     1      46.954   2.808  17.686  0.00  0.00    +0.000 N 
ATOM     25  C   UNL     1      47.826   3.862  17.689  0.00  0.00    +0.000 C 
ATOM     26  O   UNL     1      48.566   4.064  18.644  0.00  0.00    +0.000 OA
ATOM     27  H   UNL     1      47.043   2.159  18.458  0.00  0.00    +0.000 HD
ATOM     28  H   UNL     1      46.543   2.462  16.831  0.00  0.00    +0.000 HD
ENDBRANCH  18  25
ENDBRANCH  17  21
ENDBRANCH   1  17
TORSDOF 5
ENDMDL
MODEL 4
REMARK VINA RESULT:    -7.197      4.351      7.743
REMARK INTER + INTRA:         -10.269
REMARK INTER:                  -9.140
REMARK INTRA:                  -1.129
REMARK UNBOUND:                -0.968
REMARK  Name = 
REMARK  5 active torsions:
REMARK  status: ('A' for Active; 'I' for Inactive)
REMARK    1  A    between atoms: C_2  and  C_4
REMARK    2  A    between atoms: C_7  and  C_8
REMARK    3  A    between atoms: C_8  and  C_9
REMARK    4  A    between atoms: C_9  and  C_10
REMARK    5  A    between atoms: C_14  and  C_15
REMARK                            x       y       z     vdW  Elec       q    Type
REMARK                         _______ _______ _______ _____ _____    ______ ____
ROOT
ATOM      1  C   UNL     1      46.337   4.548  13.246  0.00  0.00    +0.000 C 
ATOM      2  C   UNL     1      46.076   4.457  14.748  0.00  0.00    +0.000 C 
ATOM      3  C   UNL     1      47.217   3.686  14.165  0.00  0.00    +0.000 C 
ENDROOT
BRANCH   1   4
ATOM      4  C   UNL     1      45.465   3.709  12.317  0.00  0.00    +0.000 A 
ATOM      5  C   UNL     1      44.119   3.494  12.618  0.00  0.00    +0.000 A 
ATOM      6  C   UNL     1      43.248   3.109  11.607  0.00  0.00    +0.000 A 
ATOM      7  C   UNL     1      43.745   2.903  10.326  0.00  0.00    +0.000 A 
ATOM      8  C   UNL     1      45.112   3.031  10.104  0.00  0.00    +0.000 A 
ATOM      9  N   UNL     1      45.961   3.416  11.088  0.00  0.00    +0.000 NA
BRANCH   8  10
ATOM     10  C   UNL     1      45.737   2.820   8.786  0.00  0.00    +0.000 A 
ATOM     11  C   UNL     1      45.957   3.882   7.893  0.00  0.00    +0.000 A 
ATOM     12  C   UNL     1      46.547   3.658   6.640  0.00  0.00    +0.000 A 
ATOM     13  C   UNL     1      46.925   2.374   6.280  0.00  0.00    +0.000 A 
ATOM     14  F   UNL     1      47.480   2.162   5.080  0.00  0.00    +0.000 F 
ATOM     15  C   UNL     1      46.740   1.308   7.147  0.00  0.00    +0.000 A 
ATOM     16  C   UNL     1      46.153   1.531   8.394  0.00  0.00    +0.000 A 
ENDBRANCH   8  10
ENDBRANCH   1   4
BRANCH   1  17
ATOM     17  C   UNL     1      47.020   5.777  12.682  0.00  0.00    +0.000 C 
BRANCH  17  21
ATOM     18  C   UNL     1      44.582   9.192  11.579  0.00  0.00    +0.000 A 
ATOM     19  C   UNL     1      45.634   9.383  12.485  0.00  0.00    +0.000 A 
ATOM     20  C   UNL     1      46.444   8.303  12.877  0.00  0.00    +0.000 A 
ATOM     21  C   UNL     1      46.204   7.018  12.380  0.00  0.00    +0.000 A 
ATOM     22  C   UNL     1      45.126   6.843  11.486  0.00  0.00    +0.000 A 
ATOM     23  C   UNL     1      44.318   7.912  11.095  0.00  0.00    +0.000 A 
BRANCH  18  25
ATOM     24  N   UNL     1      43.208  10.175   9.831  0.00  0.00    +0.000 N 
ATOM     25  C   UNL     1      43.728  10.304  11.090  0.00  0.00    +0.000 C 
ATOM     26  O   UNL     1      43.445  11.267  11.793  0.00  0.00    +0.000 OA
ATOM     27  H   UNL     1      42.502  10.854   9.574  0.00  0.00    +0.000 HD
ATOM     28  H   UNL     1      43.199   9.288   9.349  0.00  0.00    +0.000 HD
ENDBRANCH  18  25
ENDBRANCH  17  21
ENDBRANCH   1  17
TORSDOF 5
ENDMDL
MODEL 5
REMARK VINA RESULT:    -6.937      3.303      5.042
REMARK INTER + INTRA:          -9.934
REMARK INTER:                  -8.822
REMARK INTRA:                  -1.112
REMARK UNBOUND:                -0.968
REMARK  Name = 
REMARK  5 active torsions:
REMARK  status: ('A' for Active; 'I' for Inactive)
REMARK    1  A    between atoms: C_2  and  C_4
REMARK    2  A    between atoms: C_7  and  C_8
REMARK    3  A    between atoms: C_8  and  C_9
REMARK    4  A    between atoms: C_9  and  C_10
REMARK    5  A    between atoms: C_14  and  C_15
REMARK                            x       y       z     vdW  Elec       q    Type
REMARK                         _______ _______ _______ _____ _____    ______ ____
ROOT
ATOM      1  C   UNL     1      48.475   8.108  13.662  0.00  0.00    +0.000 C 
ATOM      2  C   UNL     1      47.621   9.329  13.330  0.00  0.00    +0.000 C 
ATOM      3  C   UNL     1      49.097   9.396  13.102  0.00  0.00    +0.000 C 
ENDROOT
BRANCH   1   4
ATOM      4  C   UNL     1      48.842   7.868  15.124  0.00  0.00    +0.000 A 
ATOM      5  C   UNL     1      48.452   8.780  16.106  0.00  0.00    +0.000 A 
ATOM      6  C   UNL     1      48.411   8.375  17.434  0.00  0.00    +0.000 A 
ATOM      7  C   UNL     1      48.801   7.082  17.759  0.00  0.00    +0.000 A 
ATOM      8  C   UNL     1      49.279   6.247  16.755  0.00  0.00    +0.000 A 
ATOM      9  N   UNL     1      49.310   6.640  15.458  0.00  0.00    +0.000 NA
BRANCH   8  10
ATOM     10  C   UNL     1      49.728   4.865  17.002  0.00  0.00    +0.000 A 
ATOM     11  C   UNL     1      51.046   4.574  17.393  0.00  0.00    +0.000 A 
ATOM     12  C   UNL     1      51.454   3.250  17.616  0.00  0.00    +0.000 A 
ATOM     13  C   UNL     1      50.544   2.216  17.456  0.00  0.00    +0.000 A 
ATOM     14  F   UNL     1      50.939   0.953  17.661  0.00  0.00    +0.000 F 
ATOM     15  C   UNL     1      49.231   2.473  17.090  0.00  0.00    +0.000 A 
ATOM     16  C   UNL     1      48.826   3.790  16.869  0.00  0.00    +0.000 A 
ENDBRANCH   8  10
ENDBRANCH   1   4
BRANCH   1  17
ATOM     17  C   UNL     1      48.490   6.929  12.711  0.00  0.00    +0.000 C 
BRANCH  17  21
ATOM     18  C   UNL     1      44.919   4.552  12.063  0.00  0.00    +0.000 A 
ATOM     19  C   UNL     1      45.183   5.617  11.192  0.00  0.00    +0.000 A 
ATOM     20  C   UNL     1      46.324   6.419  11.369  0.00  0.00    +0.000 A 
ATOM     21  C   UNL     1      47.207   6.175  12.427  0.00  0.00    +0.000 A 
ATOM     22  C   UNL     1      46.910   5.111  13.306  0.00  0.00    +0.000 A 
ATOM     23  C   UNL     1      45.779   4.313  13.134  0.00  0.00    +0.000 A 
BRANCH  18  25
ATOM     24  N   UNL     1      43.841   2.417  12.500  0.00  0.00    +0.000 N 
ATOM     25  C   UNL     1      43.759   3.639  11.892  0.00  0.00    +0.000 C 
ATOM     26  O   UNL     1      42.748   3.978  11.290  0.00  0.00    +0.000 OA
ATOM     27  H   UNL     1      42.986   1.874  12.515  0.00  0.00    +0.000 HD
ATOM     28  H   UNL     1      44.528   2.224  13.214  0.00  0.00    +0.000 HD
ENDBRANCH  18  25
ENDBRANCH  17  21
ENDBRANCH   1  17
TORSDOF 5
ENDMDL
MODEL 6
REMARK VINA RESULT:    -6.901      3.711      7.763
REMARK INTER + INTRA:          -9.886
REMARK INTER:                  -9.643
REMARK INTRA:                  -0.243
REMARK UNBOUND:                -0.968
REMARK  Name = 
REMARK  5 active torsions:
REMARK  status: ('A' for Active; 'I' for Inactive)
REMARK    1  A    between atoms: C_2  and  C_4
REMARK    2  A    between atoms: C_7  and  C_8
REMARK    3  A    between atoms: C_8  and  C_9
REMARK    4  A    between atoms: C_9  and  C_10
REMARK    5  A    between atoms: C_14  and  C_15
REMARK                            x       y       z     vdW  Elec       q    Type
REMARK                         _______ _______ _______ _____ _____    ______ ____
ROOT
ATOM      1  C   UNL     1      48.631   7.874  12.866  0.00  0.00    +0.000 C 
ATOM      2  C   UNL     1      49.610   7.406  11.792  0.00  0.00    +0.000 C 
ATOM      3  C   UNL     1      49.314   8.867  11.912  0.00  0.00    +0.000 C 
ENDROOT
BRANCH   1   4
ATOM      4  C   UNL     1      47.138   7.726  12.586  0.00  0.00    +0.000 A 
ATOM      5  C   UNL     1      46.288   8.827  12.699  0.00  0.00    +0.000 A 
ATOM      6  C   UNL     1      45.055   8.805  12.060  0.00  0.00    +0.000 A 
ATOM      7  C   UNL     1      44.678   7.667  11.356  0.00  0.00    +0.000 A 
ATOM      8  C   UNL     1      45.519   6.560  11.362  0.00  0.00    +0.000 A 
ATOM      9  N   UNL     1      46.726   6.585  11.978  0.00  0.00    +0.000 NA
BRANCH   8  10
ATOM     10  C   UNL     1      45.202   5.304  10.658  0.00  0.00    +0.000 A 
ATOM     11  C   UNL     1      45.547   5.103   9.311  0.00  0.00    +0.000 A 
ATOM     12  C   UNL     1      45.229   3.902   8.659  0.00  0.00    +0.000 A 
ATOM     13  C   UNL     1      44.573   2.898   9.353  0.00  0.00    +0.000 A 
ATOM     14  F   UNL     1      44.263   1.756   8.725  0.00  0.00    +0.000 F 
ATOM     15  C   UNL     1      44.236   3.058  10.689  0.00  0.00    +0.000 A 
ATOM     16  C   UNL     1      44.553   4.253  11.338  0.00  0.00    +0.000 A 
ENDBRANCH   8  10
ENDBRANCH   1   4
BRANCH   1  17
ATOM     17  C   UNL     1      49.090   7.959  14.307  0.00  0.00    +0.000 C 
BRANCH  17  21
ATOM     18  C   UNL     1      48.063   4.604  16.858  0.00  0.00    +0.000 A 
ATOM     19  C   UNL     1      48.986   5.547  17.330  0.00  0.00    +0.000 A 
ATOM     20  C   UNL     1      49.354   6.646  16.534  0.00  0.00    +0.000 A 
ATOM     21  C   UNL     1      48.816   6.807  15.253  0.00  0.00    +0.000 A 
ATOM     22  C   UNL     1      47.907   5.833  14.788  0.00  0.00    +0.000 A 
ATOM     23  C   UNL     1      47.538   4.741  15.575  0.00  0.00    +0.000 A 
BRANCH  18  25
ATOM     24  N   UNL     1      48.369   3.110  18.753  0.00  0.00    +0.000 N 
ATOM     25  C   UNL     1      47.598   3.454  17.676  0.00  0.00    +0.000 C 
ATOM     26  O   UNL     1      46.544   2.874  17.444  0.00  0.00    +0.000 OA
ATOM     27  H   UNL     1      47.960   2.439  19.391  0.00  0.00    +0.000 HD
ATOM     28  H   UNL     1      49.076   3.731  19.119  0.00  0.00    +0.000 HD
ENDBRANCH  18  25
ENDBRANCH  17  21
ENDBRANCH   1  17
TORSDOF 5
ENDMDL
MODEL 7
REMARK VINA RESULT:    -6.627      4.287      8.054
REMARK INTER + INTRA:          -9.532
REMARK INTER:                  -8.587
REMARK INTRA:                  -0.946
REMARK UNBOUND:                -0.968
REMARK  Name = 
REMARK  5 active torsions:
REMARK  status: ('A' for Active; 'I' for Inactive)
REMARK    1  A    between atoms: C_2  and  C_4
REMARK    2  A    between atoms: C_7  and  C_8
REMARK    3  A    between atoms: C_8  and  C_9
REMARK    4  A    between atoms: C_9  and  C_10
REMARK    5  A    between atoms: C_14  and  C_15
REMARK                            x       y       z     vdW  Elec       q    Type
REMARK                         _______ _______ _______ _____ _____    ______ ____
ROOT
ATOM      1  C   UNL     1      49.076   7.107  16.701  0.00  0.00    +0.000 C 
ATOM      2  C   UNL     1      50.062   7.983  17.470  0.00  0.00    +0.000 C 
ATOM      3  C   UNL     1      48.606   8.316  17.524  0.00  0.00    +0.000 C 
ENDROOT
BRANCH   1   4
ATOM      4  C   UNL     1      48.939   7.333  15.198  0.00  0.00    +0.000 A 
ATOM      5  C   UNL     1      50.010   7.843  14.463  0.00  0.00    +0.000 A 
ATOM      6  C   UNL     1      50.041   7.660  13.087  0.00  0.00    +0.000 A 
ATOM      7  C   UNL     1      48.981   7.008  12.467  0.00  0.00    +0.000 A 
ATOM      8  C   UNL     1      47.891   6.612  13.233  0.00  0.00    +0.000 A 
ATOM      9  N   UNL     1      47.865   6.783  14.578  0.00  0.00    +0.000 NA
BRANCH   8  10
ATOM     10  C   UNL     1      46.714   5.927  12.667  0.00  0.00    +0.000 A 
ATOM     11  C   UNL     1      45.948   5.025  13.423  0.00  0.00    +0.000 A 
ATOM     12  C   UNL     1      44.837   4.378  12.862  0.00  0.00    +0.000 A 
ATOM     13  C   UNL     1      44.484   4.639  11.547  0.00  0.00    +0.000 A 
ATOM     14  F   UNL     1      43.428   4.014  11.012  0.00  0.00    +0.000 F 
ATOM     15  C   UNL     1      45.208   5.540  10.781  0.00  0.00    +0.000 A 
ATOM     16  C   UNL     1      46.314   6.183  11.340  0.00  0.00    +0.000 A 
ENDBRANCH   8  10
ENDBRANCH   1   4
BRANCH   1  17
ATOM     17  C   UNL     1      48.678   5.759  17.267  0.00  0.00    +0.000 C 
BRANCH  17  21
ATOM     18  C   UNL     1      51.386   2.380  17.525  0.00  0.00    +0.000 A 
ATOM     19  C   UNL     1      51.899   3.667  17.729  0.00  0.00    +0.000 A 
ATOM     20  C   UNL     1      51.060   4.792  17.647  0.00  0.00    +0.000 A 
ATOM     21  C   UNL     1      49.702   4.645  17.346  0.00  0.00    +0.000 A 
ATOM     22  C   UNL     1      49.210   3.341  17.122  0.00  0.00    +0.000 A 
ATOM     23  C   UNL     1      50.040   2.221  17.202  0.00  0.00    +0.000 A 
BRANCH  18  25
ATOM     24  N   UNL     1      51.605   0.050  18.186  0.00  0.00    +0.000 N 
ATOM     25  C   UNL     1      52.214   1.153  17.653  0.00  0.00    +0.000 C 
ATOM     26  O   UNL     1      53.368   1.101  17.246  0.00  0.00    +0.000 OA
ATOM     27  H   UNL     1      52.124  -0.817  18.116  0.00  0.00    +0.000 HD
ATOM     28  H   UNL     1      50.601  -0.013  18.270  0.00  0.00    +0.000 HD
ENDBRANCH  18  25
ENDBRANCH  17  21
ENDBRANCH   1  17
TORSDOF 5
ENDMDL
