MODEL 1
REMARK VINA RESULT:    -8.225      0.000      0.000
REMARK INTER + INTRA:         -13.415
REMARK INTER:                 -12.312
REMARK INTRA:                  -1.103
REMARK UNBOUND:                -1.103
REMARK  Name = 
REMARK  10 active torsions:
REMARK  status: ('A' for Active; 'I' for Inactive)
REMARK    1  A    between atoms: C_1  and  O_2
REMARK    2  A    between atoms: O_2  and  C_3
REMARK    3  A    between atoms: C_10  and  C_11
REMARK    4  A    between atoms: N_13  and  C_14
REMARK    5  A    between atoms: C_14  and  C_15
REMARK    6  A    between atoms: C_18  and  O_19
REMARK    7  A    between atoms: O_19  and  C_20
REMARK    8  A    between atoms: C_20  and  C_21
REMARK    9  A    between atoms: C_21  and  O_22
REMARK   10  A    between atoms: C_21  and  C_23
REMARK                            x       y       z     vdW  Elec       q    Type
REMARK                         _______ _______ _______ _____ _____    ______ ____
ROOT
ATOM      1  C   UNL     1      47.111   6.456  12.855  0.00  0.00    +0.000 A 
ATOM      2  C   UNL     1      46.667   5.297  13.505  0.00  0.00    +0.000 A 
ATOM      3  C   UNL     1      45.692   4.476  12.923  0.00  0.00    +0.000 A 
ATOM      4  C   UNL     1      45.150   4.796  11.676  0.00  0.00    +0.000 A 
ATOM      5  C   UNL     1      45.601   5.944  11.020  0.00  0.00    +0.000 A 
ATOM      6  C   UNL     1      46.577   6.765  11.599  0.00  0.00    +0.000 A 
ENDROOT
BRANCH   1   7
ATOM      7  C   UNL     1      48.169   7.328  13.480  0.00  0.00    +0.000 C 
BRANCH   7  10
ATOM      8  C   UNL     1      49.171   7.016  15.700  0.00  0.00    +0.000 C 
ATOM      9  O   UNL     1      50.262   6.755  15.194  0.00  0.00    +0.000 OA
ATOM     10  N   UNL     1      48.085   7.304  14.919  0.00  0.00    +0.000 N 
ATOM     11  H   UNL     1      47.178   7.461  15.344  0.00  0.00    +0.000 HD
BRANCH   8  19
ATOM     12  C   UNL     1      48.865   4.541  18.077  0.00  0.00    +0.000 A 
ATOM     13  N   UNL     1      48.729   3.797  19.194  0.00  0.00    +0.000 NA
ATOM     14  C   UNL     1      48.583   4.431  20.360  0.00  0.00    +0.000 A 
ATOM     15  N   UNL     1      48.550   5.746  20.556  0.00  0.00    +0.000 NA
ATOM     16  C   UNL     1      48.696   6.450  19.420  0.00  0.00    +0.000 A 
ATOM     17  S   UNL     1      48.672   8.147  19.482  0.00  0.00    +0.000 S 
ATOM     18  C   UNL     1      48.892   8.259  17.801  0.00  0.00    +0.000 A 
ATOM     19  C   UNL     1      48.991   7.029  17.161  0.00  0.00    +0.000 A 
ATOM     20  C   UNL     1      48.869   5.946  18.135  0.00  0.00    +0.000 A 
BRANCH  12  22
ATOM     21  C   UNL     1      47.840   3.285  16.398  0.00  0.00    +0.000 C 
ATOM     22  O   UNL     1      49.044   3.881  16.879  0.00  0.00    +0.000 OA
ENDBRANCH  12  22
ENDBRANCH   8  19
ENDBRANCH   7  10
ENDBRANCH   1   7
BRANCH   4  23
ATOM     23  O   UNL     1      44.185   4.084  11.013  0.00  0.00    +0.000 OA
BRANCH  23  24
ATOM     24  C   UNL     1      44.605   2.861  10.392  0.00  0.00    +0.000 C 
BRANCH  24  25
ATOM     25  C   UNL     1      44.500   2.943   8.854  0.00  0.00    +0.000 C 
BRANCH  25  26
ATOM     26  C   UNL     1      45.727   2.475   8.102  0.00  0.00    +0.000 A 
ATOM     27  C   UNL     1      46.118   1.132   8.165  0.00  0.00    +0.000 A 
ATOM     28  C   UNL     1      47.240   0.724   7.461  0.00  0.00    +0.000 A 
ATOM     29  N   UNL     1      47.993   1.548   6.705  0.00  0.00    +0.000 NA
ATOM     30  C   UNL     1      47.598   2.837   6.643  0.00  0.00    +0.000 A 
ATOM     31  C   UNL     1      46.491   3.339   7.311  0.00  0.00    +0.000 A 
ENDBRANCH  25  26
BRANCH  25  32
ATOM     32  O   UNL     1      44.156   4.264   8.433  0.00  0.00    +0.000 OA
ATOM     33  H   UNL     1      43.306   4.196   7.965  0.00  0.00    +0.000 HD
ENDBRANCH  25  32
ENDBRANCH  24  25
ENDBRANCH  23  24
ENDBRANCH   4  23
TORSDOF 9
ENDMDL
MODEL 2
REMARK VINA RESULT:    -7.857      1.347      2.425
REMARK INTER + INTRA:         -12.864
REMARK INTER:                 -11.624
REMARK INTRA:                  -1.240
REMARK UNBOUND:                -1.103
REMARK  Name = 
REMARK  10 active torsions:
REMARK  status: ('A' for Active; 'I' for Inactive)
REMARK    1  A    between atoms: C_1  and  O_2
REMARK    2  A    between atoms: O_2  and  C_3
REMARK    3  A    between atoms: C_10  and  C_11
REMARK    4  A    between atoms: N_13  and  C_14
REMARK    5  A    between atoms: C_14  and  C_15
REMARK    6  A    between atoms: C_18  and  O_19
REMARK    7  A    between atoms: O_19  and  C_20
REMARK    8  A    between atoms: C_20  and  C_21
REMARK    9  A    between atoms: C_21  and  O_22
REMARK   10  A    between atoms: C_21  and  C_23
REMARK                            x       y       z     vdW  Elec       q    Type
REMARK                         _______ _______ _______ _____ _____    ______ ____
ROOT
ATOM      1  C   UNL     1      46.871   6.553  13.035  0.00  0.00    +0.000 A 
ATOM      2  C   UNL     1      46.608   5.241  13.450  0.00  0.00    +0.000 A 
ATOM      3  C   UNL     1      45.694   4.438  12.756  0.00  0.00    +0.000 A 
ATOM      4  C   UNL     1      45.033   4.930  11.629  0.00  0.00    +0.000 A 
ATOM      5  C   UNL     1      45.304   6.234  11.205  0.00  0.00    +0.000 A 
ATOM      6  C   UNL     1      46.219   7.038  11.897  0.00  0.00    +0.000 A 
ENDROOT
BRANCH   1   7
ATOM      7  C   UNL     1      47.865   7.407  13.779  0.00  0.00    +0.000 C 
BRANCH   7  10
ATOM      8  C   UNL     1      49.099   6.718  15.787  0.00  0.00    +0.000 C 
ATOM      9  O   UNL     1      50.156   6.699  15.156  0.00  0.00    +0.000 OA
ATOM     10  N   UNL     1      47.922   7.052  15.174  0.00  0.00    +0.000 N 
ATOM     11  H   UNL     1      47.050   7.009  15.688  0.00  0.00    +0.000 HD
BRANCH   8  19
ATOM     12  C   UNL     1      47.919   8.360  18.575  0.00  0.00    +0.000 A 
ATOM     13  N   UNL     1      47.545   8.762  19.808  0.00  0.00    +0.000 NA
ATOM     14  C   UNL     1      47.797   7.951  20.839  0.00  0.00    +0.000 A 
ATOM     15  N   UNL     1      48.392   6.763  20.794  0.00  0.00    +0.000 NA
ATOM     16  C   UNL     1      48.740   6.397  19.549  0.00  0.00    +0.000 A 
ATOM     17  S   UNL     1      49.519   4.908  19.304  0.00  0.00    +0.000 S 
ATOM     18  C   UNL     1      49.612   5.176  17.630  0.00  0.00    +0.000 A 
ATOM     19  C   UNL     1      49.059   6.383  17.219  0.00  0.00    +0.000 A 
ATOM     20  C   UNL     1      48.541   7.115  18.374  0.00  0.00    +0.000 A 
BRANCH  12  22
ATOM     21  C   UNL     1      48.655  10.154  17.277  0.00  0.00    +0.000 C 
ATOM     22  O   UNL     1      47.631   9.189  17.511  0.00  0.00    +0.000 OA
ENDBRANCH  12  22
ENDBRANCH   8  19
ENDBRANCH   7  10
ENDBRANCH   1   7
BRANCH   4  23
ATOM     23  O   UNL     1      44.111   4.250  10.878  0.00  0.00    +0.000 OA
BRANCH  23  24
ATOM     24  C   UNL     1      44.547   3.015  10.292  0.00  0.00    +0.000 C 
BRANCH  24  25
ATOM     25  C   UNL     1      44.513   3.079   8.749  0.00  0.00    +0.000 C 
BRANCH  25  26
ATOM     26  C   UNL     1      45.731   2.505   8.058  0.00  0.00    +0.000 A 
ATOM     27  C   UNL     1      46.575   3.340   7.317  0.00  0.00    +0.000 A 
ATOM     28  C   UNL     1      47.691   2.793   6.700  0.00  0.00    +0.000 A 
ATOM     29  N   UNL     1      48.022   1.488   6.768  0.00  0.00    +0.000 NA
ATOM     30  C   UNL     1      47.206   0.697   7.496  0.00  0.00    +0.000 A 
ATOM     31  C   UNL     1      46.070   1.151   8.148  0.00  0.00    +0.000 A 
ENDBRANCH  25  26
BRANCH  25  32
ATOM     32  O   UNL     1      44.292   4.415   8.295  0.00  0.00    +0.000 OA
ATOM     33  H   UNL     1      45.146   4.742   7.965  0.00  0.00    +0.000 HD
ENDBRANCH  25  32
ENDBRANCH  24  25
ENDBRANCH  23  24
ENDBRANCH   4  23
TORSDOF 9
ENDMDL
MODEL 3
REMARK VINA RESULT:    -7.774      1.005      1.200
REMARK INTER + INTRA:         -12.740
REMARK INTER:                 -11.536
REMARK INTRA:                  -1.204
REMARK UNBOUND:                -1.103
REMARK  Name = 
REMARK  10 active torsions:
REMARK  status: ('A' for Active; 'I' for Inactive)
REMARK    1  A    between atoms: C_1  and  O_2
REMARK    2  A    between atoms: O_2  and  C_3
REMARK    3  A    between atoms: C_10  and  C_11
REMARK    4  A    between atoms: N_13  and  C_14
REMARK    5  A    between atoms: C_14  and  C_15
REMARK    6  A    between atoms: C_18  and  O_19
REMARK    7  A    between atoms: O_19  and  C_20
REMARK    8  A    between atoms: C_20  and  C_21
REMARK    9  A    between atoms: C_21  and  O_22
REMARK   10  A    between atoms: C_21  and  C_23
REMARK                            x       y       z     vdW  Elec       q    Type
REMARK                         _______ _______ _______ _____ _____    ______ ____
ROOT
ATOM      1  C   UNL     1      46.570   7.247  12.860  0.00  0.00    +0.000 A 
ATOM      2  C   UNL     1      45.292   7.655  12.457  0.00  0.00    +0.000 A 
ATOM      3  C   UNL     1      44.423   6.764  11.813  0.00  0.00    +0.000 A 
ATOM      4  C   UNL     1      44.815   5.447  11.569  0.00  0.00    +0.000 A 
ATOM      5  C   UNL     1      46.084   5.033  11.982  0.00  0.00    +0.000 A 
ATOM      6  C   UNL     1      46.953   5.922  12.627  0.00  0.00    +0.000 A 
ENDROOT
BRANCH   1   7
ATOM      7  C   UNL     1      47.495   8.207  13.562  0.00  0.00    +0.000 C 
BRANCH   7  10
ATOM      8  C   UNL     1      48.771   8.324  15.657  0.00  0.00    +0.000 C 
ATOM      9  O   UNL     1      49.524   9.171  15.176  0.00  0.00    +0.000 OA
ATOM     10  N   UNL     1      47.747   7.794  14.920  0.00  0.00    +0.000 N 
ATOM     11  H   UNL     1      47.169   7.057  15.306  0.00  0.00    +0.000 HD
BRANCH   8  19
ATOM     12  C   UNL     1      48.585   5.222  17.142  0.00  0.00    +0.000 A 
ATOM     13  N   UNL     1      48.582   4.154  17.966  0.00  0.00    +0.000 NA
ATOM     14  C   UNL     1      48.827   4.358  19.263  0.00  0.00    +0.000 A 
ATOM     15  N   UNL     1      49.077   5.522  19.855  0.00  0.00    +0.000 NA
ATOM     16  C   UNL     1      49.080   6.557  18.999  0.00  0.00    +0.000 A 
ATOM     17  S   UNL     1      49.375   8.123  19.584  0.00  0.00    +0.000 S 
ATOM     18  C   UNL     1      49.215   8.787  18.029  0.00  0.00    +0.000 A 
ATOM     19  C   UNL     1      48.940   7.850  17.040  0.00  0.00    +0.000 A 
ATOM     20  C   UNL     1      48.855   6.513  17.626  0.00  0.00    +0.000 A 
BRANCH  12  22
ATOM     21  C   UNL     1      47.324   4.047  15.568  0.00  0.00    +0.000 C 
ATOM     22  O   UNL     1      48.360   5.001  15.799  0.00  0.00    +0.000 OA
ENDBRANCH  12  22
ENDBRANCH   8  19
ENDBRANCH   7  10
ENDBRANCH   1   7
BRANCH   4  23
ATOM     23  O   UNL     1      44.064   4.489  10.938  0.00  0.00    +0.000 OA
BRANCH  23  24
ATOM     24  C   UNL     1      44.770   3.339  10.450  0.00  0.00    +0.000 C 
BRANCH  24  25
ATOM     25  C   UNL     1      44.552   3.145   8.934  0.00  0.00    +0.000 C 
BRANCH  25  26
ATOM     26  C   UNL     1      45.733   2.561   8.188  0.00  0.00    +0.000 A 
ATOM     27  C   UNL     1      45.973   1.182   8.225  0.00  0.00    +0.000 A 
ATOM     28  C   UNL     1      47.056   0.668   7.526  0.00  0.00    +0.000 A 
ATOM     29  N   UNL     1      47.905   1.422   6.800  0.00  0.00    +0.000 NA
ATOM     30  C   UNL     1      47.655   2.747   6.763  0.00  0.00    +0.000 A 
ATOM     31  C   UNL     1      46.599   3.353   7.428  0.00  0.00    +0.000 A 
ENDBRANCH  25  26
BRANCH  25  32
ATOM     32  O   UNL     1      44.150   4.365   8.312  0.00  0.00    +0.000 OA
ATOM     33  H   UNL     1      43.748   4.914   9.007  0.00  0.00    +0.000 HD
ENDBRANCH  25  32
ENDBRANCH  24  25
ENDBRANCH  23  24
ENDBRANCH   4  23
TORSDOF 9
ENDMDL
MODEL 4
REMARK VINA RESULT:    -7.640      1.868      2.748
REMARK INTER + INTRA:         -12.540
REMARK INTER:                 -11.419
REMARK INTRA:                  -1.121
REMARK UNBOUND:                -1.103
REMARK  Name = 
REMARK  10 active torsions:
REMARK  status: ('A' for Active; 'I' for Inactive)
REMARK    1  A    between atoms: C_1  and  O_2
REMARK    2  A    between atoms: O_2  and  C_3
REMARK    3  A    between atoms: C_10  and  C_11
REMARK    4  A    between atoms: N_13  and  C_14
REMARK    5  A    between atoms: C_14  and  C_15
REMARK    6  A    between atoms: C_18  and  O_19
REMARK    7  A    between atoms: O_19  and  C_20
REMARK    8  A    between atoms: C_20  and  C_21
REMARK    9  A    between atoms: C_21  and  O_22
REMARK   10  A    between atoms: C_21  and  C_23
REMARK                            x       y       z     vdW  Elec       q    Type
REMARK                         _______ _______ _______ _____ _____    ______ ____
ROOT
ATOM      1  C   UNL     1      46.670   4.570  13.965  0.00  0.00    +0.000 A 
ATOM      2  C   UNL     1      46.363   3.354  13.341  0.00  0.00    +0.000 A 
ATOM      3  C   UNL     1      45.521   3.314  12.222  0.00  0.00    +0.000 A 
ATOM      4  C   UNL     1      44.977   4.491  11.703  0.00  0.00    +0.000 A 
ATOM      5  C   UNL     1      45.293   5.706  12.317  0.00  0.00    +0.000 A 
ATOM      6  C   UNL     1      46.136   5.749  13.434  0.00  0.00    +0.000 A 
ENDROOT
BRANCH   1   7
ATOM      7  C   UNL     1      47.586   4.608  15.161  0.00  0.00    +0.000 C 
BRANCH   7  10
ATOM      8  C   UNL     1      48.728   6.728  15.640  0.00  0.00    +0.000 C 
ATOM      9  O   UNL     1      49.732   6.348  15.039  0.00  0.00    +0.000 OA
ATOM     10  N   UNL     1      47.627   5.923  15.750  0.00  0.00    +0.000 N 
ATOM     11  H   UNL     1      46.828   6.223  16.295  0.00  0.00    +0.000 HD
BRANCH   8  19
ATOM     12  C   UNL     1      47.864   7.845  18.782  0.00  0.00    +0.000 A 
ATOM     13  N   UNL     1      47.593   8.544  19.903  0.00  0.00    +0.000 NA
ATOM     14  C   UNL     1      47.734   9.872  19.867  0.00  0.00    +0.000 A 
ATOM     15  N   UNL     1      48.117  10.607  18.827  0.00  0.00    +0.000 NA
ATOM     16  C   UNL     1      48.384   9.871  17.735  0.00  0.00    +0.000 A 
ATOM     17  S   UNL     1      48.881  10.647  16.308  0.00  0.00    +0.000 S 
ATOM     18  C   UNL     1      48.998   9.166  15.486  0.00  0.00    +0.000 A 
ATOM     19  C   UNL     1      48.671   8.061  16.262  0.00  0.00    +0.000 A 
ATOM     20  C   UNL     1      48.299   8.488  17.610  0.00  0.00    +0.000 A 
BRANCH  12  22
ATOM     21  C   UNL     1      47.367   6.003  20.128  0.00  0.00    +0.000 C 
ATOM     22  O   UNL     1      47.744   6.471  18.833  0.00  0.00    +0.000 OA
ENDBRANCH  12  22
ENDBRANCH   8  19
ENDBRANCH   7  10
ENDBRANCH   1   7
BRANCH   4  23
ATOM     23  O   UNL     1      44.134   4.580  10.627  0.00  0.00    +0.000 OA
BRANCH  23  24
ATOM     24  C   UNL     1      44.232   3.536   9.648  0.00  0.00    +0.000 C 
BRANCH  24  25
ATOM     25  C   UNL     1      44.956   4.023   8.374  0.00  0.00    +0.000 C 
BRANCH  25  26
ATOM     26  C   UNL     1      45.903   3.019   7.753  0.00  0.00    +0.000 A 
ATOM     27  C   UNL     1      46.646   3.365   6.618  0.00  0.00    +0.000 A 
ATOM     28  C   UNL     1      47.514   2.432   6.071  0.00  0.00    +0.000 A 
ATOM     29  N   UNL     1      47.693   1.192   6.569  0.00  0.00    +0.000 NA
ATOM     30  C   UNL     1      46.980   0.875   7.669  0.00  0.00    +0.000 A 
ATOM     31  C   UNL     1      46.089   1.740   8.287  0.00  0.00    +0.000 A 
ENDBRANCH  25  26
BRANCH  25  32
ATOM     32  O   UNL     1      45.650   5.247   8.614  0.00  0.00    +0.000 OA
ATOM     33  H   UNL     1      45.480   5.487   9.541  0.00  0.00    +0.000 HD
ENDBRANCH  25  32
ENDBRANCH  24  25
ENDBRANCH  23  24
ENDBRANCH   4  23
TORSDOF 9
ENDMDL
MODEL 5
REMARK VINA RESULT:    -7.322      1.744      2.166
REMARK INTER + INTRA:         -12.063
REMARK INTER:                 -10.686
REMARK INTRA:                  -1.377
REMARK UNBOUND:                -1.103
REMARK  Name = 
REMARK  10 active torsions:
REMARK  status: ('A' for Active; 'I' for Inactive)
REMARK    1  A    between atoms: C_1  and  O_2
REMARK    2  A    between atoms: O_2  and  C_3
REMARK    3  A    between atoms: C_10  and  C_11
REMARK    4  A    between atoms: N_13  and  C_14
REMARK    5  A    between atoms: C_14  and  C_15
REMARK    6  A    between atoms: C_18  and  O_19
REMARK    7  A    between atoms: O_19  and  C_20
REMARK    8  A    between atoms: C_20  and  C_21
REMARK    9  A    between atoms: C_21  and  O_22
REMARK   10  A    between atoms: C_21  and  C_23
REMARK                            x       y       z     vdW  Elec       q    Type
REMARK                         _______ _______ _______ _____ _____    ______ ____
ROOT
ATOM      1  C   UNL     1      47.296   6.615  12.919  0.00  0.00    +0.000 A 
ATOM      2  C   UNL     1      46.273   7.412  12.389  0.00  0.00    +0.000 A 
ATOM      3  C   UNL     1      44.946   6.963  12.377  0.00  0.00    +0.000 A 
ATOM      4  C   UNL     1      44.619   5.711  12.902  0.00  0.00    +0.000 A 
ATOM      5  C   UNL     1      45.636   4.920  13.443  0.00  0.00    +0.000 A 
ATOM      6  C   UNL     1      46.962   5.368  13.458  0.00  0.00    +0.000 A 
ENDROOT
BRANCH   1   7
ATOM      7  C   UNL     1      48.720   7.110  12.940  0.00  0.00    +0.000 C 
BRANCH   7  10
ATOM      8  C   UNL     1      49.007   7.897  15.248  0.00  0.00    +0.000 C 
ATOM      9  O   UNL     1      48.249   8.845  15.041  0.00  0.00    +0.000 OA
ATOM     10  N   UNL     1      49.295   6.999  14.257  0.00  0.00    +0.000 N 
ATOM     11  H   UNL     1      49.963   6.255  14.421  0.00  0.00    +0.000 HD
BRANCH   8  19
ATOM     12  C   UNL     1      49.180   5.215  17.403  0.00  0.00    +0.000 A 
ATOM     13  N   UNL     1      49.408   4.347  18.410  0.00  0.00    +0.000 NA
ATOM     14  C   UNL     1      50.113   4.772  19.461  0.00  0.00    +0.000 A 
ATOM     15  N   UNL     1      50.628   5.985  19.640  0.00  0.00    +0.000 NA
ATOM     16  C   UNL     1      50.385   6.815  18.612  0.00  0.00    +0.000 A 
ATOM     17  S   UNL     1      50.964   8.410  18.673  0.00  0.00    +0.000 S 
ATOM     18  C   UNL     1      50.298   8.762  17.151  0.00  0.00    +0.000 A 
ATOM     19  C   UNL     1      49.631   7.693  16.565  0.00  0.00    +0.000 A 
ATOM     20  C   UNL     1      49.682   6.528  17.446  0.00  0.00    +0.000 A 
BRANCH  12  22
ATOM     21  C   UNL     1      47.535   3.742  16.644  0.00  0.00    +0.000 C 
ATOM     22  O   UNL     1      48.475   4.762  16.307  0.00  0.00    +0.000 OA
ENDBRANCH  12  22
ENDBRANCH   8  19
ENDBRANCH   7  10
ENDBRANCH   1   7
BRANCH   4  23
ATOM     23  O   UNL     1      43.366   5.157  12.936  0.00  0.00    +0.000 OA
BRANCH  23  24
ATOM     24  C   UNL     1      42.914   4.521  11.731  0.00  0.00    +0.000 C 
BRANCH  24  25
ATOM     25  C   UNL     1      43.708   3.229  11.442  0.00  0.00    +0.000 C 
BRANCH  25  26
ATOM     26  C   UNL     1      44.507   3.244  10.157  0.00  0.00    +0.000 A 
ATOM     27  C   UNL     1      44.878   2.038   9.548  0.00  0.00    +0.000 A 
ATOM     28  C   UNL     1      45.602   2.076   8.366  0.00  0.00    +0.000 A 
ATOM     29  N   UNL     1      45.980   3.216   7.754  0.00  0.00    +0.000 NA
ATOM     30  C   UNL     1      45.607   4.369   8.345  0.00  0.00    +0.000 A 
ATOM     31  C   UNL     1      44.882   4.434   9.526  0.00  0.00    +0.000 A 
ENDBRANCH  25  26
BRANCH  25  32
ATOM     32  O   UNL     1      42.852   2.086  11.459  0.00  0.00    +0.000 OA
ATOM     33  H   UNL     1      42.382   2.102  12.310  0.00  0.00    +0.000 HD
ENDBRANCH  25  32
ENDBRANCH  24  25
ENDBRANCH  23  24
ENDBRANCH   4  23
TORSDOF 9
ENDMDL
MODEL 6
REMARK VINA RESULT:    -7.230      1.553      2.200
REMARK INTER + INTRA:         -11.926
REMARK INTER:                 -10.775
REMARK INTRA:                  -1.151
REMARK UNBOUND:                -1.103
REMARK  Name = 
REMARK  10 active torsions:
REMARK  status: ('A' for Active; 'I' for Inactive)
REMARK    1  A    between atoms: C_1  and  O_2
REMARK    2  A    between atoms: O_2  and  C_3
REMARK    3  A    between atoms: C_10  and  C_11
REMARK    4  A    between atoms: N_13  and  C_14
REMARK    5  A    between atoms: C_14  and  C_15
REMARK    6  A    between atoms: C_18  and  O_19
REMARK    7  A    between atoms: O_19  and  C_20
REMARK    8  A    between atoms: C_20  and  C_21
REMARK    9  A    between atoms: C_21  and  O_22
REMARK   10  A    between atoms: C_21  and  C_23
REMARK                            x       y       z     vdW  Elec       q    Type
REMARK                         _______ _______ _______ _____ _____    ______ ____
ROOT
ATOM      1  C   UNL     1      47.151   7.542  13.339  0.00  0.00    +0.000 A 
ATOM      2  C   UNL     1      46.256   7.594  12.263  0.00  0.00    +0.000 A 
ATOM      3  C   UNL     1      45.721   6.419  11.716  0.00  0.00    +0.000 A 
ATOM      4  C   UNL     1      46.067   5.173  12.243  0.00  0.00    +0.000 A 
ATOM      5  C   UNL     1      46.949   5.120  13.325  0.00  0.00    +0.000 A 
ATOM      6  C   UNL     1      47.483   6.293  13.874  0.00  0.00    +0.000 A 
ENDROOT
BRANCH   1   7
ATOM      7  C   UNL     1      47.712   8.810  13.930  0.00  0.00    +0.000 C 
BRANCH   7  10
ATOM      8  C   UNL     1      48.506   8.892  16.253  0.00  0.00    +0.000 C 
ATOM      9  O   UNL     1      49.677   8.839  15.877  0.00  0.00    +0.000 OA
ATOM     10  N   UNL     1      47.477   8.876  15.350  0.00  0.00    +0.000 N 
ATOM     11  H   UNL     1      46.516   8.862  15.673  0.00  0.00    +0.000 HD
BRANCH   8  19
ATOM     12  C   UNL     1      47.903   6.534  18.690  0.00  0.00    +0.000 A 
ATOM     13  N   UNL     1      47.635   5.844  19.818  0.00  0.00    +0.000 NA
ATOM     14  C   UNL     1      47.371   6.533  20.931  0.00  0.00    +0.000 A 
ATOM     15  N   UNL     1      47.335   7.856  21.062  0.00  0.00    +0.000 NA
ATOM     16  C   UNL     1      47.616   8.504  19.919  0.00  0.00    +0.000 A 
ATOM     17  S   UNL     1      47.610  10.202  19.900  0.00  0.00    +0.000 S 
ATOM     18  C   UNL     1      48.015  10.234  18.252  0.00  0.00    +0.000 A 
ATOM     19  C   UNL     1      48.166   8.975  17.682  0.00  0.00    +0.000 A 
ATOM     20  C   UNL     1      47.922   7.940  18.685  0.00  0.00    +0.000 A 
BRANCH  12  22
ATOM     21  C   UNL     1      47.515   4.568  17.492  0.00  0.00    +0.000 C 
ATOM     22  O   UNL     1      48.204   5.817  17.551  0.00  0.00    +0.000 OA
ENDBRANCH  12  22
ENDBRANCH   8  19
ENDBRANCH   7  10
ENDBRANCH   1   7
BRANCH   4  23
ATOM     23  O   UNL     1      45.624   3.958  11.789  0.00  0.00    +0.000 OA
BRANCH  23  24
ATOM     24  C   UNL     1      44.206   3.812  11.629  0.00  0.00    +0.000 C 
BRANCH  24  25
ATOM     25  C   UNL     1      43.799   3.842  10.140  0.00  0.00    +0.000 C 
BRANCH  25  26
ATOM     26  C   UNL     1      44.844   3.318   9.180  0.00  0.00    +0.000 A 
ATOM     27  C   UNL     1      45.537   4.203   8.345  0.00  0.00    +0.000 A 
ATOM     28  C   UNL     1      46.497   3.701   7.480  0.00  0.00    +0.000 A 
ATOM     29  N   UNL     1      46.814   2.394   7.388  0.00  0.00    +0.000 NA
ATOM     30  C   UNL     1      46.148   1.554   8.206  0.00  0.00    +0.000 A 
ATOM     31  C   UNL     1      45.172   1.960   9.104  0.00  0.00    +0.000 A 
ENDBRANCH  25  26
BRANCH  25  32
ATOM     32  O   UNL     1      43.401   5.155   9.743  0.00  0.00    +0.000 OA
ATOM     33  H   UNL     1      43.259   5.663  10.560  0.00  0.00    +0.000 HD
ENDBRANCH  25  32
ENDBRANCH  24  25
ENDBRANCH  23  24
ENDBRANCH   4  23
TORSDOF 9
ENDMDL
MODEL 7
REMARK VINA RESULT:    -7.174      2.295      3.096
REMARK INTER + INTRA:         -11.842
REMARK INTER:                 -10.792
REMARK INTRA:                  -1.050
REMARK UNBOUND:                -1.103
REMARK  Name = 
REMARK  10 active torsions:
REMARK  status: ('A' for Active; 'I' for Inactive)
REMARK    1  A    between atoms: C_1  and  O_2
REMARK    2  A    between atoms: O_2  and  C_3
REMARK    3  A    between atoms: C_10  and  C_11
REMARK    4  A    between atoms: N_13  and  C_14
REMARK    5  A    between atoms: C_14  and  C_15
REMARK    6  A    between atoms: C_18  and  O_19
REMARK    7  A    between atoms: O_19  and  C_20
REMARK    8  A    between atoms: C_20  and  C_21
REMARK    9  A    between atoms: C_21  and  O_22
REMARK   10  A    between atoms: C_21  and  C_23
REMARK                            x       y       z     vdW  Elec       q    Type
REMARK                         _______ _______ _______ _____ _____    ______ ____
ROOT
ATOM      1  C   UNL     1      48.053   7.518  14.401  0.00  0.00    +0.000 A 
ATOM      2  C   UNL     1      47.325   8.430  13.626  0.00  0.00    +0.000 A 
ATOM      3  C   UNL     1      46.466   7.986  12.613  0.00  0.00    +0.000 A 
ATOM      4  C   UNL     1      46.314   6.621  12.362  0.00  0.00    +0.000 A 
ATOM      5  C   UNL     1      47.029   5.709  13.143  0.00  0.00    +0.000 A 
ATOM      6  C   UNL     1      47.887   6.151  14.157  0.00  0.00    +0.000 A 
ENDROOT
BRANCH   1   7
ATOM      7  C   UNL     1      48.966   8.002  15.498  0.00  0.00    +0.000 C 
BRANCH   7  10
ATOM      8  C   UNL     1      49.967   6.501  17.165  0.00  0.00    +0.000 C 
ATOM      9  O   UNL     1      49.217   6.937  18.038  0.00  0.00    +0.000 OA
ATOM     10  N   UNL     1      49.908   6.982  15.885  0.00  0.00    +0.000 N 
ATOM     11  H   UNL     1      50.568   6.658  15.187  0.00  0.00    +0.000 HD
BRANCH   8  19
ATOM     12  C   UNL     1      49.874   3.060  17.047  0.00  0.00    +0.000 A 
ATOM     13  N   UNL     1      50.118   1.733  17.085  0.00  0.00    +0.000 NA
ATOM     14  C   UNL     1      51.327   1.325  17.477  0.00  0.00    +0.000 A 
ATOM     15  N   UNL     1      52.348   2.093  17.847  0.00  0.00    +0.000 NA
ATOM     16  C   UNL     1      52.067   3.405  17.786  0.00  0.00    +0.000 A 
ATOM     17  S   UNL     1      53.256   4.534  18.231  0.00  0.00    +0.000 S 
ATOM     18  C   UNL     1      52.211   5.834  17.910  0.00  0.00    +0.000 A 
ATOM     19  C   UNL     1      50.953   5.450  17.460  0.00  0.00    +0.000 A 
ATOM     20  C   UNL     1      50.869   3.992  17.392  0.00  0.00    +0.000 A 
BRANCH  12  22
ATOM     21  C   UNL     1      47.569   2.908  17.378  0.00  0.00    +0.000 C 
ATOM     22  O   UNL     1      48.633   3.476  16.614  0.00  0.00    +0.000 OA
ENDBRANCH  12  22
ENDBRANCH   8  19
ENDBRANCH   7  10
ENDBRANCH   1   7
BRANCH   4  23
ATOM     23  O   UNL     1      45.518   6.066  11.394  0.00  0.00    +0.000 OA
BRANCH  23  24
ATOM     24  C   UNL     1      45.019   4.746  11.654  0.00  0.00    +0.000 C 
BRANCH  24  25
ATOM     25  C   UNL     1      44.199   4.208  10.462  0.00  0.00    +0.000 C 
BRANCH  25  26
ATOM     26  C   UNL     1      45.012   3.541   9.374  0.00  0.00    +0.000 A 
ATOM     27  C   UNL     1      45.639   4.317   8.391  0.00  0.00    +0.000 A 
ATOM     28  C   UNL     1      46.387   3.685   7.409  0.00  0.00    +0.000 A 
ATOM     29  N   UNL     1      46.555   2.350   7.338  0.00  0.00    +0.000 NA
ATOM     30  C   UNL     1      45.955   1.615   8.297  0.00  0.00    +0.000 A 
ATOM     31  C   UNL     1      45.188   2.155   9.319  0.00  0.00    +0.000 A 
ENDBRANCH  25  26
BRANCH  25  32
ATOM     32  O   UNL     1      43.388   5.235   9.891  0.00  0.00    +0.000 OA
ATOM     33  H   UNL     1      43.994   5.857   9.452  0.00  0.00    +0.000 HD
ENDBRANCH  25  32
ENDBRANCH  24  25
ENDBRANCH  23  24
ENDBRANCH   4  23
TORSDOF 9
ENDMDL
MODEL 8
REMARK VINA RESULT:    -7.107      3.533      8.300
REMARK INTER + INTRA:         -11.742
REMARK INTER:                 -10.111
REMARK INTRA:                  -1.630
REMARK UNBOUND:                -1.103
REMARK  Name = 
REMARK  10 active torsions:
REMARK  status: ('A' for Active; 'I' for Inactive)
REMARK    1  A    between atoms: C_1  and  O_2
REMARK    2  A    between atoms: O_2  and  C_3
REMARK    3  A    between atoms: C_10  and  C_11
REMARK    4  A    between atoms: N_13  and  C_14
REMARK    5  A    between atoms: C_14  and  C_15
REMARK    6  A    between atoms: C_18  and  O_19
REMARK    7  A    between atoms: O_19  and  C_20
REMARK    8  A    between atoms: C_20  and  C_21
REMARK    9  A    between atoms: C_21  and  O_22
REMARK   10  A    between atoms: C_21  and  C_23
REMARK                            x       y       z     vdW  Elec       q    Type
REMARK                         _______ _______ _______ _____ _____    ______ ____
ROOT
ATOM      1  C   UNL     1      48.429   7.863  13.542  0.00  0.00    +0.000 A 
ATOM      2  C   UNL     1      48.065   8.866  14.449  0.00  0.00    +0.000 A 
ATOM      3  C   UNL     1      48.272   8.700  15.825  0.00  0.00    +0.000 A 
ATOM      4  C   UNL     1      48.856   7.530  16.316  0.00  0.00    +0.000 A 
ATOM      5  C   UNL     1      49.233   6.534  15.411  0.00  0.00    +0.000 A 
ATOM      6  C   UNL     1      49.028   6.699  14.036  0.00  0.00    +0.000 A 
ENDROOT
BRANCH   1   7
ATOM      7  C   UNL     1      48.214   8.053  12.062  0.00  0.00    +0.000 C 
BRANCH   7  10
ATOM      8  C   UNL     1      46.167   6.870  11.400  0.00  0.00    +0.000 C 
ATOM      9  O   UNL     1      45.471   7.787  11.834  0.00  0.00    +0.000 OA
ATOM     10  N   UNL     1      47.532   6.924  11.482  0.00  0.00    +0.000 N 
ATOM     11  H   UNL     1      48.094   6.139  11.174  0.00  0.00    +0.000 HD
BRANCH   8  19
ATOM     12  C   UNL     1      44.412   4.176  12.637  0.00  0.00    +0.000 A 
ATOM     13  N   UNL     1      43.711   3.042  12.840  0.00  0.00    +0.000 NA
ATOM     14  C   UNL     1      43.425   2.279  11.782  0.00  0.00    +0.000 A 
ATOM     15  N   UNL     1      43.762   2.510  10.516  0.00  0.00    +0.000 NA
ATOM     16  C   UNL     1      44.451   3.652  10.356  0.00  0.00    +0.000 A 
ATOM     17  S   UNL     1      44.970   4.103   8.804  0.00  0.00    +0.000 S 
ATOM     18  C   UNL     1      45.696   5.516   9.404  0.00  0.00    +0.000 A 
ATOM     19  C   UNL     1      45.562   5.681  10.777  0.00  0.00    +0.000 A 
ATOM     20  C   UNL     1      44.819   4.558  11.346  0.00  0.00    +0.000 A 
BRANCH  12  22
ATOM     21  C   UNL     1      46.003   4.790  14.230  0.00  0.00    +0.000 C 
ATOM     22  O   UNL     1      44.680   4.974  13.729  0.00  0.00    +0.000 OA
ENDBRANCH  12  22
ENDBRANCH   8  19
ENDBRANCH   7  10
ENDBRANCH   1   7
BRANCH   4  23
ATOM     23  O   UNL     1      49.097   7.246  17.634  0.00  0.00    +0.000 OA
BRANCH  23  24
ATOM     24  C   UNL     1      48.160   6.376  18.284  0.00  0.00    +0.000 C 
BRANCH  24  25
ATOM     25  C   UNL     1      48.866   5.160  18.922  0.00  0.00    +0.000 C 
BRANCH  25  26
ATOM     26  C   UNL     1      49.078   3.983  17.995  0.00  0.00    +0.000 A 
ATOM     27  C   UNL     1      48.032   3.539  17.176  0.00  0.00    +0.000 A 
ATOM     28  C   UNL     1      48.252   2.464  16.327  0.00  0.00    +0.000 A 
ATOM     29  N   UNL     1      49.426   1.809  16.235  0.00  0.00    +0.000 NA
ATOM     30  C   UNL     1      50.428   2.254  17.020  0.00  0.00    +0.000 A 
ATOM     31  C   UNL     1      50.305   3.320  17.900  0.00  0.00    +0.000 A 
ENDBRANCH  25  26
BRANCH  25  32
ATOM     32  O   UNL     1      48.180   4.725  20.096  0.00  0.00    +0.000 OA
ATOM     33  H   UNL     1      47.329   5.196  20.113  0.00  0.00    +0.000 HD
ENDBRANCH  25  32
ENDBRANCH  24  25
ENDBRANCH  23  24
ENDBRANCH   4  23
TORSDOF 9
ENDMDL
MODEL 9
REMARK VINA RESULT:    -6.744      3.274      4.716
REMARK INTER + INTRA:         -11.198
REMARK INTER:                  -9.991
REMARK INTRA:                  -1.206
REMARK UNBOUND:                -1.103
REMARK  Name = 
REMARK  10 active torsions:
REMARK  status: ('A' for Active; 'I' for Inactive)
REMARK    1  A    between atoms: C_1  and  O_2
REMARK    2  A    between atoms: O_2  and  C_3
REMARK    3  A    between atoms: C_10  and  C_11
REMARK    4  A    between atoms: N_13  and  C_14
REMARK    5  A    between atoms: C_14  and  C_15
REMARK    6  A    between atoms: C_18  and  O_19
REMARK    7  A    between atoms: O_19  and  C_20
REMARK    8  A    between atoms: C_20  and  C_21
REMARK    9  A    between atoms: C_21  and  O_22
REMARK   10  A    between atoms: C_21  and  C_23
REMARK                            x       y       z     vdW  Elec       q    Type
REMARK                         _______ _______ _______ _____ _____    ______ ____
ROOT
ATOM      1  C   UNL     1      47.521   4.262  15.875  0.00  0.00    +0.000 A 
ATOM      2  C   UNL     1      48.008   5.559  15.671  0.00  0.00    +0.000 A 
ATOM      3  C   UNL     1      47.858   6.196  14.432  0.00  0.00    +0.000 A 
ATOM      4  C   UNL     1      47.210   5.549  13.378  0.00  0.00    +0.000 A 
ATOM      5  C   UNL     1      46.711   4.260  13.584  0.00  0.00    +0.000 A 
ATOM      6  C   UNL     1      46.859   3.623  14.822  0.00  0.00    +0.000 A 
ENDROOT
BRANCH   1   7
ATOM      7  C   UNL     1      47.674   3.588  17.214  0.00  0.00    +0.000 C 
BRANCH   7  10
ATOM      8  C   UNL     1      49.829   2.430  16.998  0.00  0.00    +0.000 C 
ATOM      9  O   UNL     1      49.348   1.643  16.182  0.00  0.00    +0.000 OA
ATOM     10  N   UNL     1      49.063   3.416  17.559  0.00  0.00    +0.000 N 
ATOM     11  H   UNL     1      49.453   4.021  18.271  0.00  0.00    +0.000 HD
BRANCH   8  19
ATOM     12  C   UNL     1      52.255   4.779  17.676  0.00  0.00    +0.000 A 
ATOM     13  N   UNL     1      53.371   5.465  17.998  0.00  0.00    +0.000 NA
ATOM     14  C   UNL     1      54.469   4.772  18.310  0.00  0.00    +0.000 A 
ATOM     15  N   UNL     1      54.597   3.449  18.338  0.00  0.00    +0.000 NA
ATOM     16  C   UNL     1      53.462   2.804  18.020  0.00  0.00    +0.000 A 
ATOM     17  S   UNL     1      53.445   1.107  17.999  0.00  0.00    +0.000 S 
ATOM     18  C   UNL     1      51.809   1.081  17.544  0.00  0.00    +0.000 A 
ATOM     19  C   UNL     1      51.241   2.341  17.402  0.00  0.00    +0.000 A 
ATOM     20  C   UNL     1      52.238   3.374  17.684  0.00  0.00    +0.000 A 
BRANCH  12  22
ATOM     21  C   UNL     1      50.816   6.478  18.378  0.00  0.00    +0.000 C 
ATOM     22  O   UNL     1      51.116   5.500  17.383  0.00  0.00    +0.000 OA
ENDBRANCH  12  22
ENDBRANCH   8  19
ENDBRANCH   7  10
ENDBRANCH   1   7
BRANCH   4  23
ATOM     23  O   UNL     1      47.014   6.059  12.121  0.00  0.00    +0.000 OA
BRANCH  23  24
ATOM     24  C   UNL     1      45.885   6.927  11.951  0.00  0.00    +0.000 C 
BRANCH  24  25
ATOM     25  C   UNL     1      44.612   6.133  11.586  0.00  0.00    +0.000 C 
BRANCH  25  26
ATOM     26  C   UNL     1      44.814   5.034  10.565  0.00  0.00    +0.000 A 
ATOM     27  C   UNL     1      44.291   3.756  10.798  0.00  0.00    +0.000 A 
ATOM     28  C   UNL     1      44.480   2.766   9.845  0.00  0.00    +0.000 A 
ATOM     29  N   UNL     1      45.146   2.957   8.688  0.00  0.00    +0.000 NA
ATOM     30  C   UNL     1      45.634   4.196   8.471  0.00  0.00    +0.000 A 
ATOM     31  C   UNL     1      45.495   5.249   9.363  0.00  0.00    +0.000 A 
ENDBRANCH  25  26
BRANCH  25  32
ATOM     32  O   UNL     1      43.570   7.005  11.148  0.00  0.00    +0.000 OA
ATOM     33  H   UNL     1      42.964   6.468  10.610  0.00  0.00    +0.000 HD
ENDBRANCH  25  32
ENDBRANCH  24  25
ENDBRANCH  23  24
ENDBRANCH   4  23
TORSDOF 9
ENDMDL
