MODEL 1
REMARK VINA RESULT:    -7.645      0.000      0.000
REMARK INTER + INTRA:         -11.344
REMARK INTER:                 -10.773
REMARK INTRA:                  -0.571
REMARK UNBOUND:                -0.571
REMARK  Name = 
REMARK  10 active torsions:
REMARK  status: ('A' for Active; 'I' for Inactive)
REMARK    1  A    between atoms: C_1  and  C_2
REMARK    2  A    between atoms: C_2  and  C_3
REMARK    3  A    between atoms: C_2  and  N_4
REMARK    4  A    between atoms: N_4  and  C_5
REMARK    5  A    between atoms: C_8  and  C_9
REMARK    6  A    between atoms: C_13  and  N_14
REMARK    7  A    between atoms: N_14  and  C_15
REMARK    8  A    between atoms: N_14  and  C_16
REMARK    9  A    between atoms: C_16  and  C_17
REMARK   10  A    between atoms: C_17  and  C_18
REMARK                            x       y       z     vdW  Elec       q    Type
REMARK                         _______ _______ _______ _____ _____    ______ ____
ROOT
ATOM      1  C   UNL     1      45.405   6.709  11.882  0.00  0.00    +0.000 A 
ATOM      2  N   UNL     1      46.539   7.050  12.536  0.00  0.00    +0.000 NA
ATOM      3  C   UNL     1      47.039   6.185  13.448  0.00  0.00    +0.000 A 
ATOM      4  C   UNL     1      46.450   4.976  13.775  0.00  0.00    +0.000 A 
ATOM      5  C   UNL     1      45.276   4.635  13.110  0.00  0.00    +0.000 A 
ATOM      6  C   UNL     1      44.720   5.477  12.125  0.00  0.00    +0.000 A 
ENDROOT
BRANCH   4   7
ATOM      7  C   UNL     1      47.005   4.020  14.765  0.00  0.00    +0.000 C 
ATOM      8  N   UNL     1      46.894   4.305  16.103  0.00  0.00    +0.000 N 
ATOM      9  O   UNL     1      47.575   2.997  14.417  0.00  0.00    +0.000 OA
ATOM     10  H   UNL     1      46.456   5.115  16.512  0.00  0.00    +0.000 HD
ATOM     11  H   UNL     1      47.294   3.629  16.742  0.00  0.00    +0.000 HD
ENDBRANCH   4   7
BRANCH   1  12
ATOM     12  N   UNL     1      44.868   7.606  10.925  0.00  0.00    +0.000 N 
ATOM     13  H   UNL     1      45.674   7.866  10.355  0.00  0.00    +0.000 HD
BRANCH  12  15
ATOM     14  C   UNL     1      45.260   9.928  11.483  0.00  0.00    +0.000 C 
ATOM     15  C   UNL     1      44.207   8.809  11.457  0.00  0.00    +0.000 C 
ATOM     16  C   UNL     1      43.025   9.279  10.609  0.00  0.00    +0.000 C 
ENDBRANCH  12  15
ENDBRANCH   1  12
BRANCH   6  17
ATOM     17  N   UNL     1      43.632   5.037  11.353  0.00  0.00    +0.000 N 
ATOM     18  C   UNL     1      42.295   5.534  11.692  0.00  0.00    +0.000 C 
BRANCH  17  19
ATOM     19  C   UNL     1      43.868   4.562   9.968  0.00  0.00    +0.000 C 
BRANCH  19  20
ATOM     20  C   UNL     1      44.270   3.083   9.909  0.00  0.00    +0.000 C 
BRANCH  20  21
ATOM     21  C   UNL     1      45.298   2.791   8.851  0.00  0.00    +0.000 A 
ATOM     22  C   UNL     1      45.707   3.785   7.966  0.00  0.00    +0.000 A 
ATOM     23  C   UNL     1      46.599   3.452   6.952  0.00  0.00    +0.000 A 
ATOM     24  C   UNL     1      47.062   2.146   6.851  0.00  0.00    +0.000 A 
ATOM     25  C   UNL     1      46.619   1.223   7.781  0.00  0.00    +0.000 A 
ATOM     26  N   UNL     1      45.754   1.517   8.777  0.00  0.00    +0.000 NA
ENDBRANCH  20  21
ENDBRANCH  19  20
ENDBRANCH  17  19
ENDBRANCH   6  17
TORSDOF 7
ENDMDL
MODEL 2
REMARK VINA RESULT:    -6.883      2.379      4.480
REMARK INTER + INTRA:         -10.270
REMARK INTER:                  -9.491
REMARK INTRA:                  -0.780
REMARK UNBOUND:                -0.571
REMARK  Name = 
REMARK  10 active torsions:
REMARK  status: ('A' for Active; 'I' for Inactive)
REMARK    1  A    between atoms: C_1  and  C_2
REMARK    2  A    between atoms: C_2  and  C_3
REMARK    3  A    between atoms: C_2  and  N_4
REMARK    4  A    between atoms: N_4  and  C_5
REMARK    5  A    between atoms: C_8  and  C_9
REMARK    6  A    between atoms: C_13  and  N_14
REMARK    7  A    between atoms: N_14  and  C_15
REMARK    8  A    between atoms: N_14  and  C_16
REMARK    9  A    between atoms: C_16  and  C_17
REMARK   10  A    between atoms: C_17  and  C_18
REMARK                            x       y       z     vdW  Elec       q    Type
REMARK                         _______ _______ _______ _____ _____    ______ ____
ROOT
ATOM      1  C   UNL     1      47.049   4.903  14.249  0.00  0.00    +0.000 A 
ATOM      2  N   UNL     1      47.986   5.815  14.596  0.00  0.00    +0.000 NA
ATOM      3  C   UNL     1      48.027   6.983  13.916  0.00  0.00    +0.000 A 
ATOM      4  C   UNL     1      47.183   7.300  12.865  0.00  0.00    +0.000 A 
ATOM      5  C   UNL     1      46.230   6.353  12.502  0.00  0.00    +0.000 A 
ATOM      6  C   UNL     1      46.113   5.128  13.191  0.00  0.00    +0.000 A 
ENDROOT
BRANCH   4   7
ATOM      7  C   UNL     1      47.218   8.587  12.126  0.00  0.00    +0.000 C 
ATOM      8  N   UNL     1      48.431   9.107  11.749  0.00  0.00    +0.000 N 
ATOM      9  O   UNL     1      46.197   9.202  11.865  0.00  0.00    +0.000 OA
ATOM     10  H   UNL     1      49.338   8.700  11.912  0.00  0.00    +0.000 HD
ATOM     11  H   UNL     1      48.407   9.991  11.255  0.00  0.00    +0.000 HD
ENDBRANCH   4   7
BRANCH   1  12
ATOM     12  N   UNL     1      46.996   3.673  14.952  0.00  0.00    +0.000 N 
ATOM     13  H   UNL     1      46.013   3.586  15.215  0.00  0.00    +0.000 HD
BRANCH  12  15
ATOM     14  C   UNL     1      46.961   3.774  17.368  0.00  0.00    +0.000 C 
ATOM     15  C   UNL     1      47.857   3.561  16.140  0.00  0.00    +0.000 C 
ATOM     16  C   UNL     1      48.539   2.199  16.270  0.00  0.00    +0.000 C 
ENDBRANCH  12  15
ENDBRANCH   1  12
BRANCH   6  17
ATOM     17  N   UNL     1      45.041   4.263  12.916  0.00  0.00    +0.000 N 
ATOM     18  C   UNL     1      43.682   4.728  13.212  0.00  0.00    +0.000 C 
BRANCH  17  19
ATOM     19  C   UNL     1      45.206   3.200  11.897  0.00  0.00    +0.000 C 
BRANCH  19  20
ATOM     20  C   UNL     1      44.477   3.516  10.585  0.00  0.00    +0.000 C 
BRANCH  20  21
ATOM     21  C   UNL     1      45.281   3.171   9.362  0.00  0.00    +0.000 A 
ATOM     22  C   UNL     1      45.632   4.156   8.442  0.00  0.00    +0.000 A 
ATOM     23  C   UNL     1      46.305   3.781   7.285  0.00  0.00    +0.000 A 
ATOM     24  C   UNL     1      46.615   2.442   7.078  0.00  0.00    +0.000 A 
ATOM     25  C   UNL     1      46.245   1.529   8.049  0.00  0.00    +0.000 A 
ATOM     26  N   UNL     1      45.592   1.864   9.183  0.00  0.00    +0.000 NA
ENDBRANCH  20  21
ENDBRANCH  19  20
ENDBRANCH  17  19
ENDBRANCH   6  17
TORSDOF 7
ENDMDL
MODEL 3
REMARK VINA RESULT:    -6.772      2.460      4.511
REMARK INTER + INTRA:         -10.114
REMARK INTER:                  -9.486
REMARK INTRA:                  -0.628
REMARK UNBOUND:                -0.571
REMARK  Name = 
REMARK  10 active torsions:
REMARK  status: ('A' for Active; 'I' for Inactive)
REMARK    1  A    between atoms: C_1  and  C_2
REMARK    2  A    between atoms: C_2  and  C_3
REMARK    3  A    between atoms: C_2  and  N_4
REMARK    4  A    between atoms: N_4  and  C_5
REMARK    5  A    between atoms: C_8  and  C_9
REMARK    6  A    between atoms: C_13  and  N_14
REMARK    7  A    between atoms: N_14  and  C_15
REMARK    8  A    between atoms: N_14  and  C_16
REMARK    9  A    between atoms: C_16  and  C_17
REMARK   10  A    between atoms: C_17  and  C_18
REMARK                            x       y       z     vdW  Elec       q    Type
REMARK                         _______ _______ _______ _____ _____    ______ ____
ROOT
ATOM      1  C   UNL     1      45.350   7.172  12.889  0.00  0.00    +0.000 A 
ATOM      2  N   UNL     1      45.702   8.442  13.192  0.00  0.00    +0.000 NA
ATOM      3  C   UNL     1      45.279   9.438  12.380  0.00  0.00    +0.000 A 
ATOM      4  C   UNL     1      44.524   9.239  11.237  0.00  0.00    +0.000 A 
ATOM      5  C   UNL     1      44.176   7.929  10.920  0.00  0.00    +0.000 A 
ATOM      6  C   UNL     1      44.558   6.849  11.742  0.00  0.00    +0.000 A 
ENDROOT
BRANCH   4   7
ATOM      7  C   UNL     1      44.048  10.331  10.352  0.00  0.00    +0.000 C 
ATOM      8  N   UNL     1      43.032  10.076   9.465  0.00  0.00    +0.000 N 
ATOM      9  O   UNL     1      44.552  11.443  10.381  0.00  0.00    +0.000 OA
ATOM     10  H   UNL     1      42.544   9.203   9.342  0.00  0.00    +0.000 HD
ATOM     11  H   UNL     1      42.746  10.848   8.876  0.00  0.00    +0.000 HD
ENDBRANCH   4   7
BRANCH   1  12
ATOM     12  N   UNL     1      45.789   6.119  13.729  0.00  0.00    +0.000 N 
ATOM     13  H   UNL     1      45.815   6.543  14.658  0.00  0.00    +0.000 HD
BRANCH  12  15
ATOM     14  C   UNL     1      48.150   6.261  14.233  0.00  0.00    +0.000 C 
ATOM     15  C   UNL     1      47.093   5.520  13.401  0.00  0.00    +0.000 C 
ATOM     16  C   UNL     1      47.178   4.030  13.729  0.00  0.00    +0.000 C 
ENDBRANCH  12  15
ENDBRANCH   1  12
BRANCH   6  17
ATOM     17  N   UNL     1      44.056   5.561  11.494  0.00  0.00    +0.000 N 
ATOM     18  C   UNL     1      42.602   5.383  11.432  0.00  0.00    +0.000 C 
BRANCH  17  19
ATOM     19  C   UNL     1      44.909   4.570  10.795  0.00  0.00    +0.000 C 
BRANCH  19  20
ATOM     20  C   UNL     1      44.228   3.967   9.559  0.00  0.00    +0.000 C 
BRANCH  20  21
ATOM     21  C   UNL     1      45.191   3.288   8.625  0.00  0.00    +0.000 A 
ATOM     22  C   UNL     1      45.491   1.936   8.776  0.00  0.00    +0.000 A 
ATOM     23  C   UNL     1      46.448   1.366   7.942  0.00  0.00    +0.000 A 
ATOM     24  C   UNL     1      47.071   2.152   6.981  0.00  0.00    +0.000 A 
ATOM     25  C   UNL     1      46.703   3.482   6.886  0.00  0.00    +0.000 A 
ATOM     26  N   UNL     1      45.778   4.063   7.680  0.00  0.00    +0.000 NA
ENDBRANCH  20  21
ENDBRANCH  19  20
ENDBRANCH  17  19
ENDBRANCH   6  17
TORSDOF 7
ENDMDL
MODEL 4
REMARK VINA RESULT:    -6.642      2.057      3.465
REMARK INTER + INTRA:          -9.931
REMARK INTER:                  -9.554
REMARK INTRA:                  -0.377
REMARK UNBOUND:                -0.571
REMARK  Name = 
REMARK  10 active torsions:
REMARK  status: ('A' for Active; 'I' for Inactive)
REMARK    1  A    between atoms: C_1  and  C_2
REMARK    2  A    between atoms: C_2  and  C_3
REMARK    3  A    between atoms: C_2  and  N_4
REMARK    4  A    between atoms: N_4  and  C_5
REMARK    5  A    between atoms: C_8  and  C_9
REMARK    6  A    between atoms: C_13  and  N_14
REMARK    7  A    between atoms: N_14  and  C_15
REMARK    8  A    between atoms: N_14  and  C_16
REMARK    9  A    between atoms: C_16  and  C_17
REMARK   10  A    between atoms: C_17  and  C_18
REMARK                            x       y       z     vdW  Elec       q    Type
REMARK                         _______ _______ _______ _____ _____    ______ ____
ROOT
ATOM      1  C   UNL     1      46.123   4.339  13.026  0.00  0.00    +0.000 A 
ATOM      2  N   UNL     1      46.741   4.066  14.198  0.00  0.00    +0.000 NA
ATOM      3  C   UNL     1      47.538   5.016  14.740  0.00  0.00    +0.000 A 
ATOM      4  C   UNL     1      47.783   6.248  14.159  0.00  0.00    +0.000 A 
ATOM      5  C   UNL     1      47.156   6.520  12.946  0.00  0.00    +0.000 A 
ATOM      6  C   UNL     1      46.288   5.586  12.343  0.00  0.00    +0.000 A 
ENDROOT
BRANCH   4   7
ATOM      7  C   UNL     1      48.646   7.295  14.759  0.00  0.00    +0.000 C 
ATOM      8  N   UNL     1      48.180   8.009  15.835  0.00  0.00    +0.000 N 
ATOM      9  O   UNL     1      49.751   7.551  14.305  0.00  0.00    +0.000 OA
ATOM     10  H   UNL     1      47.289   7.898  16.291  0.00  0.00    +0.000 HD
ATOM     11  H   UNL     1      48.800   8.719  16.206  0.00  0.00    +0.000 HD
ENDBRANCH   4   7
BRANCH   1  12
ATOM     12  N   UNL     1      45.286   3.354  12.445  0.00  0.00    +0.000 N 
ATOM     13  H   UNL     1      45.751   3.130  11.563  0.00  0.00    +0.000 HD
BRANCH  12  15
ATOM     14  C   UNL     1      43.161   2.504  11.661  0.00  0.00    +0.000 C 
ATOM     15  C   UNL     1      43.887   3.743  12.204  0.00  0.00    +0.000 C 
ATOM     16  C   UNL     1      43.162   4.213  13.464  0.00  0.00    +0.000 C 
ENDBRANCH  12  15
ENDBRANCH   1  12
BRANCH   6  17
ATOM     17  N   UNL     1      45.540   5.946  11.210  0.00  0.00    +0.000 N 
ATOM     18  C   UNL     1      44.630   7.091  11.316  0.00  0.00    +0.000 C 
BRANCH  17  19
ATOM     19  C   UNL     1      46.032   5.570   9.863  0.00  0.00    +0.000 C 
BRANCH  19  20
ATOM     20  C   UNL     1      45.062   4.650   9.112  0.00  0.00    +0.000 C 
BRANCH  20  21
ATOM     21  C   UNL     1      45.756   3.574   8.324  0.00  0.00    +0.000 A 
ATOM     22  C   UNL     1      45.651   2.238   8.704  0.00  0.00    +0.000 A 
ATOM     23  C   UNL     1      46.374   1.283   7.997  0.00  0.00    +0.000 A 
ATOM     24  C   UNL     1      47.173   1.682   6.932  0.00  0.00    +0.000 A 
ATOM     25  C   UNL     1      47.208   3.027   6.610  0.00  0.00    +0.000 A 
ATOM     26  N   UNL     1      46.516   3.976   7.277  0.00  0.00    +0.000 NA
ENDBRANCH  20  21
ENDBRANCH  19  20
ENDBRANCH  17  19
ENDBRANCH   6  17
TORSDOF 7
ENDMDL
MODEL 5
REMARK VINA RESULT:    -6.413      1.698      2.288
REMARK INTER + INTRA:          -9.608
REMARK INTER:                  -9.059
REMARK INTRA:                  -0.549
REMARK UNBOUND:                -0.571
REMARK  Name = 
REMARK  10 active torsions:
REMARK  status: ('A' for Active; 'I' for Inactive)
REMARK    1  A    between atoms: C_1  and  C_2
REMARK    2  A    between atoms: C_2  and  C_3
REMARK    3  A    between atoms: C_2  and  N_4
REMARK    4  A    between atoms: N_4  and  C_5
REMARK    5  A    between atoms: C_8  and  C_9
REMARK    6  A    between atoms: C_13  and  N_14
REMARK    7  A    between atoms: N_14  and  C_15
REMARK    8  A    between atoms: N_14  and  C_16
REMARK    9  A    between atoms: C_16  and  C_17
REMARK   10  A    between atoms: C_17  and  C_18
REMARK                            x       y       z     vdW  Elec       q    Type
REMARK                         _______ _______ _______ _____ _____    ______ ____
ROOT
ATOM      1  C   UNL     1      46.950   5.945  13.442  0.00  0.00    +0.000 A 
ATOM      2  N   UNL     1      48.043   6.165  14.207  0.00  0.00    +0.000 NA
ATOM      3  C   UNL     1      48.227   5.391  15.302  0.00  0.00    +0.000 A 
ATOM      4  C   UNL     1      47.352   4.398  15.707  0.00  0.00    +0.000 A 
ATOM      5  C   UNL     1      46.221   4.185  14.924  0.00  0.00    +0.000 A 
ATOM      6  C   UNL     1      45.986   4.934  13.753  0.00  0.00    +0.000 A 
ENDROOT
BRANCH   4   7
ATOM      7  C   UNL     1      47.558   3.541  16.900  0.00  0.00    +0.000 C 
ATOM      8  N   UNL     1      48.824   3.402  17.411  0.00  0.00    +0.000 N 
ATOM      9  O   UNL     1      46.633   2.940  17.424  0.00  0.00    +0.000 OA
ATOM     10  H   UNL     1      49.665   3.837  17.065  0.00  0.00    +0.000 HD
ATOM     11  H   UNL     1      48.919   2.801  18.220  0.00  0.00    +0.000 HD
ENDBRANCH   4   7
BRANCH   1  12
ATOM     12  N   UNL     1      46.743   6.748  12.293  0.00  0.00    +0.000 N 
ATOM     13  H   UNL     1      47.579   6.587  11.730  0.00  0.00    +0.000 HD
BRANCH  12  15
ATOM     14  C   UNL     1      47.768   8.909  11.925  0.00  0.00    +0.000 C 
ATOM     15  C   UNL     1      46.553   8.189  12.529  0.00  0.00    +0.000 C 
ATOM     16  C   UNL     1      45.288   8.749  11.879  0.00  0.00    +0.000 C 
ENDBRANCH  12  15
ENDBRANCH   1  12
BRANCH   6  17
ATOM     17  N   UNL     1      44.930   4.589  12.894  0.00  0.00    +0.000 N 
ATOM     18  C   UNL     1      43.804   5.520  12.771  0.00  0.00    +0.000 C 
BRANCH  17  19
ATOM     19  C   UNL     1      45.179   3.646  11.777  0.00  0.00    +0.000 C 
BRANCH  19  20
ATOM     20  C   UNL     1      44.578   4.126  10.449  0.00  0.00    +0.000 C 
BRANCH  20  21
ATOM     21  C   UNL     1      45.276   3.559   9.244  0.00  0.00    +0.000 A 
ATOM     22  C   UNL     1      45.435   2.183   9.099  0.00  0.00    +0.000 A 
ATOM     23  C   UNL     1      46.158   1.705   8.011  0.00  0.00    +0.000 A 
ATOM     24  C   UNL     1      46.693   2.605   7.098  0.00  0.00    +0.000 A 
ATOM     25  C   UNL     1      46.475   3.955   7.306  0.00  0.00    +0.000 A 
ATOM     26  N   UNL     1      45.777   4.448   8.353  0.00  0.00    +0.000 NA
ENDBRANCH  20  21
ENDBRANCH  19  20
ENDBRANCH  17  19
ENDBRANCH   6  17
TORSDOF 7
ENDMDL
MODEL 6
REMARK VINA RESULT:    -5.936      3.241      7.750
REMARK INTER + INTRA:          -8.936
REMARK INTER:                  -7.631
REMARK INTRA:                  -1.305
REMARK UNBOUND:                -0.571
REMARK  Name = 
REMARK  10 active torsions:
REMARK  status: ('A' for Active; 'I' for Inactive)
REMARK    1  A    between atoms: C_1  and  C_2
REMARK    2  A    between atoms: C_2  and  C_3
REMARK    3  A    between atoms: C_2  and  N_4
REMARK    4  A    between atoms: N_4  and  C_5
REMARK    5  A    between atoms: C_8  and  C_9
REMARK    6  A    between atoms: C_13  and  N_14
REMARK    7  A    between atoms: N_14  and  C_15
REMARK    8  A    between atoms: N_14  and  C_16
REMARK    9  A    between atoms: C_16  and  C_17
REMARK   10  A    between atoms: C_17  and  C_18
REMARK                            x       y       z     vdW  Elec       q    Type
REMARK                         _______ _______ _______ _____ _____    ______ ____
ROOT
ATOM      1  C   UNL     1      46.932   5.000  14.250  0.00  0.00    +0.000 A 
ATOM      2  N   UNL     1      46.019   4.026  14.033  0.00  0.00    +0.000 NA
ATOM      3  C   UNL     1      45.328   4.042  12.870  0.00  0.00    +0.000 A 
ATOM      4  C   UNL     1      45.477   5.010  11.891  0.00  0.00    +0.000 A 
ATOM      5  C   UNL     1      46.407   6.018  12.126  0.00  0.00    +0.000 A 
ATOM      6  C   UNL     1      47.183   6.042  13.303  0.00  0.00    +0.000 A 
ENDROOT
BRANCH   4   7
ATOM      7  C   UNL     1      44.729   5.021  10.610  0.00  0.00    +0.000 C 
ATOM      8  N   UNL     1      45.381   5.385   9.459  0.00  0.00    +0.000 N 
ATOM      9  O   UNL     1      43.542   4.735  10.560  0.00  0.00    +0.000 OA
ATOM     10  H   UNL     1      46.350   5.648   9.374  0.00  0.00    +0.000 HD
ATOM     11  H   UNL     1      44.829   5.386   8.610  0.00  0.00    +0.000 HD
ENDBRANCH   4   7
BRANCH   1  12
ATOM     12  N   UNL     1      47.663   4.998  15.465  0.00  0.00    +0.000 N 
ATOM     13  H   UNL     1      48.618   4.788  15.173  0.00  0.00    +0.000 HD
BRANCH  12  15
ATOM     14  C   UNL     1      48.285   2.940  16.574  0.00  0.00    +0.000 C 
ATOM     15  C   UNL     1      47.218   4.042  16.493  0.00  0.00    +0.000 C 
ATOM     16  C   UNL     1      47.065   4.668  17.879  0.00  0.00    +0.000 C 
ENDBRANCH  12  15
ENDBRANCH   1  12
BRANCH   6  17
ATOM     17  N   UNL     1      48.228   6.971  13.441  0.00  0.00    +0.000 N 
ATOM     18  C   UNL     1      49.224   7.058  12.368  0.00  0.00    +0.000 C 
BRANCH  17  19
ATOM     19  C   UNL     1      48.039   8.155  14.313  0.00  0.00    +0.000 C 
BRANCH  19  20
ATOM     20  C   UNL     1      49.326   8.569  15.038  0.00  0.00    +0.000 C 
BRANCH  20  21
ATOM     21  C   UNL     1      49.679   7.660  16.183  0.00  0.00    +0.000 A 
ATOM     22  C   UNL     1      49.277   7.967  17.481  0.00  0.00    +0.000 A 
ATOM     23  C   UNL     1      49.694   7.143  18.522  0.00  0.00    +0.000 A 
ATOM     24  C   UNL     1      50.490   6.039  18.242  0.00  0.00    +0.000 A 
ATOM     25  C   UNL     1      50.830   5.796  16.923  0.00  0.00    +0.000 A 
ATOM     26  N   UNL     1      50.440   6.577  15.893  0.00  0.00    +0.000 NA
ENDBRANCH  20  21
ENDBRANCH  19  20
ENDBRANCH  17  19
ENDBRANCH   6  17
TORSDOF 7
ENDMDL
MODEL 7
REMARK VINA RESULT:    -5.906      2.868      5.233
REMARK INTER + INTRA:          -8.893
REMARK INTER:                  -8.244
REMARK INTRA:                  -0.649
REMARK UNBOUND:                -0.571
REMARK  Name = 
REMARK  10 active torsions:
REMARK  status: ('A' for Active; 'I' for Inactive)
REMARK    1  A    between atoms: C_1  and  C_2
REMARK    2  A    between atoms: C_2  and  C_3
REMARK    3  A    between atoms: C_2  and  N_4
REMARK    4  A    between atoms: N_4  and  C_5
REMARK    5  A    between atoms: C_8  and  C_9
REMARK    6  A    between atoms: C_13  and  N_14
REMARK    7  A    between atoms: N_14  and  C_15
REMARK    8  A    between atoms: N_14  and  C_16
REMARK    9  A    between atoms: C_16  and  C_17
REMARK   10  A    between atoms: C_17  and  C_18
REMARK                            x       y       z     vdW  Elec       q    Type
REMARK                         _______ _______ _______ _____ _____    ______ ____
ROOT
ATOM      1  C   UNL     1      48.211   6.114  15.079  0.00  0.00    +0.000 A 
ATOM      2  N   UNL     1      49.396   6.548  15.567  0.00  0.00    +0.000 NA
ATOM      3  C   UNL     1      50.179   7.309  14.768  0.00  0.00    +0.000 A 
ATOM      4  C   UNL     1      49.857   7.656  13.468  0.00  0.00    +0.000 A 
ATOM      5  C   UNL     1      48.644   7.195  12.964  0.00  0.00    +0.000 A 
ATOM      6  C   UNL     1      47.766   6.425  13.755  0.00  0.00    +0.000 A 
ENDROOT
BRANCH   4   7
ATOM      7  C   UNL     1      50.709   8.501  12.595  0.00  0.00    +0.000 C 
ATOM      8  N   UNL     1      51.533   7.897  11.680  0.00  0.00    +0.000 N 
ATOM      9  O   UNL     1      50.709   9.719  12.687  0.00  0.00    +0.000 OA
ATOM     10  H   UNL     1      51.629   6.908  11.515  0.00  0.00    +0.000 HD
ATOM     11  H   UNL     1      52.103   8.513  11.112  0.00  0.00    +0.000 HD
ENDBRANCH   4   7
BRANCH   1  12
ATOM     12  N   UNL     1      47.381   5.314  15.903  0.00  0.00    +0.000 N 
ATOM     13  H   UNL     1      46.694   5.974  16.270  0.00  0.00    +0.000 HD
BRANCH  12  15
ATOM     14  C   UNL     1      47.423   5.110  18.313  0.00  0.00    +0.000 C 
ATOM     15  C   UNL     1      48.047   4.601  17.005  0.00  0.00    +0.000 C 
ATOM     16  C   UNL     1      47.868   3.084  16.944  0.00  0.00    +0.000 C 
ENDBRANCH  12  15
ENDBRANCH   1  12
BRANCH   6  17
ATOM     17  N   UNL     1      46.480   6.114  13.284  0.00  0.00    +0.000 N 
ATOM     18  C   UNL     1      45.634   7.211  12.804  0.00  0.00    +0.000 C 
BRANCH  17  19
ATOM     19  C   UNL     1      46.199   4.747  12.783  0.00  0.00    +0.000 C 
BRANCH  19  20
ATOM     20  C   UNL     1      44.819   4.629  12.123  0.00  0.00    +0.000 C 
BRANCH  20  21
ATOM     21  C   UNL     1      44.884   4.164  10.695  0.00  0.00    +0.000 A 
ATOM     22  C   UNL     1      44.413   2.903  10.337  0.00  0.00    +0.000 A 
ATOM     23  C   UNL     1      44.566   2.480   9.021  0.00  0.00    +0.000 A 
ATOM     24  C   UNL     1      45.176   3.323   8.100  0.00  0.00    +0.000 A 
ATOM     25  C   UNL     1      45.601   4.566   8.533  0.00  0.00    +0.000 A 
ATOM     26  N   UNL     1      45.465   5.004   9.803  0.00  0.00    +0.000 NA
ENDBRANCH  20  21
ENDBRANCH  19  20
ENDBRANCH  17  19
ENDBRANCH   6  17
TORSDOF 7
ENDMDL
MODEL 8
REMARK VINA RESULT:    -5.837      2.954      4.929
REMARK INTER + INTRA:          -8.797
REMARK INTER:                  -8.013
REMARK INTRA:                  -0.784
REMARK UNBOUND:                -0.571
REMARK  Name = 
REMARK  10 active torsions:
REMARK  status: ('A' for Active; 'I' for Inactive)
REMARK    1  A    between atoms: C_1  and  C_2
REMARK    2  A    between atoms: C_2  and  C_3
REMARK    3  A    between atoms: C_2  and  N_4
REMARK    4  A    between atoms: N_4  and  C_5
REMARK    5  A    between atoms: C_8  and  C_9
REMARK    6  A    between atoms: C_13  and  N_14
REMARK    7  A    between atoms: N_14  and  C_15
REMARK    8  A    between atoms: N_14  and  C_16
REMARK    9  A    between atoms: C_16  and  C_17
REMARK   10  A    between atoms: C_17  and  C_18
REMARK                            x       y       z     vdW  Elec       q    Type
REMARK                         _______ _______ _______ _____ _____    ______ ____
ROOT
ATOM      1  C   UNL     1      47.684   6.720  13.457  0.00  0.00    +0.000 A 
ATOM      2  N   UNL     1      49.007   6.672  13.734  0.00  0.00    +0.000 NA
ATOM      3  C   UNL     1      49.826   7.548  13.110  0.00  0.00    +0.000 A 
ATOM      4  C   UNL     1      49.401   8.483  12.182  0.00  0.00    +0.000 A 
ATOM      5  C   UNL     1      48.041   8.520  11.889  0.00  0.00    +0.000 A 
ATOM      6  C   UNL     1      47.128   7.656  12.528  0.00  0.00    +0.000 A 
ENDROOT
BRANCH   4   7
ATOM      7  C   UNL     1      50.296   9.454  11.506  0.00  0.00    +0.000 C 
ATOM      8  N   UNL     1      51.632   9.162  11.390  0.00  0.00    +0.000 N 
ATOM      9  O   UNL     1      49.877  10.514  11.069  0.00  0.00    +0.000 OA
ATOM     10  H   UNL     1      52.097   8.329  11.716  0.00  0.00    +0.000 HD
ATOM     11  H   UNL     1      52.207   9.857  10.930  0.00  0.00    +0.000 HD
ENDBRANCH   4   7
BRANCH   1  12
ATOM     12  N   UNL     1      46.813   5.807  14.102  0.00  0.00    +0.000 N 
ATOM     13  H   UNL     1      46.574   6.275  14.978  0.00  0.00    +0.000 HD
BRANCH  12  15
ATOM     14  C   UNL     1      47.168   4.193  15.869  0.00  0.00    +0.000 C 
ATOM     15  C   UNL     1      47.356   4.465  14.369  0.00  0.00    +0.000 C 
ATOM     16  C   UNL     1      46.652   3.357  13.587  0.00  0.00    +0.000 C 
ENDBRANCH  12  15
ENDBRANCH   1  12
BRANCH   6  17
ATOM     17  N   UNL     1      45.746   7.824  12.341  0.00  0.00    +0.000 N 
ATOM     18  C   UNL     1      45.180   9.164  12.524  0.00  0.00    +0.000 C 
BRANCH  17  19
ATOM     19  C   UNL     1      45.005   6.866  11.486  0.00  0.00    +0.000 C 
BRANCH  19  20
ATOM     20  C   UNL     1      45.885   6.240  10.396  0.00  0.00    +0.000 C 
BRANCH  20  21
ATOM     21  C   UNL     1      45.340   4.942   9.868  0.00  0.00    +0.000 A 
ATOM     22  C   UNL     1      44.627   4.082  10.700  0.00  0.00    +0.000 A 
ATOM     23  C   UNL     1      44.211   2.855  10.194  0.00  0.00    +0.000 A 
ATOM     24  C   UNL     1      44.509   2.522   8.878  0.00  0.00    +0.000 A 
ATOM     25  C   UNL     1      45.206   3.441   8.114  0.00  0.00    +0.000 A 
ATOM     26  N   UNL     1      45.622   4.639   8.578  0.00  0.00    +0.000 NA
ENDBRANCH  20  21
ENDBRANCH  19  20
ENDBRANCH  17  19
ENDBRANCH   6  17
TORSDOF 7
ENDMDL
MODEL 9
REMARK VINA RESULT:    -5.773      3.356      6.448
REMARK INTER + INTRA:          -8.706
REMARK INTER:                  -8.102
REMARK INTRA:                  -0.604
REMARK UNBOUND:                -0.571
REMARK  Name = 
REMARK  10 active torsions:
REMARK  status: ('A' for Active; 'I' for Inactive)
REMARK    1  A    between atoms: C_1  and  C_2
REMARK    2  A    between atoms: C_2  and  C_3
REMARK    3  A    between atoms: C_2  and  N_4
REMARK    4  A    between atoms: N_4  and  C_5
REMARK    5  A    between atoms: C_8  and  C_9
REMARK    6  A    between atoms: C_13  and  N_14
REMARK    7  A    between atoms: N_14  and  C_15
REMARK    8  A    between atoms: N_14  and  C_16
REMARK    9  A    between atoms: C_16  and  C_17
REMARK   10  A    between atoms: C_17  and  C_18
REMARK                            x       y       z     vdW  Elec       q    Type
REMARK                         _______ _______ _______ _____ _____    ______ ____
ROOT
ATOM      1  C   UNL     1      45.712   4.762  12.974  0.00  0.00    +0.000 A 
ATOM      2  N   UNL     1      45.343   3.460  12.961  0.00  0.00    +0.000 NA
ATOM      3  C   UNL     1      44.977   2.909  11.781  0.00  0.00    +0.000 A 
ATOM      4  C   UNL     1      44.932   3.599  10.582  0.00  0.00    +0.000 A 
ATOM      5  C   UNL     1      45.298   4.941  10.602  0.00  0.00    +0.000 A 
ATOM      6  C   UNL     1      45.720   5.569  11.793  0.00  0.00    +0.000 A 
ENDROOT
BRANCH   4   7
ATOM      7  C   UNL     1      44.543   2.992   9.285  0.00  0.00    +0.000 C 
ATOM      8  N   UNL     1      44.199   3.812   8.240  0.00  0.00    +0.000 N 
ATOM      9  O   UNL     1      44.504   1.781   9.132  0.00  0.00    +0.000 OA
ATOM     10  H   UNL     1      44.184   4.819   8.245  0.00  0.00    +0.000 HD
ATOM     11  H   UNL     1      43.932   3.354   7.377  0.00  0.00    +0.000 HD
ENDBRANCH   4   7
BRANCH   1  12
ATOM     12  N   UNL     1      46.096   5.354  14.203  0.00  0.00    +0.000 N 
ATOM     13  H   UNL     1      46.159   6.350  13.984  0.00  0.00    +0.000 HD
BRANCH  12  15
ATOM     14  C   UNL     1      48.219   6.117  15.076  0.00  0.00    +0.000 C 
ATOM     15  C   UNL     1      47.358   4.877  14.792  0.00  0.00    +0.000 C 
ATOM     16  C   UNL     1      47.167   4.113  16.101  0.00  0.00    +0.000 C 
ENDBRANCH  12  15
ENDBRANCH   1  12
BRANCH   6  17
ATOM     17  N   UNL     1      46.242   6.873  11.757  0.00  0.00    +0.000 N 
ATOM     18  C   UNL     1      45.417   7.964  12.284  0.00  0.00    +0.000 C 
BRANCH  17  19
ATOM     19  C   UNL     1      47.711   7.068  11.715  0.00  0.00    +0.000 C 
BRANCH  19  20
ATOM     20  C   UNL     1      48.126   8.515  12.006  0.00  0.00    +0.000 C 
BRANCH  20  21
ATOM     21  C   UNL     1      49.534   8.826  11.577  0.00  0.00    +0.000 A 
ATOM     22  C   UNL     1      50.442   7.800  11.330  0.00  0.00    +0.000 A 
ATOM     23  C   UNL     1      51.756   8.131  11.015  0.00  0.00    +0.000 A 
ATOM     24  C   UNL     1      52.126   9.469  10.949  0.00  0.00    +0.000 A 
ATOM     25  C   UNL     1      51.158  10.427  11.192  0.00  0.00    +0.000 A 
ATOM     26  N   UNL     1      49.875  10.135  11.500  0.00  0.00    +0.000 NA
ENDBRANCH  20  21
ENDBRANCH  19  20
ENDBRANCH  17  19
ENDBRANCH   6  17
TORSDOF 7
ENDMDL
