MODEL 1
REMARK VINA RESULT:    -8.984      0.000      0.000
REMARK INTER + INTRA:         -12.654
REMARK INTER:                 -11.610
REMARK INTRA:                  -1.044
REMARK UNBOUND:                -1.044
REMARK  Name = 
REMARK  6 active torsions:
REMARK  status: ('A' for Active; 'I' for Inactive)
REMARK    1  A    between atoms: C_1  and  C_2
REMARK    2  A    between atoms: C_6  and  C_7
REMARK    3  A    between atoms: C_11  and  C_12
REMARK    4  A    between atoms: C_12  and  N_13
REMARK    5  A    between atoms: N_13  and  C_14
REMARK    6  A    between atoms: C_17  and  C_18
REMARK                            x       y       z     vdW  Elec       q    Type
REMARK                         _______ _______ _______ _____ _____    ______ ____
ROOT
ATOM      1  C   UNL     1      43.834   5.019  11.333  0.00  0.00    +0.000 C 
ATOM      2  C   UNL     1      43.013   6.267  11.093  0.00  0.00    +0.000 C 
ATOM      3  C   UNL     1      42.470   5.232  12.019  0.00  0.00    +0.000 C 
ENDROOT
BRANCH   1   8
ATOM      4  C   UNL     1      47.062   6.405  12.546  0.00  0.00    +0.000 A 
ATOM      5  C   UNL     1      47.531   5.446  13.434  0.00  0.00    +0.000 A 
ATOM      6  C   UNL     1      46.748   4.334  13.704  0.00  0.00    +0.000 A 
ATOM      7  C   UNL     1      45.524   4.191  13.062  0.00  0.00    +0.000 A 
ATOM      8  C   UNL     1      45.115   5.168  12.156  0.00  0.00    +0.000 A 
ATOM      9  N   UNL     1      45.852   6.294  11.955  0.00  0.00    +0.000 NA
BRANCH   4  15
ATOM     10  C   UNL     1      51.388   8.536  11.101  0.00  0.00    +0.000 C 
ATOM     11  C   UNL     1      49.951   8.633  11.500  0.00  0.00    +0.000 A 
ATOM     12  C   UNL     1      49.306   9.857  11.605  0.00  0.00    +0.000 A 
ATOM     13  N   UNL     1      48.008  10.003  11.948  0.00  0.00    +0.000 NA
ATOM     14  C   UNL     1      47.317   8.866  12.213  0.00  0.00    +0.000 A 
ATOM     15  C   UNL     1      47.856   7.581  12.177  0.00  0.00    +0.000 A 
ATOM     16  C   UNL     1      49.202   7.487  11.786  0.00  0.00    +0.000 A 
ENDBRANCH   4  15
ENDBRANCH   1   8
BRANCH   1  17
ATOM     17  N   UNL     1      43.876   3.806  10.495  0.00  0.00    +0.000 N 
ATOM     18  H   UNL     1      43.853   2.982  11.102  0.00  0.00    +0.000 HD
BRANCH  17  19
ATOM     19  C   UNL     1      44.810   3.537   9.485  0.00  0.00    +0.000 A 
ATOM     20  C   UNL     1      45.452   4.483   8.687  0.00  0.00    +0.000 A 
ATOM     21  C   UNL     1      46.336   4.070   7.679  0.00  0.00    +0.000 A 
ATOM     22  C   UNL     1      46.597   2.705   7.480  0.00  0.00    +0.000 A 
ATOM     23  C   UNL     1      46.005   1.762   8.318  0.00  0.00    +0.000 A 
ATOM     24  C   UNL     1      45.088   2.180   9.277  0.00  0.00    +0.000 A 
BRANCH  22  25
ATOM     25  C   UNL     1      47.461   2.303   6.335  0.00  0.00    +0.000 C 
ATOM     26  N   UNL     1      47.323   3.008   5.163  0.00  0.00    +0.000 N 
ATOM     27  O   UNL     1      48.268   1.408   6.428  0.00  0.00    +0.000 OA
ATOM     28  H   UNL     1      46.726   3.808   5.036  0.00  0.00    +0.000 HD
ATOM     29  H   UNL     1      47.969   2.773   4.422  0.00  0.00    +0.000 HD
ENDBRANCH  22  25
ENDBRANCH  17  19
ENDBRANCH   1  17
TORSDOF 5
ENDMDL
MODEL 2
REMARK VINA RESULT:    -8.885      2.101      3.831
REMARK INTER + INTRA:         -12.527
REMARK INTER:                 -12.435
REMARK INTRA:                  -0.092
REMARK UNBOUND:                -1.044
REMARK  Name = 
REMARK  6 active torsions:
REMARK  status: ('A' for Active; 'I' for Inactive)
REMARK    1  A    between atoms: C_1  and  C_2
REMARK    2  A    between atoms: C_6  and  C_7
REMARK    3  A    between atoms: C_11  and  C_12
REMARK    4  A    between atoms: C_12  and  N_13
REMARK    5  A    between atoms: N_13  and  C_14
REMARK    6  A    between atoms: C_17  and  C_18
REMARK                            x       y       z     vdW  Elec       q    Type
REMARK                         _______ _______ _______ _____ _____    ______ ____
ROOT
ATOM      1  C   UNL     1      44.098   4.887  11.702  0.00  0.00    +0.000 C 
ATOM      2  C   UNL     1      42.996   5.008  12.732  0.00  0.00    +0.000 C 
ATOM      3  C   UNL     1      43.613   3.668  12.511  0.00  0.00    +0.000 C 
ENDROOT
BRANCH   1   8
ATOM      4  C   UNL     1      47.153   5.773  13.625  0.00  0.00    +0.000 A 
ATOM      5  C   UNL     1      47.778   6.736  12.844  0.00  0.00    +0.000 A 
ATOM      6  C   UNL     1      47.229   7.071  11.615  0.00  0.00    +0.000 A 
ATOM      7  C   UNL     1      46.053   6.455  11.204  0.00  0.00    +0.000 A 
ATOM      8  C   UNL     1      45.450   5.519  12.041  0.00  0.00    +0.000 A 
ATOM      9  N   UNL     1      46.035   5.138  13.209  0.00  0.00    +0.000 NA
BRANCH   4  15
ATOM     10  C   UNL     1      47.184   2.736  17.640  0.00  0.00    +0.000 C 
ATOM     11  C   UNL     1      47.659   3.956  16.918  0.00  0.00    +0.000 A 
ATOM     12  C   UNL     1      48.555   4.842  17.499  0.00  0.00    +0.000 A 
ATOM     13  N   UNL     1      49.027   5.951  16.889  0.00  0.00    +0.000 NA
ATOM     14  C   UNL     1      48.572   6.196  15.634  0.00  0.00    +0.000 A 
ATOM     15  C   UNL     1      47.650   5.403  14.954  0.00  0.00    +0.000 A 
ATOM     16  C   UNL     1      47.214   4.248  15.624  0.00  0.00    +0.000 A 
ENDBRANCH   4  15
ENDBRANCH   1   8
BRANCH   1  17
ATOM     17  N   UNL     1      43.941   4.713  10.246  0.00  0.00    +0.000 N 
ATOM     18  H   UNL     1      42.962   4.488  10.042  0.00  0.00    +0.000 HD
BRANCH  17  19
ATOM     19  C   UNL     1      44.722   3.885   9.428  0.00  0.00    +0.000 A 
ATOM     20  C   UNL     1      44.798   2.495   9.499  0.00  0.00    +0.000 A 
ATOM     21  C   UNL     1      45.659   1.792   8.643  0.00  0.00    +0.000 A 
ATOM     22  C   UNL     1      46.433   2.479   7.695  0.00  0.00    +0.000 A 
ATOM     23  C   UNL     1      46.312   3.862   7.580  0.00  0.00    +0.000 A 
ATOM     24  C   UNL     1      45.497   4.554   8.471  0.00  0.00    +0.000 A 
BRANCH  22  25
ATOM     25  C   UNL     1      47.409   1.708   6.876  0.00  0.00    +0.000 C 
ATOM     26  N   UNL     1      48.542   2.365   6.459  0.00  0.00    +0.000 N 
ATOM     27  O   UNL     1      47.232   0.543   6.600  0.00  0.00    +0.000 OA
ATOM     28  H   UNL     1      48.789   3.307   6.710  0.00  0.00    +0.000 HD
ATOM     29  H   UNL     1      49.228   1.806   5.970  0.00  0.00    +0.000 HD
ENDBRANCH  22  25
ENDBRANCH  17  19
ENDBRANCH   1  17
TORSDOF 5
ENDMDL
MODEL 3
REMARK VINA RESULT:    -7.770      1.391      2.345
REMARK INTER + INTRA:         -11.085
REMARK INTER:                 -11.005
REMARK INTRA:                  -0.081
REMARK UNBOUND:                -1.044
REMARK  Name = 
REMARK  6 active torsions:
REMARK  status: ('A' for Active; 'I' for Inactive)
REMARK    1  A    between atoms: C_1  and  C_2
REMARK    2  A    between atoms: C_6  and  C_7
REMARK    3  A    between atoms: C_11  and  C_12
REMARK    4  A    between atoms: C_12  and  N_13
REMARK    5  A    between atoms: N_13  and  C_14
REMARK    6  A    between atoms: C_17  and  C_18
REMARK                            x       y       z     vdW  Elec       q    Type
REMARK                         _______ _______ _______ _____ _____    ______ ____
ROOT
ATOM      1  C   UNL     1      44.127   5.086  11.545  0.00  0.00    +0.000 C 
ATOM      2  C   UNL     1      43.496   4.586  12.826  0.00  0.00    +0.000 C 
ATOM      3  C   UNL     1      44.796   3.993  12.400  0.00  0.00    +0.000 C 
ENDROOT
BRANCH   1   8
ATOM      4  C   UNL     1      46.552   7.862  12.022  0.00  0.00    +0.000 A 
ATOM      5  C   UNL     1      45.805   9.009  11.790  0.00  0.00    +0.000 A 
ATOM      6  C   UNL     1      44.479   8.886  11.402  0.00  0.00    +0.000 A 
ATOM      7  C   UNL     1      43.921   7.619  11.277  0.00  0.00    +0.000 A 
ATOM      8  C   UNL     1      44.707   6.502  11.553  0.00  0.00    +0.000 A 
ATOM      9  N   UNL     1      46.027   6.627  11.857  0.00  0.00    +0.000 NA
BRANCH   4  15
ATOM     10  C   UNL     1      51.492   8.200  11.111  0.00  0.00    +0.000 C 
ATOM     11  C   UNL     1      50.342   8.054  12.056  0.00  0.00    +0.000 A 
ATOM     12  C   UNL     1      50.537   7.899  13.421  0.00  0.00    +0.000 A 
ATOM     13  N   UNL     1      49.537   7.777  14.320  0.00  0.00    +0.000 NA
ATOM     14  C   UNL     1      48.272   7.799  13.830  0.00  0.00    +0.000 A 
ATOM     15  C   UNL     1      47.944   7.916  12.481  0.00  0.00    +0.000 A 
ATOM     16  C   UNL     1      49.022   8.069  11.594  0.00  0.00    +0.000 A 
ENDBRANCH   4  15
ENDBRANCH   1   8
BRANCH   1  17
ATOM     17  N   UNL     1      43.825   4.641  10.172  0.00  0.00    +0.000 N 
ATOM     18  H   UNL     1      42.898   4.207  10.159  0.00  0.00    +0.000 HD
BRANCH  17  19
ATOM     19  C   UNL     1      44.652   3.847   9.365  0.00  0.00    +0.000 A 
ATOM     20  C   UNL     1      44.719   2.454   9.378  0.00  0.00    +0.000 A 
ATOM     21  C   UNL     1      45.627   1.786   8.544  0.00  0.00    +0.000 A 
ATOM     22  C   UNL     1      46.460   2.510   7.676  0.00  0.00    +0.000 A 
ATOM     23  C   UNL     1      46.350   3.898   7.617  0.00  0.00    +0.000 A 
ATOM     24  C   UNL     1      45.485   4.553   8.488  0.00  0.00    +0.000 A 
BRANCH  22  25
ATOM     25  C   UNL     1      47.481   1.771   6.883  0.00  0.00    +0.000 C 
ATOM     26  N   UNL     1      48.567   2.482   6.433  0.00  0.00    +0.000 N 
ATOM     27  O   UNL     1      47.378   0.587   6.656  0.00  0.00    +0.000 OA
ATOM     28  H   UNL     1      48.753   3.448   6.643  0.00  0.00    +0.000 HD
ATOM     29  H   UNL     1      49.286   1.949   5.963  0.00  0.00    +0.000 HD
ENDBRANCH  22  25
ENDBRANCH  17  19
ENDBRANCH   1  17
TORSDOF 5
ENDMDL
MODEL 4
REMARK VINA RESULT:    -7.498      3.214      7.376
REMARK INTER + INTRA:         -10.733
REMARK INTER:                  -9.803
REMARK INTRA:                  -0.930
REMARK UNBOUND:                -1.044
REMARK  Name = 
REMARK  6 active torsions:
REMARK  status: ('A' for Active; 'I' for Inactive)
REMARK    1  A    between atoms: C_1  and  C_2
REMARK    2  A    between atoms: C_6  and  C_7
REMARK    3  A    between atoms: C_11  and  C_12
REMARK    4  A    between atoms: C_12  and  N_13
REMARK    5  A    between atoms: N_13  and  C_14
REMARK    6  A    between atoms: C_17  and  C_18
REMARK                            x       y       z     vdW  Elec       q    Type
REMARK                         _______ _______ _______ _____ _____    ______ ____
ROOT
ATOM      1  C   UNL     1      46.006   6.941  12.346  0.00  0.00    +0.000 C 
ATOM      2  C   UNL     1      45.324   8.180  12.886  0.00  0.00    +0.000 C 
ATOM      3  C   UNL     1      46.166   8.314  11.663  0.00  0.00    +0.000 C 
ENDROOT
BRANCH   1   8
ATOM      4  C   UNL     1      44.898   4.286   9.994  0.00  0.00    +0.000 A 
ATOM      5  C   UNL     1      43.563   4.083  10.315  0.00  0.00    +0.000 A 
ATOM      6  C   UNL     1      43.008   4.785  11.376  0.00  0.00    +0.000 A 
ATOM      7  C   UNL     1      43.793   5.692  12.076  0.00  0.00    +0.000 A 
ATOM      8  C   UNL     1      45.119   5.880  11.692  0.00  0.00    +0.000 A 
ATOM      9  N   UNL     1      45.678   5.132  10.702  0.00  0.00    +0.000 NA
BRANCH   4  15
ATOM     10  C   UNL     1      46.661   0.149   7.729  0.00  0.00    +0.000 C 
ATOM     11  C   UNL     1      46.419   1.624   7.756  0.00  0.00    +0.000 A 
ATOM     12  C   UNL     1      46.847   2.451   6.727  0.00  0.00    +0.000 A 
ATOM     13  N   UNL     1      46.645   3.786   6.693  0.00  0.00    +0.000 NA
ATOM     14  C   UNL     1      45.989   4.329   7.749  0.00  0.00    +0.000 A 
ATOM     15  C   UNL     1      45.537   3.615   8.858  0.00  0.00    +0.000 A 
ATOM     16  C   UNL     1      45.750   2.227   8.827  0.00  0.00    +0.000 A 
ENDBRANCH   4  15
ENDBRANCH   1   8
BRANCH   1  17
ATOM     17  N   UNL     1      47.288   6.365  12.793  0.00  0.00    +0.000 N 
ATOM     18  H   UNL     1      47.569   5.632  12.136  0.00  0.00    +0.000 HD
BRANCH  17  19
ATOM     19  C   UNL     1      47.568   5.883  14.079  0.00  0.00    +0.000 A 
ATOM     20  C   UNL     1      48.387   6.497  15.025  0.00  0.00    +0.000 A 
ATOM     21  C   UNL     1      48.618   5.879  16.263  0.00  0.00    +0.000 A 
ATOM     22  C   UNL     1      48.009   4.651  16.568  0.00  0.00    +0.000 A 
ATOM     23  C   UNL     1      47.140   4.068  15.648  0.00  0.00    +0.000 A 
ATOM     24  C   UNL     1      46.964   4.661  14.402  0.00  0.00    +0.000 A 
BRANCH  22  25
ATOM     25  C   UNL     1      48.360   3.979  17.850  0.00  0.00    +0.000 C 
ATOM     26  N   UNL     1      47.879   4.539  19.009  0.00  0.00    +0.000 N 
ATOM     27  O   UNL     1      49.024   2.968  17.880  0.00  0.00    +0.000 OA
ATOM     28  H   UNL     1      47.263   5.334  19.054  0.00  0.00    +0.000 HD
ATOM     29  H   UNL     1      48.061   4.029  19.862  0.00  0.00    +0.000 HD
ENDBRANCH  22  25
ENDBRANCH  17  19
ENDBRANCH   1  17
TORSDOF 5
ENDMDL
MODEL 5
REMARK VINA RESULT:    -7.064      3.219      7.396
REMARK INTER + INTRA:         -10.174
REMARK INTER:                  -9.474
REMARK INTRA:                  -0.700
REMARK UNBOUND:                -1.044
REMARK  Name = 
REMARK  6 active torsions:
REMARK  status: ('A' for Active; 'I' for Inactive)
REMARK    1  A    between atoms: C_1  and  C_2
REMARK    2  A    between atoms: C_6  and  C_7
REMARK    3  A    between atoms: C_11  and  C_12
REMARK    4  A    between atoms: C_12  and  N_13
REMARK    5  A    between atoms: N_13  and  C_14
REMARK    6  A    between atoms: C_17  and  C_18
REMARK                            x       y       z     vdW  Elec       q    Type
REMARK                         _______ _______ _______ _____ _____    ______ ____
ROOT
ATOM      1  C   UNL     1      48.089   8.008  12.471  0.00  0.00    +0.000 C 
ATOM      2  C   UNL     1      48.448   9.450  12.758  0.00  0.00    +0.000 C 
ATOM      3  C   UNL     1      48.997   8.818  11.525  0.00  0.00    +0.000 C 
ENDROOT
BRANCH   1   8
ATOM      4  C   UNL     1      45.187   6.261  10.941  0.00  0.00    +0.000 A 
ATOM      5  C   UNL     1      44.137   7.159  11.081  0.00  0.00    +0.000 A 
ATOM      6  C   UNL     1      44.355   8.354  11.752  0.00  0.00    +0.000 A 
ATOM      7  C   UNL     1      45.622   8.635  12.247  0.00  0.00    +0.000 A 
ATOM      8  C   UNL     1      46.648   7.713  12.051  0.00  0.00    +0.000 A 
ATOM      9  N   UNL     1      46.409   6.510  11.461  0.00  0.00    +0.000 NA
BRANCH   4  15
ATOM     10  C   UNL     1      46.142   3.350   6.945  0.00  0.00    +0.000 C 
ATOM     11  C   UNL     1      45.475   3.588   8.262  0.00  0.00    +0.000 A 
ATOM     12  C   UNL     1      44.629   2.646   8.830  0.00  0.00    +0.000 A 
ATOM     13  N   UNL     1      44.012   2.802  10.021  0.00  0.00    +0.000 NA
ATOM     14  C   UNL     1      44.242   3.966  10.679  0.00  0.00    +0.000 A 
ATOM     15  C   UNL     1      45.043   5.002  10.203  0.00  0.00    +0.000 A 
ATOM     16  C   UNL     1      45.683   4.774   8.973  0.00  0.00    +0.000 A 
ENDBRANCH   4  15
ENDBRANCH   1   8
BRANCH   1  17
ATOM     17  N   UNL     1      48.745   6.803  13.011  0.00  0.00    +0.000 N 
ATOM     18  H   UNL     1      48.775   6.085  12.281  0.00  0.00    +0.000 HD
BRANCH  17  19
ATOM     19  C   UNL     1      48.409   6.150  14.204  0.00  0.00    +0.000 A 
ATOM     20  C   UNL     1      48.875   6.475  15.478  0.00  0.00    +0.000 A 
ATOM     21  C   UNL     1      48.490   5.705  16.586  0.00  0.00    +0.000 A 
ATOM     22  C   UNL     1      47.618   4.617  16.425  0.00  0.00    +0.000 A 
ATOM     23  C   UNL     1      47.102   4.330  15.164  0.00  0.00    +0.000 A 
ATOM     24  C   UNL     1      47.534   5.064  14.064  0.00  0.00    +0.000 A 
BRANCH  22  25
ATOM     25  C   UNL     1      47.315   3.764  17.609  0.00  0.00    +0.000 C 
ATOM     26  N   UNL     1      47.964   4.061  18.783  0.00  0.00    +0.000 N 
ATOM     27  O   UNL     1      46.517   2.857  17.554  0.00  0.00    +0.000 OA
ATOM     28  H   UNL     1      48.584   4.842  18.920  0.00  0.00    +0.000 HD
ATOM     29  H   UNL     1      47.691   3.522  19.593  0.00  0.00    +0.000 HD
ENDBRANCH  22  25
ENDBRANCH  17  19
ENDBRANCH   1  17
TORSDOF 5
ENDMDL
MODEL 6
REMARK VINA RESULT:    -6.805      3.870      6.097
REMARK INTER + INTRA:          -9.839
REMARK INTER:                  -8.993
REMARK INTRA:                  -0.846
REMARK UNBOUND:                -1.044
REMARK  Name = 
REMARK  6 active torsions:
REMARK  status: ('A' for Active; 'I' for Inactive)
REMARK    1  A    between atoms: C_1  and  C_2
REMARK    2  A    between atoms: C_6  and  C_7
REMARK    3  A    between atoms: C_11  and  C_12
REMARK    4  A    between atoms: C_12  and  N_13
REMARK    5  A    between atoms: N_13  and  C_14
REMARK    6  A    between atoms: C_17  and  C_18
REMARK                            x       y       z     vdW  Elec       q    Type
REMARK                         _______ _______ _______ _____ _____    ______ ____
ROOT
ATOM      1  C   UNL     1      48.059   7.739  13.104  0.00  0.00    +0.000 C 
ATOM      2  C   UNL     1      49.178   7.462  12.124  0.00  0.00    +0.000 C 
ATOM      3  C   UNL     1      48.663   8.857  12.231  0.00  0.00    +0.000 C 
ENDROOT
BRANCH   1   8
ATOM      4  C   UNL     1      49.040   6.365  16.415  0.00  0.00    +0.000 A 
ATOM      5  C   UNL     1      48.858   7.426  17.291  0.00  0.00    +0.000 A 
ATOM      6  C   UNL     1      48.462   8.657  16.788  0.00  0.00    +0.000 A 
ATOM      7  C   UNL     1      48.233   8.794  15.425  0.00  0.00    +0.000 A 
ATOM      8  C   UNL     1      48.400   7.688  14.594  0.00  0.00    +0.000 A 
ATOM      9  N   UNL     1      48.864   6.505  15.082  0.00  0.00    +0.000 NA
BRANCH   4  15
ATOM     10  C   UNL     1      52.431   3.074  18.153  0.00  0.00    +0.000 C 
ATOM     11  C   UNL     1      51.047   3.410  17.699  0.00  0.00    +0.000 A 
ATOM     12  C   UNL     1      50.049   2.448  17.634  0.00  0.00    +0.000 A 
ATOM     13  N   UNL     1      48.780   2.699  17.245  0.00  0.00    +0.000 NA
ATOM     14  C   UNL     1      48.492   3.976  16.889  0.00  0.00    +0.000 A 
ATOM     15  C   UNL     1      49.410   5.024  16.880  0.00  0.00    +0.000 A 
ATOM     16  C   UNL     1      50.707   4.714  17.321  0.00  0.00    +0.000 A 
ENDBRANCH   4  15
ENDBRANCH   1   8
BRANCH   1  17
ATOM     17  N   UNL     1      46.614   7.549  12.881  0.00  0.00    +0.000 N 
ATOM     18  H   UNL     1      46.114   7.742  13.754  0.00  0.00    +0.000 HD
BRANCH  17  19
ATOM     19  C   UNL     1      46.011   6.417  12.314  0.00  0.00    +0.000 A 
ATOM     20  C   UNL     1      45.637   6.268  10.980  0.00  0.00    +0.000 A 
ATOM     21  C   UNL     1      45.000   5.092  10.555  0.00  0.00    +0.000 A 
ATOM     22  C   UNL     1      44.754   4.050  11.463  0.00  0.00    +0.000 A 
ATOM     23  C   UNL     1      45.184   4.173  12.783  0.00  0.00    +0.000 A 
ATOM     24  C   UNL     1      45.764   5.365  13.205  0.00  0.00    +0.000 A 
BRANCH  22  25
ATOM     25  C   UNL     1      43.985   2.863  10.997  0.00  0.00    +0.000 C 
ATOM     26  N   UNL     1      44.491   2.163   9.929  0.00  0.00    +0.000 N 
ATOM     27  O   UNL     1      42.965   2.509  11.542  0.00  0.00    +0.000 OA
ATOM     28  H   UNL     1      45.368   2.356   9.474  0.00  0.00    +0.000 HD
ATOM     29  H   UNL     1      43.999   1.318   9.674  0.00  0.00    +0.000 HD
ENDBRANCH  22  25
ENDBRANCH  17  19
ENDBRANCH   1  17
TORSDOF 5
ENDMDL
MODEL 7
REMARK VINA RESULT:    -6.748      5.587      8.557
REMARK INTER + INTRA:          -9.765
REMARK INTER:                  -9.056
REMARK INTRA:                  -0.709
REMARK UNBOUND:                -1.044
REMARK  Name = 
REMARK  6 active torsions:
REMARK  status: ('A' for Active; 'I' for Inactive)
REMARK    1  A    between atoms: C_1  and  C_2
REMARK    2  A    between atoms: C_6  and  C_7
REMARK    3  A    between atoms: C_11  and  C_12
REMARK    4  A    between atoms: C_12  and  N_13
REMARK    5  A    between atoms: N_13  and  C_14
REMARK    6  A    between atoms: C_17  and  C_18
REMARK                            x       y       z     vdW  Elec       q    Type
REMARK                         _______ _______ _______ _____ _____    ______ ____
ROOT
ATOM      1  C   UNL     1      48.328   4.698  17.085  0.00  0.00    +0.000 C 
ATOM      2  C   UNL     1      47.235   3.659  17.224  0.00  0.00    +0.000 C 
ATOM      3  C   UNL     1      47.186   4.858  18.108  0.00  0.00    +0.000 C 
ENDROOT
BRANCH   1   8
ATOM      4  C   UNL     1      47.403   5.921  13.700  0.00  0.00    +0.000 A 
ATOM      5  C   UNL     1      48.343   6.906  13.426  0.00  0.00    +0.000 A 
ATOM      6  C   UNL     1      49.277   7.237  14.397  0.00  0.00    +0.000 A 
ATOM      7  C   UNL     1      49.268   6.560  15.609  0.00  0.00    +0.000 A 
ATOM      8  C   UNL     1      48.323   5.557  15.820  0.00  0.00    +0.000 A 
ATOM      9  N   UNL     1      47.361   5.292  14.895  0.00  0.00    +0.000 NA
BRANCH   4  15
ATOM     10  C   UNL     1      43.638   2.917  12.236  0.00  0.00    +0.000 C 
ATOM     11  C   UNL     1      44.608   4.023  11.971  0.00  0.00    +0.000 A 
ATOM     12  C   UNL     1      44.669   4.659  10.739  0.00  0.00    +0.000 A 
ATOM     13  N   UNL     1      45.515   5.670  10.449  0.00  0.00    +0.000 NA
ATOM     14  C   UNL     1      46.356   6.064  11.439  0.00  0.00    +0.000 A 
ATOM     15  C   UNL     1      46.417   5.487  12.706  0.00  0.00    +0.000 A 
ATOM     16  C   UNL     1      45.495   4.458  12.961  0.00  0.00    +0.000 A 
ENDBRANCH   4  15
ENDBRANCH   1   8
BRANCH   1  17
ATOM     17  N   UNL     1      49.663   4.672  17.709  0.00  0.00    +0.000 N 
ATOM     18  H   UNL     1      50.186   5.500  17.409  0.00  0.00    +0.000 HD
BRANCH  17  19
ATOM     19  C   UNL     1      50.562   3.597  17.684  0.00  0.00    +0.000 A 
ATOM     20  C   UNL     1      50.280   2.302  17.252  0.00  0.00    +0.000 A 
ATOM     21  C   UNL     1      51.267   1.307  17.322  0.00  0.00    +0.000 A 
ATOM     22  C   UNL     1      52.549   1.611  17.806  0.00  0.00    +0.000 A 
ATOM     23  C   UNL     1      52.851   2.919  18.178  0.00  0.00    +0.000 A 
ATOM     24  C   UNL     1      51.849   3.885  18.157  0.00  0.00    +0.000 A 
BRANCH  22  25
ATOM     25  C   UNL     1      53.535   0.506  17.960  0.00  0.00    +0.000 C 
ATOM     26  N   UNL     1      53.732  -0.321  16.880  0.00  0.00    +0.000 N 
ATOM     27  O   UNL     1      54.159   0.345  18.985  0.00  0.00    +0.000 OA
ATOM     28  H   UNL     1      53.303  -0.204  15.977  0.00  0.00    +0.000 HD
ATOM     29  H   UNL     1      54.458  -1.017  16.976  0.00  0.00    +0.000 HD
ENDBRANCH  22  25
ENDBRANCH  17  19
ENDBRANCH   1  17
TORSDOF 5
ENDMDL
MODEL 8
REMARK VINA RESULT:    -6.544      3.502      6.222
REMARK INTER + INTRA:          -9.501
REMARK INTER:                  -8.553
REMARK INTRA:                  -0.948
REMARK UNBOUND:                -1.044
REMARK  Name = 
REMARK  6 active torsions:
REMARK  status: ('A' for Active; 'I' for Inactive)
REMARK    1  A    between atoms: C_1  and  C_2
REMARK    2  A    between atoms: C_6  and  C_7
REMARK    3  A    between atoms: C_11  and  C_12
REMARK    4  A    between atoms: C_12  and  N_13
REMARK    5  A    between atoms: N_13  and  C_14
REMARK    6  A    between atoms: C_17  and  C_18
REMARK                            x       y       z     vdW  Elec       q    Type
REMARK                         _______ _______ _______ _____ _____    ______ ____
ROOT
ATOM      1  C   UNL     1      48.374   8.192  12.500  0.00  0.00    +0.000 C 
ATOM      2  C   UNL     1      49.507   7.760  11.594  0.00  0.00    +0.000 C 
ATOM      3  C   UNL     1      49.041   9.174  11.518  0.00  0.00    +0.000 C 
ENDROOT
BRANCH   1   8
ATOM      4  C   UNL     1      49.095   7.188  16.005  0.00  0.00    +0.000 A 
ATOM      5  C   UNL     1      49.039   8.379  16.718  0.00  0.00    +0.000 A 
ATOM      6  C   UNL     1      48.821   9.566  16.034  0.00  0.00    +0.000 A 
ATOM      7  C   UNL     1      48.641   9.536  14.657  0.00  0.00    +0.000 A 
ATOM      8  C   UNL     1      48.675   8.310  13.995  0.00  0.00    +0.000 A 
ATOM      9  N   UNL     1      48.966   7.159  14.660  0.00  0.00    +0.000 NA
BRANCH   4  15
ATOM     10  C   UNL     1      47.325   2.729  17.531  0.00  0.00    +0.000 C 
ATOM     11  C   UNL     1      48.425   3.737  17.434  0.00  0.00    +0.000 A 
ATOM     12  C   UNL     1      49.663   3.522  18.023  0.00  0.00    +0.000 A 
ATOM     13  N   UNL     1      50.695   4.390  17.956  0.00  0.00    +0.000 NA
ATOM     14  C   UNL     1      50.478   5.542  17.273  0.00  0.00    +0.000 A 
ATOM     15  C   UNL     1      49.274   5.892  16.665  0.00  0.00    +0.000 A 
ATOM     16  C   UNL     1      48.244   4.939  16.742  0.00  0.00    +0.000 A 
ENDBRANCH   4  15
ENDBRANCH   1   8
BRANCH   1  17
ATOM     17  N   UNL     1      46.929   8.026  12.258  0.00  0.00    +0.000 N 
ATOM     18  H   UNL     1      46.411   8.460  13.028  0.00  0.00    +0.000 HD
BRANCH  17  19
ATOM     19  C   UNL     1      46.278   6.820  11.965  0.00  0.00    +0.000 A 
ATOM     20  C   UNL     1      45.963   6.346  10.692  0.00  0.00    +0.000 A 
ATOM     21  C   UNL     1      45.267   5.136  10.544  0.00  0.00    +0.000 A 
ATOM     22  C   UNL     1      44.902   4.385  11.672  0.00  0.00    +0.000 A 
ATOM     23  C   UNL     1      45.272   4.826  12.941  0.00  0.00    +0.000 A 
ATOM     24  C   UNL     1      45.912   6.053  13.079  0.00  0.00    +0.000 A 
BRANCH  22  25
ATOM     25  C   UNL     1      44.076   3.161  11.478  0.00  0.00    +0.000 C 
ATOM     26  N   UNL     1      43.663   2.493  12.606  0.00  0.00    +0.000 N 
ATOM     27  O   UNL     1      43.759   2.773  10.377  0.00  0.00    +0.000 OA
ATOM     28  H   UNL     1      43.827   2.797  13.551  0.00  0.00    +0.000 HD
ATOM     29  H   UNL     1      43.041   1.710  12.459  0.00  0.00    +0.000 HD
ENDBRANCH  22  25
ENDBRANCH  17  19
ENDBRANCH   1  17
TORSDOF 5
ENDMDL
MODEL 9
REMARK VINA RESULT:    -6.108      4.386      7.978
REMARK INTER + INTRA:          -8.937
REMARK INTER:                  -8.388
REMARK INTRA:                  -0.550
REMARK UNBOUND:                -1.044
REMARK  Name = 
REMARK  6 active torsions:
REMARK  status: ('A' for Active; 'I' for Inactive)
REMARK    1  A    between atoms: C_1  and  C_2
REMARK    2  A    between atoms: C_6  and  C_7
REMARK    3  A    between atoms: C_11  and  C_12
REMARK    4  A    between atoms: C_12  and  N_13
REMARK    5  A    between atoms: N_13  and  C_14
REMARK    6  A    between atoms: C_17  and  C_18
REMARK                            x       y       z     vdW  Elec       q    Type
REMARK                         _______ _______ _______ _____ _____    ______ ____
ROOT
ATOM      1  C   UNL     1      48.611   8.591  16.614  0.00  0.00    +0.000 C 
ATOM      2  C   UNL     1      48.255  10.047  16.825  0.00  0.00    +0.000 C 
ATOM      3  C   UNL     1      49.617   9.588  17.223  0.00  0.00    +0.000 C 
ENDROOT
BRANCH   1   8
ATOM      4  C   UNL     1      48.075   6.711  13.454  0.00  0.00    +0.000 A 
ATOM      5  C   UNL     1      49.166   7.051  12.667  0.00  0.00    +0.000 A 
ATOM      6  C   UNL     1      50.084   7.974  13.146  0.00  0.00    +0.000 A 
ATOM      7  C   UNL     1      49.904   8.519  14.412  0.00  0.00    +0.000 A 
ATOM      8  C   UNL     1      48.808   8.118  15.173  0.00  0.00    +0.000 A 
ATOM      9  N   UNL     1      47.871   7.272  14.666  0.00  0.00    +0.000 NA
BRANCH   4  15
ATOM     10  C   UNL     1      44.460   5.108  10.338  0.00  0.00    +0.000 C 
ATOM     11  C   UNL     1      45.321   4.927  11.547  0.00  0.00    +0.000 A 
ATOM     12  C   UNL     1      45.189   3.821  12.374  0.00  0.00    +0.000 A 
ATOM     13  N   UNL     1      45.948   3.600  13.469  0.00  0.00    +0.000 NA
ATOM     14  C   UNL     1      46.882   4.540  13.763  0.00  0.00    +0.000 A 
ATOM     15  C   UNL     1      47.091   5.708  13.033  0.00  0.00    +0.000 A 
ATOM     16  C   UNL     1      46.294   5.872  11.888  0.00  0.00    +0.000 A 
ENDBRANCH   4  15
ENDBRANCH   1   8
BRANCH   1  17
ATOM     17  N   UNL     1      48.303   7.462  17.510  0.00  0.00    +0.000 N 
ATOM     18  H   UNL     1      48.366   7.780  18.481  0.00  0.00    +0.000 HD
BRANCH  17  19
ATOM     19  C   UNL     1      48.895   6.192  17.465  0.00  0.00    +0.000 A 
ATOM     20  C   UNL     1      50.260   5.919  17.550  0.00  0.00    +0.000 A 
ATOM     21  C   UNL     1      50.721   4.598  17.446  0.00  0.00    +0.000 A 
ATOM     22  C   UNL     1      49.813   3.540  17.277  0.00  0.00    +0.000 A 
ATOM     23  C   UNL     1      48.445   3.805  17.255  0.00  0.00    +0.000 A 
ATOM     24  C   UNL     1      48.003   5.124  17.303  0.00  0.00    +0.000 A 
BRANCH  22  25
ATOM     25  C   UNL     1      50.348   2.166  17.068  0.00  0.00    +0.000 C 
ATOM     26  N   UNL     1      51.170   1.654  18.043  0.00  0.00    +0.000 N 
ATOM     27  O   UNL     1      50.061   1.511  16.093  0.00  0.00    +0.000 OA
ATOM     28  H   UNL     1      51.393   2.112  18.911  0.00  0.00    +0.000 HD
ATOM     29  H   UNL     1      51.462   0.694  17.922  0.00  0.00    +0.000 HD
ENDBRANCH  22  25
ENDBRANCH  17  19
ENDBRANCH   1  17
TORSDOF 5
ENDMDL
