MODEL 1
REMARK VINA RESULT:    -8.054      0.000      0.000
REMARK INTER + INTRA:         -10.131
REMARK INTER:                  -9.937
REMARK INTRA:                  -0.194
REMARK UNBOUND:                -0.194
REMARK  Name = 
REMARK  4 active torsions:
REMARK  status: ('A' for Active; 'I' for Inactive)
REMARK    1  A    between atoms: C_2  and  C_4
REMARK    2  A    between atoms: C_7  and  C_8
REMARK    3  A    between atoms: C_8  and  C_9
REMARK    4  A    between atoms: C_9  and  C_10
REMARK                            x       y       z     vdW  Elec       q    Type
REMARK                         _______ _______ _______ _____ _____    ______ ____
ROOT
ATOM      1  C   UNL     1      46.495   2.474   7.655  0.00  0.00    +0.000 A 
ATOM      2  C   UNL     1      45.756   1.776   8.610  0.00  0.00    +0.000 A 
ATOM      3  C   UNL     1      44.875   2.462   9.444  0.00  0.00    +0.000 A 
ATOM      4  C   UNL     1      44.791   3.847   9.344  0.00  0.00    +0.000 A 
ATOM      5  N   UNL     1      45.508   4.546   8.424  0.00  0.00    +0.000 NA
ATOM      6  C   UNL     1      46.337   3.849   7.605  0.00  0.00    +0.000 A 
ENDROOT
BRANCH   1   8
ATOM      7  N   UNL     1      48.481   2.399   6.246  0.00  0.00    +0.000 N 
ATOM      8  C   UNL     1      47.410   1.732   6.774  0.00  0.00    +0.000 C 
ATOM      9  O   UNL     1      47.202   0.559   6.482  0.00  0.00    +0.000 OA
ATOM     10  H   UNL     1      49.020   1.887   5.556  0.00  0.00    +0.000 HD
ATOM     11  H   UNL     1      48.554   3.406   6.237  0.00  0.00    +0.000 HD
ENDBRANCH   1   8
BRANCH   4  12
ATOM     12  C   UNL     1      43.807   4.624  10.189  0.00  0.00    +0.000 C 
BRANCH  12  13
ATOM     13  C   UNL     1      44.089   4.792  11.694  0.00  0.00    +0.000 C 
ATOM     14  C   UNL     1      43.407   3.851  12.674  0.00  0.00    +0.000 C 
ATOM     15  C   UNL     1      43.030   5.307  12.668  0.00  0.00    +0.000 C 
BRANCH  13  16
ATOM     16  C   UNL     1      45.526   5.273  11.930  0.00  0.00    +0.000 C 
ATOM     17  C   UNL     1      45.971   5.173  13.392  0.00  0.00    +0.000 C 
ATOM     18  C   UNL     1      47.229   6.034  13.483  0.00  0.00    +0.000 C 
ATOM     19  C   UNL     1      47.219   6.940  12.255  0.00  0.00    +0.000 C 
ATOM     20  C   UNL     1      45.857   6.729  11.603  0.00  0.00    +0.000 C 
ENDBRANCH  13  16
ENDBRANCH  12  13
ENDBRANCH   4  12
TORSDOF 4
ENDMDL
MODEL 2
REMARK VINA RESULT:    -7.090      1.457      2.021
REMARK INTER + INTRA:          -8.943
REMARK INTER:                  -8.267
REMARK INTRA:                  -0.675
REMARK UNBOUND:                -0.194
REMARK  Name = 
REMARK  4 active torsions:
REMARK  status: ('A' for Active; 'I' for Inactive)
REMARK    1  A    between atoms: C_2  and  C_4
REMARK    2  A    between atoms: C_7  and  C_8
REMARK    3  A    between atoms: C_8  and  C_9
REMARK    4  A    between atoms: C_9  and  C_10
REMARK                            x       y       z     vdW  Elec       q    Type
REMARK                         _______ _______ _______ _____ _____    ______ ____
ROOT
ATOM      1  C   UNL     1      45.988   2.350   8.072  0.00  0.00    +0.000 A 
ATOM      2  C   UNL     1      46.172   3.730   7.990  0.00  0.00    +0.000 A 
ATOM      3  C   UNL     1      45.425   4.579   8.805  0.00  0.00    +0.000 A 
ATOM      4  C   UNL     1      44.466   4.032   9.651  0.00  0.00    +0.000 A 
ATOM      5  N   UNL     1      44.268   2.689   9.740  0.00  0.00    +0.000 NA
ATOM      6  C   UNL     1      45.029   1.883   8.956  0.00  0.00    +0.000 A 
ENDROOT
BRANCH   1   8
ATOM      7  N   UNL     1      46.883   0.144   7.550  0.00  0.00    +0.000 N 
ATOM      8  C   UNL     1      46.795   1.467   7.214  0.00  0.00    +0.000 C 
ATOM      9  O   UNL     1      47.407   1.906   6.246  0.00  0.00    +0.000 OA
ATOM     10  H   UNL     1      47.537  -0.404   7.003  0.00  0.00    +0.000 HD
ATOM     11  H   UNL     1      46.626  -0.213   8.458  0.00  0.00    +0.000 HD
ENDBRANCH   1   8
BRANCH   4  12
ATOM     12  C   UNL     1      43.675   4.911  10.593  0.00  0.00    +0.000 C 
BRANCH  12  13
ATOM     13  C   UNL     1      44.087   4.972  12.076  0.00  0.00    +0.000 C 
ATOM     14  C   UNL     1      44.755   3.756  12.699  0.00  0.00    +0.000 C 
ATOM     15  C   UNL     1      43.377   4.151  13.152  0.00  0.00    +0.000 C 
BRANCH  13  16
ATOM     16  C   UNL     1      44.509   6.394  12.467  0.00  0.00    +0.000 C 
ATOM     17  C   UNL     1      44.319   7.417  11.345  0.00  0.00    +0.000 C 
ATOM     18  C   UNL     1      45.133   8.635  11.777  0.00  0.00    +0.000 C 
ATOM     19  C   UNL     1      46.101   8.145  12.851  0.00  0.00    +0.000 C 
ATOM     20  C   UNL     1      45.968   6.626  12.858  0.00  0.00    +0.000 C 
ENDBRANCH  13  16
ENDBRANCH  12  13
ENDBRANCH   4  12
TORSDOF 4
ENDMDL
MODEL 3
REMARK VINA RESULT:    -6.327      4.061      6.574
REMARK INTER + INTRA:          -8.001
REMARK INTER:                  -7.435
REMARK INTRA:                  -0.566
REMARK UNBOUND:                -0.194
REMARK  Name = 
REMARK  4 active torsions:
REMARK  status: ('A' for Active; 'I' for Inactive)
REMARK    1  A    between atoms: C_2  and  C_4
REMARK    2  A    between atoms: C_7  and  C_8
REMARK    3  A    between atoms: C_8  and  C_9
REMARK    4  A    between atoms: C_9  and  C_10
REMARK                            x       y       z     vdW  Elec       q    Type
REMARK                         _______ _______ _______ _____ _____    ______ ____
ROOT
ATOM      1  C   UNL     1      48.158   5.781  15.166  0.00  0.00    +0.000 A 
ATOM      2  C   UNL     1      48.021   6.174  13.835  0.00  0.00    +0.000 A 
ATOM      3  C   UNL     1      47.138   5.494  12.998  0.00  0.00    +0.000 A 
ATOM      4  C   UNL     1      46.448   4.394  13.496  0.00  0.00    +0.000 A 
ATOM      5  N   UNL     1      46.573   3.991  14.789  0.00  0.00    +0.000 NA
ATOM      6  C   UNL     1      47.419   4.689  15.590  0.00  0.00    +0.000 A 
ENDROOT
BRANCH   1   8
ATOM      7  N   UNL     1      48.556   7.361  16.977  0.00  0.00    +0.000 N 
ATOM      8  C   UNL     1      49.086   6.518  16.039  0.00  0.00    +0.000 C 
ATOM      9  O   UNL     1      50.301   6.416  15.907  0.00  0.00    +0.000 OA
ATOM     10  H   UNL     1      49.226   7.934  17.479  0.00  0.00    +0.000 HD
ATOM     11  H   UNL     1      47.599   7.678  16.956  0.00  0.00    +0.000 HD
ENDBRANCH   1   8
BRANCH   4  12
ATOM     12  C   UNL     1      45.437   3.663  12.640  0.00  0.00    +0.000 C 
BRANCH  12  13
ATOM     13  C   UNL     1      44.315   4.471  11.962  0.00  0.00    +0.000 C 
ATOM     14  C   UNL     1      43.990   5.858  12.492  0.00  0.00    +0.000 C 
ATOM     15  C   UNL     1      42.983   4.754  12.655  0.00  0.00    +0.000 C 
BRANCH  13  16
ATOM     16  C   UNL     1      44.252   4.163  10.460  0.00  0.00    +0.000 C 
ATOM     17  C   UNL     1      44.417   2.676  10.134  0.00  0.00    +0.000 C 
ATOM     18  C   UNL     1      44.713   2.629   8.637  0.00  0.00    +0.000 C 
ATOM     19  C   UNL     1      45.155   4.035   8.243  0.00  0.00    +0.000 C 
ATOM     20  C   UNL     1      45.306   4.799   9.554  0.00  0.00    +0.000 C 
ENDBRANCH  13  16
ENDBRANCH  12  13
ENDBRANCH   4  12
TORSDOF 4
ENDMDL
MODEL 4
REMARK VINA RESULT:    -6.067      3.134      5.086
REMARK INTER + INTRA:          -7.680
REMARK INTER:                  -6.945
REMARK INTRA:                  -0.734
REMARK UNBOUND:                -0.194
REMARK  Name = 
REMARK  4 active torsions:
REMARK  status: ('A' for Active; 'I' for Inactive)
REMARK    1  A    between atoms: C_2  and  C_4
REMARK    2  A    between atoms: C_7  and  C_8
REMARK    3  A    between atoms: C_8  and  C_9
REMARK    4  A    between atoms: C_9  and  C_10
REMARK                            x       y       z     vdW  Elec       q    Type
REMARK                         _______ _______ _______ _____ _____    ______ ____
ROOT
ATOM      1  C   UNL     1      44.483   4.108  11.480  0.00  0.00    +0.000 A 
ATOM      2  C   UNL     1      44.939   5.048  10.556  0.00  0.00    +0.000 A 
ATOM      3  C   UNL     1      45.457   6.263  11.000  0.00  0.00    +0.000 A 
ATOM      4  C   UNL     1      45.457   6.539  12.364  0.00  0.00    +0.000 A 
ATOM      5  N   UNL     1      45.012   5.638  13.280  0.00  0.00    +0.000 NA
ATOM      6  C   UNL     1      44.539   4.451  12.822  0.00  0.00    +0.000 A 
ENDROOT
BRANCH   1   8
ATOM      7  N   UNL     1      44.587   2.218   9.946  0.00  0.00    +0.000 N 
ATOM      8  C   UNL     1      43.952   2.824  10.995  0.00  0.00    +0.000 C 
ATOM      9  O   UNL     1      42.944   2.327  11.486  0.00  0.00    +0.000 OA
ATOM     10  H   UNL     1      44.124   1.398   9.569  0.00  0.00    +0.000 HD
ATOM     11  H   UNL     1      45.242   2.697   9.347  0.00  0.00    +0.000 HD
ENDBRANCH   1   8
BRANCH   4  12
ATOM     12  C   UNL     1      46.062   7.820  12.893  0.00  0.00    +0.000 C 
BRANCH  12  13
ATOM     13  C   UNL     1      47.588   7.897  13.088  0.00  0.00    +0.000 C 
ATOM     14  C   UNL     1      48.404   6.619  12.981  0.00  0.00    +0.000 C 
ATOM     15  C   UNL     1      48.282   7.304  14.313  0.00  0.00    +0.000 C 
BRANCH  13  16
ATOM     16  C   UNL     1      48.138   9.232  12.570  0.00  0.00    +0.000 C 
ATOM     17  C   UNL     1      47.066  10.136  11.953  0.00  0.00    +0.000 C 
ATOM     18  C   UNL     1      47.842  11.194  11.172  0.00  0.00    +0.000 C 
ATOM     19  C   UNL     1      49.249  10.637  10.976  0.00  0.00    +0.000 C 
ATOM     20  C   UNL     1      49.188   9.192  11.460  0.00  0.00    +0.000 C 
ENDBRANCH  13  16
ENDBRANCH  12  13
ENDBRANCH   4  12
TORSDOF 4
ENDMDL
MODEL 5
REMARK VINA RESULT:    -5.960      3.616      6.076
REMARK INTER + INTRA:          -7.548
REMARK INTER:                  -7.314
REMARK INTRA:                  -0.234
REMARK UNBOUND:                -0.194
REMARK  Name = 
REMARK  4 active torsions:
REMARK  status: ('A' for Active; 'I' for Inactive)
REMARK    1  A    between atoms: C_2  and  C_4
REMARK    2  A    between atoms: C_7  and  C_8
REMARK    3  A    between atoms: C_8  and  C_9
REMARK    4  A    between atoms: C_9  and  C_10
REMARK                            x       y       z     vdW  Elec       q    Type
REMARK                         _______ _______ _______ _____ _____    ______ ____
ROOT
ATOM      1  C   UNL     1      48.518   6.804  13.424  0.00  0.00    +0.000 A 
ATOM      2  C   UNL     1      48.314   7.282  12.130  0.00  0.00    +0.000 A 
ATOM      3  C   UNL     1      47.134   6.975  11.454  0.00  0.00    +0.000 A 
ATOM      4  C   UNL     1      46.201   6.146  12.068  0.00  0.00    +0.000 A 
ATOM      5  N   UNL     1      46.385   5.664  13.327  0.00  0.00    +0.000 NA
ATOM      6  C   UNL     1      47.531   6.002  13.973  0.00  0.00    +0.000 A 
ENDROOT
BRANCH   1   8
ATOM      7  N   UNL     1      50.744   7.795  13.426  0.00  0.00    +0.000 N 
ATOM      8  C   UNL     1      49.764   7.149  14.127  0.00  0.00    +0.000 C 
ATOM      9  O   UNL     1      49.942   6.830  15.299  0.00  0.00    +0.000 OA
ATOM     10  H   UNL     1      51.626   7.912  13.912  0.00  0.00    +0.000 HD
ATOM     11  H   UNL     1      50.760   7.845  12.418  0.00  0.00    +0.000 HD
ENDBRANCH   1   8
BRANCH   4  12
ATOM     12  C   UNL     1      44.884   5.834  11.395  0.00  0.00    +0.000 C 
BRANCH  12  13
ATOM     13  C   UNL     1      44.477   4.361  11.201  0.00  0.00    +0.000 C 
ATOM     14  C   UNL     1      43.025   3.969  11.420  0.00  0.00    +0.000 C 
ATOM     15  C   UNL     1      44.075   3.467  12.372  0.00  0.00    +0.000 C 
BRANCH  13  16
ATOM     16  C   UNL     1      45.315   3.705  10.096  0.00  0.00    +0.000 C 
ATOM     17  C   UNL     1      45.489   4.587   8.857  0.00  0.00    +0.000 C 
ATOM     18  C   UNL     1      45.989   3.644   7.765  0.00  0.00    +0.000 C 
ATOM     19  C   UNL     1      45.663   2.230   8.238  0.00  0.00    +0.000 C 
ATOM     20  C   UNL     1      44.798   2.404   9.481  0.00  0.00    +0.000 C 
ENDBRANCH  13  16
ENDBRANCH  12  13
ENDBRANCH   4  12
TORSDOF 4
ENDMDL
MODEL 6
REMARK VINA RESULT:    -5.779      3.625      6.219
REMARK INTER + INTRA:          -7.325
REMARK INTER:                  -7.479
REMARK INTRA:                   0.155
REMARK UNBOUND:                -0.194
REMARK  Name = 
REMARK  4 active torsions:
REMARK  status: ('A' for Active; 'I' for Inactive)
REMARK    1  A    between atoms: C_2  and  C_4
REMARK    2  A    between atoms: C_7  and  C_8
REMARK    3  A    between atoms: C_8  and  C_9
REMARK    4  A    between atoms: C_9  and  C_10
REMARK                            x       y       z     vdW  Elec       q    Type
REMARK                         _______ _______ _______ _____ _____    ______ ____
ROOT
ATOM      1  C   UNL     1      46.174   8.681  12.071  0.00  0.00    +0.000 A 
ATOM      2  C   UNL     1      47.279   7.831  12.036  0.00  0.00    +0.000 A 
ATOM      3  C   UNL     1      47.091   6.451  11.964  0.00  0.00    +0.000 A 
ATOM      4  C   UNL     1      45.795   5.945  11.984  0.00  0.00    +0.000 A 
ATOM      5  N   UNL     1      44.706   6.757  12.024  0.00  0.00    +0.000 NA
ATOM      6  C   UNL     1      44.917   8.098  12.065  0.00  0.00    +0.000 A 
ENDROOT
BRANCH   1   8
ATOM      7  N   UNL     1      45.293  10.950  12.186  0.00  0.00    +0.000 N 
ATOM      8  C   UNL     1      46.391  10.136  12.133  0.00  0.00    +0.000 C 
ATOM      9  O   UNL     1      47.520  10.613  12.097  0.00  0.00    +0.000 OA
ATOM     10  H   UNL     1      45.481  11.944  12.112  0.00  0.00    +0.000 HD
ATOM     11  H   UNL     1      44.362  10.636  11.957  0.00  0.00    +0.000 HD
ENDBRANCH   1   8
BRANCH   4  12
ATOM     12  C   UNL     1      45.545   4.460  11.850  0.00  0.00    +0.000 C 
BRANCH  12  13
ATOM     13  C   UNL     1      44.294   3.982  11.088  0.00  0.00    +0.000 C 
ATOM     14  C   UNL     1      42.938   4.544  11.485  0.00  0.00    +0.000 C 
ATOM     15  C   UNL     1      43.235   3.093  11.738  0.00  0.00    +0.000 C 
BRANCH  13  16
ATOM     16  C   UNL     1      44.628   3.687   9.620  0.00  0.00    +0.000 C 
ATOM     17  C   UNL     1      45.274   2.315   9.406  0.00  0.00    +0.000 C 
ATOM     18  C   UNL     1      45.869   2.373   8.001  0.00  0.00    +0.000 C 
ATOM     19  C   UNL     1      45.960   3.851   7.634  0.00  0.00    +0.000 C 
ATOM     20  C   UNL     1      45.617   4.611   8.911  0.00  0.00    +0.000 C 
ENDBRANCH  13  16
ENDBRANCH  12  13
ENDBRANCH   4  12
TORSDOF 4
ENDMDL
MODEL 7
REMARK VINA RESULT:    -5.714      3.923      5.880
REMARK INTER + INTRA:          -7.244
REMARK INTER:                  -6.201
REMARK INTRA:                  -1.044
REMARK UNBOUND:                -0.194
REMARK  Name = 
REMARK  4 active torsions:
REMARK  status: ('A' for Active; 'I' for Inactive)
REMARK    1  A    between atoms: C_2  and  C_4
REMARK    2  A    between atoms: C_7  and  C_8
REMARK    3  A    between atoms: C_8  and  C_9
REMARK    4  A    between atoms: C_9  and  C_10
REMARK                            x       y       z     vdW  Elec       q    Type
REMARK                         _______ _______ _______ _____ _____    ______ ____
ROOT
ATOM      1  C   UNL     1      44.882   4.884  12.582  0.00  0.00    +0.000 A 
ATOM      2  C   UNL     1      45.865   5.024  13.561  0.00  0.00    +0.000 A 
ATOM      3  C   UNL     1      46.967   5.844  13.326  0.00  0.00    +0.000 A 
ATOM      4  C   UNL     1      47.093   6.467  12.088  0.00  0.00    +0.000 A 
ATOM      5  N   UNL     1      46.148   6.338  11.119  0.00  0.00    +0.000 NA
ATOM      6  C   UNL     1      45.070   5.556  11.385  0.00  0.00    +0.000 A 
ENDROOT
BRANCH   1   8
ATOM      7  N   UNL     1      43.820   2.691  12.565  0.00  0.00    +0.000 N 
ATOM      8  C   UNL     1      43.718   4.024  12.852  0.00  0.00    +0.000 C 
ATOM      9  O   UNL     1      42.669   4.491  13.284  0.00  0.00    +0.000 OA
ATOM     10  H   UNL     1      42.962   2.156  12.656  0.00  0.00    +0.000 HD
ATOM     11  H   UNL     1      44.544   2.307  11.977  0.00  0.00    +0.000 HD
ENDBRANCH   1   8
BRANCH   4  12
ATOM     12  C   UNL     1      48.241   7.410  11.811  0.00  0.00    +0.000 C 
BRANCH  12  13
ATOM     13  C   UNL     1      48.213   8.820  12.432  0.00  0.00    +0.000 C 
ATOM     14  C   UNL     1      46.946   9.650  12.300  0.00  0.00    +0.000 C 
ATOM     15  C   UNL     1      48.189  10.085  11.575  0.00  0.00    +0.000 C 
BRANCH  13  16
ATOM     16  C   UNL     1      49.064   8.873  13.707  0.00  0.00    +0.000 C 
ATOM     17  C   UNL     1      50.098   7.748  13.797  0.00  0.00    +0.000 C 
ATOM     18  C   UNL     1      50.550   7.741  15.255  0.00  0.00    +0.000 C 
ATOM     19  C   UNL     1      49.486   8.506  16.038  0.00  0.00    +0.000 C 
ATOM     20  C   UNL     1      48.349   8.747  15.051  0.00  0.00    +0.000 C 
ENDBRANCH  13  16
ENDBRANCH  12  13
ENDBRANCH   4  12
TORSDOF 4
ENDMDL
MODEL 8
REMARK VINA RESULT:    -5.552      3.497      5.278
REMARK INTER + INTRA:          -7.045
REMARK INTER:                  -6.192
REMARK INTRA:                  -0.852
REMARK UNBOUND:                -0.194
REMARK  Name = 
REMARK  4 active torsions:
REMARK  status: ('A' for Active; 'I' for Inactive)
REMARK    1  A    between atoms: C_2  and  C_4
REMARK    2  A    between atoms: C_7  and  C_8
REMARK    3  A    between atoms: C_8  and  C_9
REMARK    4  A    between atoms: C_9  and  C_10
REMARK                            x       y       z     vdW  Elec       q    Type
REMARK                         _______ _______ _______ _____ _____    ______ ____
ROOT
ATOM      1  C   UNL     1      44.981   4.288  11.716  0.00  0.00    +0.000 A 
ATOM      2  C   UNL     1      45.087   5.161  10.634  0.00  0.00    +0.000 A 
ATOM      3  C   UNL     1      46.039   6.179  10.655  0.00  0.00    +0.000 A 
ATOM      4  C   UNL     1      46.833   6.338  11.786  0.00  0.00    +0.000 A 
ATOM      5  N   UNL     1      46.741   5.500  12.853  0.00  0.00    +0.000 NA
ATOM      6  C   UNL     1      45.824   4.500  12.795  0.00  0.00    +0.000 A 
ENDROOT
BRANCH   1   8
ATOM      7  N   UNL     1      43.719   2.524  12.826  0.00  0.00    +0.000 N 
ATOM      8  C   UNL     1      43.979   3.211  11.673  0.00  0.00    +0.000 C 
ATOM      9  O   UNL     1      43.418   2.905  10.625  0.00  0.00    +0.000 OA
ATOM     10  H   UNL     1      43.110   1.718  12.729  0.00  0.00    +0.000 HD
ATOM     11  H   UNL     1      44.323   2.552  13.634  0.00  0.00    +0.000 HD
ENDBRANCH   1   8
BRANCH   4  12
ATOM     12  C   UNL     1      47.917   7.391  11.827  0.00  0.00    +0.000 C 
BRANCH  12  13
ATOM     13  C   UNL     1      47.688   8.662  12.667  0.00  0.00    +0.000 C 
ATOM     14  C   UNL     1      46.266   9.164  12.859  0.00  0.00    +0.000 C 
ATOM     15  C   UNL     1      47.230   9.979  12.042  0.00  0.00    +0.000 C 
BRANCH  13  16
ATOM     16  C   UNL     1      48.722   8.764  13.796  0.00  0.00    +0.000 C 
ATOM     17  C   UNL     1      49.830   7.711  13.706  0.00  0.00    +0.000 C 
ATOM     18  C   UNL     1      50.502   7.725  15.077  0.00  0.00    +0.000 C 
ATOM     19  C   UNL     1      49.524   8.409  16.027  0.00  0.00    +0.000 C 
ATOM     20  C   UNL     1      48.234   8.580  15.232  0.00  0.00    +0.000 C 
ENDBRANCH  13  16
ENDBRANCH  12  13
ENDBRANCH   4  12
TORSDOF 4
ENDMDL
