MODEL 1
REMARK VINA RESULT:    -7.528      0.000      0.000
REMARK INTER + INTRA:         -11.855
REMARK INTER:                 -10.609
REMARK INTRA:                  -1.245
REMARK UNBOUND:                -1.245
REMARK  Name = 
REMARK  7 active torsions:
REMARK  status: ('A' for Active; 'I' for Inactive)
REMARK    1  A    between atoms: C_2  and  C_3
REMARK    2  A    between atoms: C_6  and  C_7
REMARK    3  A    between atoms: N_9  and  C_10
REMARK    4  A    between atoms: C_10  and  C_11
REMARK    5  A    between atoms: C_14  and  C_15
REMARK    6  A    between atoms: C_15  and  N_16
REMARK    7  A    between atoms: C_17  and  C_19
REMARK                            x       y       z     vdW  Elec       q    Type
REMARK                         _______ _______ _______ _____ _____    ______ ____
ROOT
ATOM      1  C   UNL     1      47.877   8.005  13.804  0.00  0.00    +0.000 A 
ATOM      2  C   UNL     1      46.934   8.865  13.226  0.00  0.00    +0.000 A 
ATOM      3  C   UNL     1      45.996   8.383  12.306  0.00  0.00    +0.000 A 
ATOM      4  C   UNL     1      45.969   7.025  11.948  0.00  0.00    +0.000 A 
ATOM      5  C   UNL     1      46.912   6.169  12.538  0.00  0.00    +0.000 A 
ATOM      6  C   UNL     1      47.846   6.649  13.464  0.00  0.00    +0.000 A 
ENDROOT
BRANCH   1   7
ATOM      7  C   UNL     1      48.893   8.537  14.774  0.00  0.00    +0.000 C 
BRANCH   7  10
ATOM      8  C   UNL     1      50.012   7.069  16.364  0.00  0.00    +0.000 C 
ATOM      9  O   UNL     1      51.017   7.020  15.661  0.00  0.00    +0.000 OA
ATOM     10  N   UNL     1      48.900   7.790  16.010  0.00  0.00    +0.000 N 
ATOM     11  H   UNL     1      48.040   7.717  16.540  0.00  0.00    +0.000 HD
BRANCH   8  15
ATOM     12  C   UNL     1      48.590   4.422  17.046  0.00  0.00    +0.000 C 
ATOM     13  C   UNL     1      50.008   3.903  17.300  0.00  0.00    +0.000 C 
ATOM     14  C   UNL     1      50.838   5.111  17.746  0.00  0.00    +0.000 C 
ATOM     15  C   UNL     1      49.900   6.321  17.691  0.00  0.00    +0.000 C 
ATOM     16  C   UNL     1      48.512   5.701  17.875  0.00  0.00    +0.000 C 
BRANCH  12  18
ATOM     17  N   UNL     1      46.673   2.552  17.800  0.00  0.00    +0.000 NA
ATOM     18  C   UNL     1      47.543   3.400  17.458  0.00  0.00    +0.000 C 
ENDBRANCH  12  18
ENDBRANCH   8  15
ENDBRANCH   7  10
ENDBRANCH   1   7
BRANCH   4  19
ATOM     19  C   UNL     1      44.946   6.462  10.987  0.00  0.00    +0.000 C 
BRANCH  19  20
ATOM     20  N   UNL     1      45.332   5.217  10.377  0.00  0.00    +0.000 N 
ATOM     21  C   UNL     1      44.412   4.293   9.954  0.00  0.00    +0.000 C 
ATOM     22  O   UNL     1      43.199   4.433  10.135  0.00  0.00    +0.000 OA
ATOM     23  H   UNL     1      46.321   4.980  10.359  0.00  0.00    +0.000 HD
BRANCH  21  24
ATOM     24  C   UNL     1      44.968   3.116   9.286  0.00  0.00    +0.000 A 
ATOM     25  C   UNL     1      44.518   1.816   9.514  0.00  0.00    +0.000 A 
ATOM     26  N   UNL     1      45.217   0.949   8.713  0.00  0.00    +0.000 N 
ATOM     27  C   UNL     1      46.131   1.652   7.987  0.00  0.00    +0.000 A 
ATOM     28  N   UNL     1      46.998   1.076   7.126  0.00  0.00    +0.000 NA
ATOM     29  C   UNL     1      47.811   1.933   6.577  0.00  0.00    +0.000 A 
ATOM     30  N   UNL     1      47.803   3.290   6.809  0.00  0.00    +0.000 N 
ATOM     31  C   UNL     1      46.882   3.908   7.628  0.00  0.00    +0.000 A 
ATOM     32  O   UNL     1      46.851   5.132   7.770  0.00  0.00    +0.000 OA
ATOM     33  C   UNL     1      46.001   2.988   8.304  0.00  0.00    +0.000 A 
ATOM     34  H   UNL     1      45.098  -0.053   8.667  0.00  0.00    +0.000 HD
ATOM     35  H   UNL     1      48.457   3.897   6.339  0.00  0.00    +0.000 HD
ENDBRANCH  21  24
ENDBRANCH  19  20
ENDBRANCH   4  19
TORSDOF 7
ENDMDL
MODEL 2
REMARK VINA RESULT:    -7.198      3.449      9.136
REMARK INTER + INTRA:         -11.389
REMARK INTER:                 -10.061
REMARK INTRA:                  -1.328
REMARK UNBOUND:                -1.245
REMARK  Name = 
REMARK  7 active torsions:
REMARK  status: ('A' for Active; 'I' for Inactive)
REMARK    1  A    between atoms: C_2  and  C_3
REMARK    2  A    between atoms: C_6  and  C_7
REMARK    3  A    between atoms: N_9  and  C_10
REMARK    4  A    between atoms: C_10  and  C_11
REMARK    5  A    between atoms: C_14  and  C_15
REMARK    6  A    between atoms: C_15  and  N_16
REMARK    7  A    between atoms: C_17  and  C_19
REMARK                            x       y       z     vdW  Elec       q    Type
REMARK                         _______ _______ _______ _____ _____    ______ ____
ROOT
ATOM      1  C   UNL     1      47.817   6.093  14.440  0.00  0.00    +0.000 A 
ATOM      2  C   UNL     1      48.629   6.379  15.545  0.00  0.00    +0.000 A 
ATOM      3  C   UNL     1      48.709   5.491  16.623  0.00  0.00    +0.000 A 
ATOM      4  C   UNL     1      47.987   4.286  16.619  0.00  0.00    +0.000 A 
ATOM      5  C   UNL     1      47.182   4.003  15.505  0.00  0.00    +0.000 A 
ATOM      6  C   UNL     1      47.107   4.888  14.423  0.00  0.00    +0.000 A 
ENDROOT
BRANCH   1   7
ATOM      7  C   UNL     1      47.722   7.064  13.298  0.00  0.00    +0.000 C 
BRANCH   7  10
ATOM      8  C   UNL     1      45.577   7.118  12.144  0.00  0.00    +0.000 C 
ATOM      9  O   UNL     1      45.154   7.985  12.902  0.00  0.00    +0.000 OA
ATOM     10  N   UNL     1      46.838   6.589  12.259  0.00  0.00    +0.000 N 
ATOM     11  H   UNL     1      47.121   5.790  11.706  0.00  0.00    +0.000 HD
BRANCH   8  15
ATOM     12  C   UNL     1      43.880   4.548  12.037  0.00  0.00    +0.000 C 
ATOM     13  C   UNL     1      42.699   5.517  11.918  0.00  0.00    +0.000 C 
ATOM     14  C   UNL     1      43.239   6.774  11.229  0.00  0.00    +0.000 C 
ATOM     15  C   UNL     1      44.735   6.537  11.010  0.00  0.00    +0.000 C 
ATOM     16  C   UNL     1      44.846   5.010  10.950  0.00  0.00    +0.000 C 
BRANCH  12  18
ATOM     17  N   UNL     1      43.071   1.911  11.685  0.00  0.00    +0.000 NA
ATOM     18  C   UNL     1      43.438   3.107  11.845  0.00  0.00    +0.000 C 
ENDBRANCH  12  18
ENDBRANCH   8  15
ENDBRANCH   7  10
ENDBRANCH   1   7
BRANCH   4  19
ATOM     19  C   UNL     1      48.079   3.284  17.749  0.00  0.00    +0.000 C 
BRANCH  19  20
ATOM     20  N   UNL     1      49.424   2.896  18.086  0.00  0.00    +0.000 N 
ATOM     21  C   UNL     1      50.214   2.175  17.229  0.00  0.00    +0.000 C 
ATOM     22  O   UNL     1      49.802   1.747  16.148  0.00  0.00    +0.000 OA
ATOM     23  H   UNL     1      49.751   3.078  19.032  0.00  0.00    +0.000 HD
BRANCH  21  24
ATOM     24  C   UNL     1      51.580   1.930  17.693  0.00  0.00    +0.000 A 
ATOM     25  C   UNL     1      52.150   0.660  17.774  0.00  0.00    +0.000 A 
ATOM     26  N   UNL     1      53.445   0.774  18.211  0.00  0.00    +0.000 N 
ATOM     27  C   UNL     1      53.725   2.088  18.441  0.00  0.00    +0.000 A 
ATOM     28  N   UNL     1      54.913   2.523  18.912  0.00  0.00    +0.000 NA
ATOM     29  C   UNL     1      54.941   3.812  19.100  0.00  0.00    +0.000 A 
ATOM     30  N   UNL     1      53.898   4.671  18.839  0.00  0.00    +0.000 N 
ATOM     31  C   UNL     1      52.701   4.259  18.292  0.00  0.00    +0.000 A 
ATOM     32  O   UNL     1      51.805   5.054  18.004  0.00  0.00    +0.000 OA
ATOM     33  C   UNL     1      52.606   2.830  18.124  0.00  0.00    +0.000 A 
ATOM     34  H   UNL     1      54.098   0.016  18.359  0.00  0.00    +0.000 HD
ATOM     35  H   UNL     1      53.994   5.663  18.999  0.00  0.00    +0.000 HD
ENDBRANCH  21  24
ENDBRANCH  19  20
ENDBRANCH   4  19
TORSDOF 7
ENDMDL
MODEL 3
REMARK VINA RESULT:    -7.059      1.882      2.799
REMARK INTER + INTRA:         -11.193
REMARK INTER:                  -9.852
REMARK INTRA:                  -1.341
REMARK UNBOUND:                -1.245
REMARK  Name = 
REMARK  7 active torsions:
REMARK  status: ('A' for Active; 'I' for Inactive)
REMARK    1  A    between atoms: C_2  and  C_3
REMARK    2  A    between atoms: C_6  and  C_7
REMARK    3  A    between atoms: N_9  and  C_10
REMARK    4  A    between atoms: C_10  and  C_11
REMARK    5  A    between atoms: C_14  and  C_15
REMARK    6  A    between atoms: C_15  and  N_16
REMARK    7  A    between atoms: C_17  and  C_19
REMARK                            x       y       z     vdW  Elec       q    Type
REMARK                         _______ _______ _______ _____ _____    ______ ____
ROOT
ATOM      1  C   UNL     1      50.353   7.547  15.105  0.00  0.00    +0.000 A 
ATOM      2  C   UNL     1      50.704   8.143  13.887  0.00  0.00    +0.000 A 
ATOM      3  C   UNL     1      49.801   8.171  12.818  0.00  0.00    +0.000 A 
ATOM      4  C   UNL     1      48.517   7.615  12.944  0.00  0.00    +0.000 A 
ATOM      5  C   UNL     1      48.171   7.027  14.170  0.00  0.00    +0.000 A 
ATOM      6  C   UNL     1      49.071   7.004  15.242  0.00  0.00    +0.000 A 
ENDROOT
BRANCH   1   7
ATOM      7  C   UNL     1      51.336   7.502  16.239  0.00  0.00    +0.000 C 
BRANCH   7  10
ATOM      8  C   UNL     1      51.840   5.404  17.369  0.00  0.00    +0.000 C 
ATOM      9  O   UNL     1      52.872   5.264  16.720  0.00  0.00    +0.000 OA
ATOM     10  N   UNL     1      51.004   6.479  17.202  0.00  0.00    +0.000 N 
ATOM     11  H   UNL     1      50.099   6.512  17.655  0.00  0.00    +0.000 HD
BRANCH   8  15
ATOM     12  C   UNL     1      49.378   3.551  17.404  0.00  0.00    +0.000 C 
ATOM     13  C   UNL     1      50.414   2.427  17.307  0.00  0.00    +0.000 C 
ATOM     14  C   UNL     1      51.685   2.950  17.984  0.00  0.00    +0.000 C 
ATOM     15  C   UNL     1      51.383   4.388  18.414  0.00  0.00    +0.000 C 
ATOM     16  C   UNL     1      49.861   4.395  18.581  0.00  0.00    +0.000 C 
BRANCH  12  18
ATOM     17  N   UNL     1      46.818   2.543  17.805  0.00  0.00    +0.000 NA
ATOM     18  C   UNL     1      47.979   3.000  17.623  0.00  0.00    +0.000 C 
ENDBRANCH  12  18
ENDBRANCH   8  15
ENDBRANCH   7  10
ENDBRANCH   1   7
BRANCH   4  19
ATOM     19  C   UNL     1      47.502   7.662  11.823  0.00  0.00    +0.000 C 
BRANCH  19  20
ATOM     20  N   UNL     1      46.832   6.411  11.581  0.00  0.00    +0.000 N 
ATOM     21  C   UNL     1      45.534   6.192  11.959  0.00  0.00    +0.000 C 
ATOM     22  O   UNL     1      44.878   7.021  12.596  0.00  0.00    +0.000 OA
ATOM     23  H   UNL     1      47.382   5.639  11.212  0.00  0.00    +0.000 HD
BRANCH  21  24
ATOM     24  C   UNL     1      44.978   4.894  11.570  0.00  0.00    +0.000 A 
ATOM     25  C   UNL     1      44.272   4.067  12.441  0.00  0.00    +0.000 A 
ATOM     26  N   UNL     1      43.860   2.946  11.765  0.00  0.00    +0.000 N 
ATOM     27  C   UNL     1      44.305   3.013  10.478  0.00  0.00    +0.000 A 
ATOM     28  N   UNL     1      44.091   2.041   9.566  0.00  0.00    +0.000 NA
ATOM     29  C   UNL     1      44.646   2.295   8.416  0.00  0.00    +0.000 A 
ATOM     30  N   UNL     1      45.364   3.431   8.119  0.00  0.00    +0.000 N 
ATOM     31  C   UNL     1      45.536   4.468   9.011  0.00  0.00    +0.000 A 
ATOM     32  O   UNL     1      46.126   5.505   8.704  0.00  0.00    +0.000 OA
ATOM     33  C   UNL     1      44.988   4.201  10.318  0.00  0.00    +0.000 A 
ATOM     34  H   UNL     1      43.326   2.178  12.145  0.00  0.00    +0.000 HD
ATOM     35  H   UNL     1      45.759   3.567   7.200  0.00  0.00    +0.000 HD
ENDBRANCH  21  24
ENDBRANCH  19  20
ENDBRANCH   4  19
TORSDOF 7
ENDMDL
MODEL 4
REMARK VINA RESULT:    -6.765      3.738      5.420
REMARK INTER + INTRA:         -10.779
REMARK INTER:                  -9.712
REMARK INTRA:                  -1.067
REMARK UNBOUND:                -1.245
REMARK  Name = 
REMARK  7 active torsions:
REMARK  status: ('A' for Active; 'I' for Inactive)
REMARK    1  A    between atoms: C_2  and  C_3
REMARK    2  A    between atoms: C_6  and  C_7
REMARK    3  A    between atoms: N_9  and  C_10
REMARK    4  A    between atoms: C_10  and  C_11
REMARK    5  A    between atoms: C_14  and  C_15
REMARK    6  A    between atoms: C_15  and  N_16
REMARK    7  A    between atoms: C_17  and  C_19
REMARK                            x       y       z     vdW  Elec       q    Type
REMARK                         _______ _______ _______ _____ _____    ______ ____
ROOT
ATOM      1  C   UNL     1      48.446   9.103  12.169  0.00  0.00    +0.000 A 
ATOM      2  C   UNL     1      47.238   9.710  12.539  0.00  0.00    +0.000 A 
ATOM      3  C   UNL     1      46.070   8.952  12.680  0.00  0.00    +0.000 A 
ATOM      4  C   UNL     1      46.082   7.564  12.467  0.00  0.00    +0.000 A 
ATOM      5  C   UNL     1      47.297   6.963  12.104  0.00  0.00    +0.000 A 
ATOM      6  C   UNL     1      48.467   7.719  11.970  0.00  0.00    +0.000 A 
ENDROOT
BRANCH   1   7
ATOM      7  C   UNL     1      49.689   9.929  12.000  0.00  0.00    +0.000 C 
BRANCH   7  10
ATOM      8  C   UNL     1      51.787   9.517  10.835  0.00  0.00    +0.000 C 
ATOM      9  O   UNL     1      51.678  10.560  10.198  0.00  0.00    +0.000 OA
ATOM     10  N   UNL     1      50.851   9.110  11.751  0.00  0.00    +0.000 N 
ATOM     11  H   UNL     1      50.897   8.189  12.171  0.00  0.00    +0.000 HD
BRANCH   8  15
ATOM     12  C   UNL     1      52.524   7.671   8.480  0.00  0.00    +0.000 C 
ATOM     13  C   UNL     1      53.728   8.604   8.325  0.00  0.00    +0.000 C 
ATOM     14  C   UNL     1      54.036   9.150   9.723  0.00  0.00    +0.000 C 
ATOM     15  C   UNL     1      52.971   8.568  10.656  0.00  0.00    +0.000 C 
ATOM     16  C   UNL     1      52.554   7.272   9.953  0.00  0.00    +0.000 C 
BRANCH  12  18
ATOM     17  N   UNL     1      52.714   5.474   6.784  0.00  0.00    +0.000 NA
ATOM     18  C   UNL     1      52.628   6.471   7.554  0.00  0.00    +0.000 C 
ENDBRANCH  12  18
ENDBRANCH   8  15
ENDBRANCH   7  10
ENDBRANCH   1   7
BRANCH   4  19
ATOM     19  C   UNL     1      44.848   6.708  12.647  0.00  0.00    +0.000 C 
BRANCH  19  20
ATOM     20  N   UNL     1      44.916   5.429  11.989  0.00  0.00    +0.000 N 
ATOM     21  C   UNL     1      44.073   5.090  10.963  0.00  0.00    +0.000 C 
ATOM     22  O   UNL     1      43.156   5.824  10.586  0.00  0.00    +0.000 OA
ATOM     23  H   UNL     1      45.541   4.726  12.374  0.00  0.00    +0.000 HD
BRANCH  21  24
ATOM     24  C   UNL     1      44.325   3.784  10.352  0.00  0.00    +0.000 A 
ATOM     25  C   UNL     1      43.721   2.603  10.782  0.00  0.00    +0.000 A 
ATOM     26  N   UNL     1      44.139   1.567   9.987  0.00  0.00    +0.000 N 
ATOM     27  C   UNL     1      45.021   2.041   9.063  0.00  0.00    +0.000 A 
ATOM     28  N   UNL     1      45.638   1.257   8.153  0.00  0.00    +0.000 NA
ATOM     29  C   UNL     1      46.475   1.915   7.402  0.00  0.00    +0.000 A 
ATOM     30  N   UNL     1      46.715   3.268   7.485  0.00  0.00    +0.000 N 
ATOM     31  C   UNL     1      46.046   4.099   8.357  0.00  0.00    +0.000 A 
ATOM     32  O   UNL     1      46.228   5.318   8.370  0.00  0.00    +0.000 OA
ATOM     33  C   UNL     1      45.153   3.402   9.249  0.00  0.00    +0.000 A 
ATOM     34  H   UNL     1      43.860   0.599  10.066  0.00  0.00    +0.000 HD
ATOM     35  H   UNL     1      47.371   3.714   6.862  0.00  0.00    +0.000 HD
ENDBRANCH  21  24
ENDBRANCH  19  20
ENDBRANCH   4  19
TORSDOF 7
ENDMDL
MODEL 5
REMARK VINA RESULT:    -6.513      2.465      3.851
REMARK INTER + INTRA:         -10.423
REMARK INTER:                  -9.337
REMARK INTRA:                  -1.087
REMARK UNBOUND:                -1.245
REMARK  Name = 
REMARK  7 active torsions:
REMARK  status: ('A' for Active; 'I' for Inactive)
REMARK    1  A    between atoms: C_2  and  C_3
REMARK    2  A    between atoms: C_6  and  C_7
REMARK    3  A    between atoms: N_9  and  C_10
REMARK    4  A    between atoms: C_10  and  C_11
REMARK    5  A    between atoms: C_14  and  C_15
REMARK    6  A    between atoms: C_15  and  N_16
REMARK    7  A    between atoms: C_17  and  C_19
REMARK                            x       y       z     vdW  Elec       q    Type
REMARK                         _______ _______ _______ _____ _____    ______ ____
ROOT
ATOM      1  C   UNL     1      50.155   7.605  15.327  0.00  0.00    +0.000 A 
ATOM      2  C   UNL     1      48.959   6.875  15.347  0.00  0.00    +0.000 A 
ATOM      3  C   UNL     1      47.863   7.277  14.575  0.00  0.00    +0.000 A 
ATOM      4  C   UNL     1      47.939   8.412  13.752  0.00  0.00    +0.000 A 
ATOM      5  C   UNL     1      49.143   9.132  13.731  0.00  0.00    +0.000 A 
ATOM      6  C   UNL     1      50.242   8.727  14.498  0.00  0.00    +0.000 A 
ENDROOT
BRANCH   1   7
ATOM      7  C   UNL     1      51.318   7.177  16.176  0.00  0.00    +0.000 C 
BRANCH   7  10
ATOM      8  C   UNL     1      51.876   5.130  17.372  0.00  0.00    +0.000 C 
ATOM      9  O   UNL     1      53.001   5.112  16.883  0.00  0.00    +0.000 OA
ATOM     10  N   UNL     1      50.961   6.111  17.081  0.00  0.00    +0.000 N 
ATOM     11  H   UNL     1      50.001   6.039  17.396  0.00  0.00    +0.000 HD
BRANCH   8  15
ATOM     12  C   UNL     1      49.308   3.428  17.323  0.00  0.00    +0.000 C 
ATOM     13  C   UNL     1      50.271   2.258  17.101  0.00  0.00    +0.000 C 
ATOM     14  C   UNL     1      51.588   2.646  17.782  0.00  0.00    +0.000 C 
ATOM     15  C   UNL     1      51.384   4.056  18.341  0.00  0.00    +0.000 C 
ATOM     16  C   UNL     1      49.869   4.138  18.552  0.00  0.00    +0.000 C 
BRANCH  12  18
ATOM     17  N   UNL     1      46.702   2.538  17.712  0.00  0.00    +0.000 NA
ATOM     18  C   UNL     1      47.884   2.942  17.536  0.00  0.00    +0.000 C 
ENDBRANCH  12  18
ENDBRANCH   8  15
ENDBRANCH   7  10
ENDBRANCH   1   7
BRANCH   4  19
ATOM     19  C   UNL     1      46.788   8.853  12.874  0.00  0.00    +0.000 C 
BRANCH  19  20
ATOM     20  N   UNL     1      46.098   7.773  12.218  0.00  0.00    +0.000 N 
ATOM     21  C   UNL     1      46.721   6.946  11.321  0.00  0.00    +0.000 C 
ATOM     22  O   UNL     1      47.888   7.117  10.959  0.00  0.00    +0.000 OA
ATOM     23  H   UNL     1      45.093   7.696  12.353  0.00  0.00    +0.000 HD
BRANCH  21  24
ATOM     24  C   UNL     1      45.899   5.851  10.803  0.00  0.00    +0.000 A 
ATOM     25  C   UNL     1      45.741   5.584   9.444  0.00  0.00    +0.000 A 
ATOM     26  N   UNL     1      44.941   4.480   9.292  0.00  0.00    +0.000 N 
ATOM     27  C   UNL     1      44.553   4.037  10.521  0.00  0.00    +0.000 A 
ATOM     28  N   UNL     1      43.730   2.982  10.706  0.00  0.00    +0.000 NA
ATOM     29  C   UNL     1      43.457   2.767  11.961  0.00  0.00    +0.000 A 
ATOM     30  N   UNL     1      43.952   3.503  13.014  0.00  0.00    +0.000 N 
ATOM     31  C   UNL     1      44.847   4.539  12.855  0.00  0.00    +0.000 A 
ATOM     32  O   UNL     1      45.329   5.142  13.816  0.00  0.00    +0.000 OA
ATOM     33  C   UNL     1      45.131   4.849  11.475  0.00  0.00    +0.000 A 
ATOM     34  H   UNL     1      44.661   4.056   8.418  0.00  0.00    +0.000 HD
ATOM     35  H   UNL     1      43.705   3.273  13.965  0.00  0.00    +0.000 HD
ENDBRANCH  21  24
ENDBRANCH  19  20
ENDBRANCH   4  19
TORSDOF 7
ENDMDL
MODEL 6
REMARK VINA RESULT:    -6.349      5.107      7.602
REMARK INTER + INTRA:         -10.193
REMARK INTER:                  -9.038
REMARK INTRA:                  -1.155
REMARK UNBOUND:                -1.245
REMARK  Name = 
REMARK  7 active torsions:
REMARK  status: ('A' for Active; 'I' for Inactive)
REMARK    1  A    between atoms: C_2  and  C_3
REMARK    2  A    between atoms: C_6  and  C_7
REMARK    3  A    between atoms: N_9  and  C_10
REMARK    4  A    between atoms: C_10  and  C_11
REMARK    5  A    between atoms: C_14  and  C_15
REMARK    6  A    between atoms: C_15  and  N_16
REMARK    7  A    between atoms: C_17  and  C_19
REMARK                            x       y       z     vdW  Elec       q    Type
REMARK                         _______ _______ _______ _____ _____    ______ ____
ROOT
ATOM      1  C   UNL     1      50.828   9.741  11.153  0.00  0.00    +0.000 A 
ATOM      2  C   UNL     1      50.014  10.236  12.181  0.00  0.00    +0.000 A 
ATOM      3  C   UNL     1      49.270   9.365  12.985  0.00  0.00    +0.000 A 
ATOM      4  C   UNL     1      49.329   7.975  12.790  0.00  0.00    +0.000 A 
ATOM      5  C   UNL     1      50.153   7.488  11.763  0.00  0.00    +0.000 A 
ATOM      6  C   UNL     1      50.903   8.358  10.964  0.00  0.00    +0.000 A 
ENDROOT
BRANCH   1   7
ATOM      7  C   UNL     1      51.606  10.686  10.282  0.00  0.00    +0.000 C 
BRANCH   7  10
ATOM      8  C   UNL     1      52.886  10.332   8.240  0.00  0.00    +0.000 C 
ATOM      9  O   UNL     1      52.230  11.180   7.643  0.00  0.00    +0.000 OA
ATOM     10  N   UNL     1      52.652  10.009   9.553  0.00  0.00    +0.000 N 
ATOM     11  H   UNL     1      53.119   9.222   9.988  0.00  0.00    +0.000 HD
BRANCH   8  15
ATOM     12  C   UNL     1      52.905   7.495   7.039  0.00  0.00    +0.000 C 
ATOM     13  C   UNL     1      53.130   8.224   5.711  0.00  0.00    +0.000 C 
ATOM     14  C   UNL     1      53.871   9.521   6.050  0.00  0.00    +0.000 C 
ATOM     15  C   UNL     1      54.015   9.549   7.574  0.00  0.00    +0.000 C 
ATOM     16  C   UNL     1      53.979   8.067   7.960  0.00  0.00    +0.000 C 
BRANCH  12  18
ATOM     17  N   UNL     1      53.129   4.739   6.737  0.00  0.00    +0.000 NA
ATOM     18  C   UNL     1      53.027   5.989   6.874  0.00  0.00    +0.000 C 
ENDBRANCH  12  18
ENDBRANCH   8  15
ENDBRANCH   7  10
ENDBRANCH   1   7
BRANCH   4  19
ATOM     19  C   UNL     1      48.569   7.002  13.664  0.00  0.00    +0.000 C 
BRANCH  19  20
ATOM     20  N   UNL     1      47.410   6.425  13.035  0.00  0.00    +0.000 N 
ATOM     21  C   UNL     1      46.225   7.103  12.924  0.00  0.00    +0.000 C 
ATOM     22  O   UNL     1      46.049   8.219  13.420  0.00  0.00    +0.000 OA
ATOM     23  H   UNL     1      47.453   5.446  12.762  0.00  0.00    +0.000 HD
BRANCH  21  24
ATOM     24  C   UNL     1      45.169   6.403  12.189  0.00  0.00    +0.000 A 
ATOM     25  C   UNL     1      44.274   7.042  11.333  0.00  0.00    +0.000 A 
ATOM     26  N   UNL     1      43.436   6.108  10.778  0.00  0.00    +0.000 N 
ATOM     27  C   UNL     1      43.749   4.878  11.273  0.00  0.00    +0.000 A 
ATOM     28  N   UNL     1      43.080   3.751  10.944  0.00  0.00    +0.000 NA
ATOM     29  C   UNL     1      43.522   2.699  11.573  0.00  0.00    +0.000 A 
ATOM     30  N   UNL     1      44.567   2.694  12.468  0.00  0.00    +0.000 N 
ATOM     31  C   UNL     1      45.309   3.817  12.765  0.00  0.00    +0.000 A 
ATOM     32  O   UNL     1      46.283   3.777  13.519  0.00  0.00    +0.000 OA
ATOM     33  C   UNL     1      44.816   5.018  12.136  0.00  0.00    +0.000 A 
ATOM     34  H   UNL     1      42.692   6.286  10.118  0.00  0.00    +0.000 HD
ATOM     35  H   UNL     1      44.863   1.837  12.911  0.00  0.00    +0.000 HD
ENDBRANCH  21  24
ENDBRANCH  19  20
ENDBRANCH   4  19
TORSDOF 7
ENDMDL
MODEL 7
REMARK VINA RESULT:    -6.314      2.442      9.155
REMARK INTER + INTRA:         -10.143
REMARK INTER:                  -8.979
REMARK INTRA:                  -1.164
REMARK UNBOUND:                -1.245
REMARK  Name = 
REMARK  7 active torsions:
REMARK  status: ('A' for Active; 'I' for Inactive)
REMARK    1  A    between atoms: C_2  and  C_3
REMARK    2  A    between atoms: C_6  and  C_7
REMARK    3  A    between atoms: N_9  and  C_10
REMARK    4  A    between atoms: C_10  and  C_11
REMARK    5  A    between atoms: C_14  and  C_15
REMARK    6  A    between atoms: C_15  and  N_16
REMARK    7  A    between atoms: C_17  and  C_19
REMARK                            x       y       z     vdW  Elec       q    Type
REMARK                         _______ _______ _______ _____ _____    ______ ____
ROOT
ATOM      1  C   UNL     1      46.149   6.349  12.707  0.00  0.00    +0.000 A 
ATOM      2  C   UNL     1      46.248   7.578  12.042  0.00  0.00    +0.000 A 
ATOM      3  C   UNL     1      47.490   8.202  11.875  0.00  0.00    +0.000 A 
ATOM      4  C   UNL     1      48.667   7.607  12.357  0.00  0.00    +0.000 A 
ATOM      5  C   UNL     1      48.559   6.372  13.015  0.00  0.00    +0.000 A 
ATOM      6  C   UNL     1      47.319   5.744  13.176  0.00  0.00    +0.000 A 
ENDROOT
BRANCH   1   7
ATOM      7  C   UNL     1      44.810   5.698  12.900  0.00  0.00    +0.000 C 
BRANCH   7  10
ATOM      8  C   UNL     1      44.565   3.879  11.299  0.00  0.00    +0.000 C 
ATOM      9  O   UNL     1      45.265   3.139  11.983  0.00  0.00    +0.000 OA
ATOM     10  N   UNL     1      44.282   5.171  11.664  0.00  0.00    +0.000 N 
ATOM     11  H   UNL     1      43.809   5.802  11.028  0.00  0.00    +0.000 HD
BRANCH   8  15
ATOM     12  C   UNL     1      45.880   3.440   8.547  0.00  0.00    +0.000 C 
ATOM     13  C   UNL     1      45.516   1.970   8.779  0.00  0.00    +0.000 C 
ATOM     14  C   UNL     1      44.263   1.969   9.661  0.00  0.00    +0.000 C 
ATOM     15  C   UNL     1      43.954   3.436   9.972  0.00  0.00    +0.000 C 
ATOM     16  C   UNL     1      44.570   4.186   8.787  0.00  0.00    +0.000 C 
BRANCH  12  18
ATOM     17  N   UNL     1      46.877   3.848   5.983  0.00  0.00    +0.000 NA
ATOM     18  C   UNL     1      46.425   3.663   7.146  0.00  0.00    +0.000 C 
ENDBRANCH  12  18
ENDBRANCH   8  15
ENDBRANCH   7  10
ENDBRANCH   1   7
BRANCH   4  19
ATOM     19  C   UNL     1      50.030   8.233  12.160  0.00  0.00    +0.000 C 
BRANCH  19  20
ATOM     20  N   UNL     1      51.023   7.794  13.105  0.00  0.00    +0.000 N 
ATOM     21  C   UNL     1      51.210   8.415  14.311  0.00  0.00    +0.000 C 
ATOM     22  O   UNL     1      50.594   9.434  14.636  0.00  0.00    +0.000 OA
ATOM     23  H   UNL     1      51.670   7.065  12.813  0.00  0.00    +0.000 HD
BRANCH  21  24
ATOM     24  C   UNL     1      52.207   7.797  15.187  0.00  0.00    +0.000 A 
ATOM     25  C   UNL     1      53.547   8.180  15.219  0.00  0.00    +0.000 A 
ATOM     26  N   UNL     1      54.207   7.435  16.162  0.00  0.00    +0.000 N 
ATOM     27  C   UNL     1      53.332   6.556  16.728  0.00  0.00    +0.000 A 
ATOM     28  N   UNL     1      53.687   5.657  17.672  0.00  0.00    +0.000 NA
ATOM     29  C   UNL     1      52.701   4.888  18.035  0.00  0.00    +0.000 A 
ATOM     30  N   UNL     1      51.416   4.967  17.545  0.00  0.00    +0.000 N 
ATOM     31  C   UNL     1      51.015   5.921  16.635  0.00  0.00    +0.000 A 
ATOM     32  O   UNL     1      49.845   6.016  16.260  0.00  0.00    +0.000 OA
ATOM     33  C   UNL     1      52.091   6.756  16.161  0.00  0.00    +0.000 A 
ATOM     34  H   UNL     1      55.186   7.501  16.403  0.00  0.00    +0.000 HD
ATOM     35  H   UNL     1      50.697   4.344  17.881  0.00  0.00    +0.000 HD
ENDBRANCH  21  24
ENDBRANCH  19  20
ENDBRANCH   4  19
TORSDOF 7
ENDMDL
MODEL 8
REMARK VINA RESULT:    -6.260      4.936      7.719
REMARK INTER + INTRA:         -10.068
REMARK INTER:                  -9.089
REMARK INTRA:                  -0.979
REMARK UNBOUND:                -1.245
REMARK  Name = 
REMARK  7 active torsions:
REMARK  status: ('A' for Active; 'I' for Inactive)
REMARK    1  A    between atoms: C_2  and  C_3
REMARK    2  A    between atoms: C_6  and  C_7
REMARK    3  A    between atoms: N_9  and  C_10
REMARK    4  A    between atoms: C_10  and  C_11
REMARK    5  A    between atoms: C_14  and  C_15
REMARK    6  A    between atoms: C_15  and  N_16
REMARK    7  A    between atoms: C_17  and  C_19
REMARK                            x       y       z     vdW  Elec       q    Type
REMARK                         _______ _______ _______ _____ _____    ______ ____
ROOT
ATOM      1  C   UNL     1      47.761   7.994  12.533  0.00  0.00    +0.000 A 
ATOM      2  C   UNL     1      48.040   9.324  12.190  0.00  0.00    +0.000 A 
ATOM      3  C   UNL     1      49.312   9.694  11.740  0.00  0.00    +0.000 A 
ATOM      4  C   UNL     1      50.335   8.742  11.608  0.00  0.00    +0.000 A 
ATOM      5  C   UNL     1      50.046   7.411  11.945  0.00  0.00    +0.000 A 
ATOM      6  C   UNL     1      48.772   7.038  12.389  0.00  0.00    +0.000 A 
ENDROOT
BRANCH   1   7
ATOM      7  C   UNL     1      46.399   7.610  13.036  0.00  0.00    +0.000 C 
BRANCH   7  10
ATOM      8  C   UNL     1      44.650   6.092  12.280  0.00  0.00    +0.000 C 
ATOM      9  O   UNL     1      44.502   5.646  13.414  0.00  0.00    +0.000 OA
ATOM     10  N   UNL     1      45.570   7.067  11.986  0.00  0.00    +0.000 N 
ATOM     11  H   UNL     1      45.762   7.331  11.027  0.00  0.00    +0.000 HD
BRANCH   8  15
ATOM     12  C   UNL     1      44.868   3.477  10.666  0.00  0.00    +0.000 C 
ATOM     13  C   UNL     1      43.490   3.174  11.262  0.00  0.00    +0.000 C 
ATOM     14  C   UNL     1      42.814   4.529  11.499  0.00  0.00    +0.000 C 
ATOM     15  C   UNL     1      43.833   5.596  11.089  0.00  0.00    +0.000 C 
ATOM     16  C   UNL     1      44.711   4.871  10.065  0.00  0.00    +0.000 C 
BRANCH  12  18
ATOM     17  N   UNL     1      45.593   1.579   8.767  0.00  0.00    +0.000 NA
ATOM     18  C   UNL     1      45.264   2.440   9.628  0.00  0.00    +0.000 C 
ENDBRANCH  12  18
ENDBRANCH   8  15
ENDBRANCH   7  10
ENDBRANCH   1   7
BRANCH   4  19
ATOM     19  C   UNL     1      51.710   9.100  11.087  0.00  0.00    +0.000 C 
BRANCH  19  20
ATOM     20  N   UNL     1      52.046   8.479   9.832  0.00  0.00    +0.000 N 
ATOM     21  C   UNL     1      53.115   8.886   9.078  0.00  0.00    +0.000 C 
ATOM     22  O   UNL     1      53.814   9.856   9.385  0.00  0.00    +0.000 OA
ATOM     23  H   UNL     1      51.402   7.789   9.453  0.00  0.00    +0.000 HD
BRANCH  21  24
ATOM     24  C   UNL     1      53.364   8.101   7.868  0.00  0.00    +0.000 A 
ATOM     25  C   UNL     1      53.445   8.657   6.592  0.00  0.00    +0.000 A 
ATOM     26  N   UNL     1      53.718   7.666   5.685  0.00  0.00    +0.000 N 
ATOM     27  C   UNL     1      53.791   6.471   6.337  0.00  0.00    +0.000 A 
ATOM     28  N   UNL     1      54.014   5.295   5.712  0.00  0.00    +0.000 NA
ATOM     29  C   UNL     1      53.997   4.278   6.526  0.00  0.00    +0.000 A 
ATOM     30  N   UNL     1      53.795   4.358   7.885  0.00  0.00    +0.000 N 
ATOM     31  C   UNL     1      53.635   5.553   8.554  0.00  0.00    +0.000 A 
ATOM     32  O   UNL     1      53.522   5.606   9.780  0.00  0.00    +0.000 OA
ATOM     33  C   UNL     1      53.589   6.700   7.682  0.00  0.00    +0.000 A 
ATOM     34  H   UNL     1      53.835   7.780   4.687  0.00  0.00    +0.000 HD
ATOM     35  H   UNL     1      53.805   3.527   8.457  0.00  0.00    +0.000 HD
ENDBRANCH  21  24
ENDBRANCH  19  20
ENDBRANCH   4  19
TORSDOF 7
ENDMDL
MODEL 9
REMARK VINA RESULT:    -6.173      2.522      9.340
REMARK INTER + INTRA:          -9.944
REMARK INTER:                  -9.228
REMARK INTRA:                  -0.716
REMARK UNBOUND:                -1.245
REMARK  Name = 
REMARK  7 active torsions:
REMARK  status: ('A' for Active; 'I' for Inactive)
REMARK    1  A    between atoms: C_2  and  C_3
REMARK    2  A    between atoms: C_6  and  C_7
REMARK    3  A    between atoms: N_9  and  C_10
REMARK    4  A    between atoms: C_10  and  C_11
REMARK    5  A    between atoms: C_14  and  C_15
REMARK    6  A    between atoms: C_15  and  N_16
REMARK    7  A    between atoms: C_17  and  C_19
REMARK                            x       y       z     vdW  Elec       q    Type
REMARK                         _______ _______ _______ _____ _____    ______ ____
ROOT
ATOM      1  C   UNL     1      46.264   5.523  13.204  0.00  0.00    +0.000 A 
ATOM      2  C   UNL     1      46.651   6.842  12.931  0.00  0.00    +0.000 A 
ATOM      3  C   UNL     1      47.652   7.464  13.686  0.00  0.00    +0.000 A 
ATOM      4  C   UNL     1      48.301   6.779  14.726  0.00  0.00    +0.000 A 
ATOM      5  C   UNL     1      47.913   5.456  14.988  0.00  0.00    +0.000 A 
ATOM      6  C   UNL     1      46.917   4.831  14.228  0.00  0.00    +0.000 A 
ENDROOT
BRANCH   1   7
ATOM      7  C   UNL     1      45.175   4.872  12.402  0.00  0.00    +0.000 C 
BRANCH   7  10
ATOM      8  C   UNL     1      44.829   4.185  10.091  0.00  0.00    +0.000 C 
ATOM      9  O   UNL     1      44.225   3.177  10.446  0.00  0.00    +0.000 OA
ATOM     10  N   UNL     1      45.345   5.088  10.985  0.00  0.00    +0.000 N 
ATOM     11  H   UNL     1      45.946   5.843  10.676  0.00  0.00    +0.000 HD
BRANCH   8  15
ATOM     12  C   UNL     1      46.360   2.624   7.920  0.00  0.00    +0.000 C 
ATOM     13  C   UNL     1      44.981   2.475   7.271  0.00  0.00    +0.000 C 
ATOM     14  C   UNL     1      44.170   3.706   7.691  0.00  0.00    +0.000 C 
ATOM     15  C   UNL     1      45.074   4.519   8.621  0.00  0.00    +0.000 C 
ATOM     16  C   UNL     1      46.485   4.123   8.179  0.00  0.00    +0.000 C 
BRANCH  12  18
ATOM     17  N   UNL     1      48.374   1.664   6.259  0.00  0.00    +0.000 NA
ATOM     18  C   UNL     1      47.461   2.100   7.012  0.00  0.00    +0.000 C 
ENDBRANCH  12  18
ENDBRANCH   8  15
ENDBRANCH   7  10
ENDBRANCH   1   7
BRANCH   4  19
ATOM     19  C   UNL     1      49.414   7.407  15.537  0.00  0.00    +0.000 C 
BRANCH  19  20
ATOM     20  N   UNL     1      50.390   6.468  16.025  0.00  0.00    +0.000 N 
ATOM     21  C   UNL     1      50.295   5.892  17.265  0.00  0.00    +0.000 C 
ATOM     22  O   UNL     1      49.412   6.194  18.072  0.00  0.00    +0.000 OA
ATOM     23  H   UNL     1      51.226   6.315  15.467  0.00  0.00    +0.000 HD
BRANCH  21  24
ATOM     24  C   UNL     1      51.327   4.902  17.577  0.00  0.00    +0.000 A 
ATOM     25  C   UNL     1      52.602   5.235  18.029  0.00  0.00    +0.000 A 
ATOM     26  N   UNL     1      53.314   4.085  18.260  0.00  0.00    +0.000 N 
ATOM     27  C   UNL     1      52.539   3.010  17.943  0.00  0.00    +0.000 A 
ATOM     28  N   UNL     1      52.969   1.733  18.030  0.00  0.00    +0.000 NA
ATOM     29  C   UNL     1      52.077   0.871  17.632  0.00  0.00    +0.000 A 
ATOM     30  N   UNL     1      50.815   1.189  17.184  0.00  0.00    +0.000 N 
ATOM     31  C   UNL     1      50.330   2.479  17.153  0.00  0.00    +0.000 A 
ATOM     32  O   UNL     1      49.175   2.736  16.811  0.00  0.00    +0.000 OA
ATOM     33  C   UNL     1      51.307   3.472  17.529  0.00  0.00    +0.000 A 
ATOM     34  H   UNL     1      54.265   4.025  18.596  0.00  0.00    +0.000 HD
ATOM     35  H   UNL     1      50.171   0.467  16.900  0.00  0.00    +0.000 HD
ENDBRANCH  21  24
ENDBRANCH  19  20
ENDBRANCH   4  19
TORSDOF 7
ENDMDL
