MODEL 1
REMARK VINA RESULT:    -7.639      0.000      0.000
REMARK INTER + INTRA:         -12.457
REMARK INTER:                 -11.211
REMARK INTRA:                  -1.246
REMARK UNBOUND:                -1.246
REMARK  Name = 
REMARK  9 active torsions:
REMARK  status: ('A' for Active; 'I' for Inactive)
REMARK    1  A    between atoms: C_1  and  O_2
REMARK    2  A    between atoms: O_2  and  C_3
REMARK    3  A    between atoms: C_10  and  C_11
REMARK    4  A    between atoms: N_13  and  C_14
REMARK    5  A    between atoms: C_14  and  C_15
REMARK    6  A    between atoms: C_18  and  C_19
REMARK    7  A    between atoms: C_19  and  C_20
REMARK    8  A    between atoms: C_20  and  C_21
REMARK    9  A    between atoms: C_21  and  N_22
REMARK                            x       y       z     vdW  Elec       q    Type
REMARK                         _______ _______ _______ _____ _____    ______ ____
ROOT
ATOM      1  C   UNL     1      48.069   7.285  13.373  0.00  0.00    +0.000 C 
ENDROOT
BRANCH   1   2
ATOM      2  C   UNL     1      46.985   6.431  12.770  0.00  0.00    +0.000 A 
ATOM      3  C   UNL     1      46.597   6.607  11.435  0.00  0.00    +0.000 A 
ATOM      4  C   UNL     1      45.553   5.853  10.893  0.00  0.00    +0.000 A 
ATOM      5  C   UNL     1      44.867   4.921  11.680  0.00  0.00    +0.000 A 
ATOM      6  C   UNL     1      45.260   4.742  13.014  0.00  0.00    +0.000 A 
ATOM      7  C   UNL     1      46.307   5.490  13.554  0.00  0.00    +0.000 A 
BRANCH   5   8
ATOM      8  C   UNL     1      43.723   4.119  11.114  0.00  0.00    +0.000 C 
BRANCH   8   9
ATOM      9  C   UNL     1      43.974   3.585   9.698  0.00  0.00    +0.000 C 
BRANCH   9  10
ATOM     10  C   UNL     1      44.884   2.346   9.618  0.00  0.00    +0.000 C 
BRANCH  10  11
ATOM     11  N   UNL     1      45.980   2.447   8.636  0.00  0.00    +0.000 NA
ATOM     12  C   UNL     1      46.281   1.145   8.021  0.00  0.00    +0.000 C 
ATOM     13  C   UNL     1      47.432   1.246   7.019  0.00  0.00    +0.000 C 
ATOM     14  C   UNL     1      47.136   2.280   5.943  0.00  0.00    +0.000 C 
ATOM     15  C   UNL     1      46.768   3.612   6.584  0.00  0.00    +0.000 C 
ATOM     16  C   UNL     1      45.638   3.445   7.604  0.00  0.00    +0.000 C 
ENDBRANCH  10  11
ENDBRANCH   9  10
ENDBRANCH   8   9
ENDBRANCH   5   8
ENDBRANCH   1   2
BRANCH   1  19
ATOM     17  C   UNL     1      49.050   7.001  15.600  0.00  0.00    +0.000 C 
ATOM     18  O   UNL     1      50.131   6.696  15.100  0.00  0.00    +0.000 OA
ATOM     19  N   UNL     1      47.973   7.302  14.814  0.00  0.00    +0.000 N 
ATOM     20  H   UNL     1      47.078   7.529  15.229  0.00  0.00    +0.000 HD
BRANCH  17  28
ATOM     21  C   UNL     1      48.898   4.599  18.084  0.00  0.00    +0.000 A 
ATOM     22  N   UNL     1      48.782   3.901  19.233  0.00  0.00    +0.000 NA
ATOM     23  C   UNL     1      48.586   4.577  20.368  0.00  0.00    +0.000 A 
ATOM     24  N   UNL     1      48.491   5.893  20.505  0.00  0.00    +0.000 NA
ATOM     25  C   UNL     1      48.608   6.554  19.341  0.00  0.00    +0.000 A 
ATOM     26  S   UNL     1      48.511   8.249  19.336  0.00  0.00    +0.000 S 
ATOM     27  C   UNL     1      48.725   8.301  17.653  0.00  0.00    +0.000 A 
ATOM     28  C   UNL     1      48.874   7.052  17.060  0.00  0.00    +0.000 A 
ATOM     29  C   UNL     1      48.810   6.003  18.076  0.00  0.00    +0.000 A 
BRANCH  21  31
ATOM     30  C   UNL     1      47.915   3.461  16.280  0.00  0.00    +0.000 C 
ATOM     31  O   UNL     1      49.116   3.900  16.913  0.00  0.00    +0.000 OA
ENDBRANCH  21  31
ENDBRANCH  17  28
ENDBRANCH   1  19
TORSDOF 8
ENDMDL
MODEL 2
REMARK VINA RESULT:    -7.439      1.676      2.962
REMARK INTER + INTRA:         -12.163
REMARK INTER:                 -10.984
REMARK INTRA:                  -1.179
REMARK UNBOUND:                -1.246
REMARK  Name = 
REMARK  9 active torsions:
REMARK  status: ('A' for Active; 'I' for Inactive)
REMARK    1  A    between atoms: C_1  and  O_2
REMARK    2  A    between atoms: O_2  and  C_3
REMARK    3  A    between atoms: C_10  and  C_11
REMARK    4  A    between atoms: N_13  and  C_14
REMARK    5  A    between atoms: C_14  and  C_15
REMARK    6  A    between atoms: C_18  and  C_19
REMARK    7  A    between atoms: C_19  and  C_20
REMARK    8  A    between atoms: C_20  and  C_21
REMARK    9  A    between atoms: C_21  and  N_22
REMARK                            x       y       z     vdW  Elec       q    Type
REMARK                         _______ _______ _______ _____ _____    ______ ____
ROOT
ATOM      1  C   UNL     1      48.329   6.678  13.918  0.00  0.00    +0.000 C 
ENDROOT
BRANCH   1   2
ATOM      2  C   UNL     1      47.137   6.156  13.161  0.00  0.00    +0.000 A 
ATOM      3  C   UNL     1      46.441   5.028  13.615  0.00  0.00    +0.000 A 
ATOM      4  C   UNL     1      45.369   4.510  12.882  0.00  0.00    +0.000 A 
ATOM      5  C   UNL     1      44.985   5.102  11.673  0.00  0.00    +0.000 A 
ATOM      6  C   UNL     1      45.678   6.234  11.223  0.00  0.00    +0.000 A 
ATOM      7  C   UNL     1      46.744   6.755  11.959  0.00  0.00    +0.000 A 
BRANCH   5   8
ATOM      8  C   UNL     1      43.847   4.539  10.861  0.00  0.00    +0.000 C 
BRANCH   8   9
ATOM      9  C   UNL     1      44.266   3.443   9.872  0.00  0.00    +0.000 C 
BRANCH   9  10
ATOM     10  C   UNL     1      44.629   3.941   8.461  0.00  0.00    +0.000 C 
BRANCH  10  11
ATOM     11  N   UNL     1      45.401   2.981   7.648  0.00  0.00    +0.000 NA
ATOM     12  C   UNL     1      46.503   3.640   6.930  0.00  0.00    +0.000 C 
ATOM     13  C   UNL     1      47.289   2.649   6.071  0.00  0.00    +0.000 C 
ATOM     14  C   UNL     1      47.822   1.496   6.908  0.00  0.00    +0.000 C 
ATOM     15  C   UNL     1      46.688   0.853   7.695  0.00  0.00    +0.000 C 
ATOM     16  C   UNL     1      45.913   1.895   8.506  0.00  0.00    +0.000 C 
ENDBRANCH  10  11
ENDBRANCH   9  10
ENDBRANCH   8   9
ENDBRANCH   5   8
ENDBRANCH   1   2
BRANCH   1  19
ATOM     17  C   UNL     1      48.888   6.408  16.288  0.00  0.00    +0.000 C 
ATOM     18  O   UNL     1      49.950   5.864  15.989  0.00  0.00    +0.000 OA
ATOM     19  N   UNL     1      48.023   6.837  15.320  0.00  0.00    +0.000 N 
ATOM     20  H   UNL     1      47.139   7.261  15.570  0.00  0.00    +0.000 HD
BRANCH  17  28
ATOM     21  C   UNL     1      47.870   9.160  18.118  0.00  0.00    +0.000 A 
ATOM     22  N   UNL     1      47.480  10.038  19.065  0.00  0.00    +0.000 NA
ATOM     23  C   UNL     1      47.301   9.589  20.310  0.00  0.00    +0.000 A 
ATOM     24  N   UNL     1      47.463   8.344  20.739  0.00  0.00    +0.000 NA
ATOM     25  C   UNL     1      47.853   7.500  19.770  0.00  0.00    +0.000 A 
ATOM     26  S   UNL     1      48.107   5.864  20.148  0.00  0.00    +0.000 S 
ATOM     27  C   UNL     1      48.545   5.515  18.545  0.00  0.00    +0.000 A 
ATOM     28  C   UNL     1      48.509   6.615  17.695  0.00  0.00    +0.000 A 
ATOM     29  C   UNL     1      48.087   7.805  18.430  0.00  0.00    +0.000 A 
BRANCH  21  31
ATOM     30  C   UNL     1      48.763  10.849  16.754  0.00  0.00    +0.000 C 
ATOM     31  O   UNL     1      48.040   9.623  16.827  0.00  0.00    +0.000 OA
ENDBRANCH  21  31
ENDBRANCH  17  28
ENDBRANCH   1  19
TORSDOF 8
ENDMDL
MODEL 3
REMARK VINA RESULT:    -6.855      1.914      2.810
REMARK INTER + INTRA:         -11.306
REMARK INTER:                 -10.121
REMARK INTRA:                  -1.185
REMARK UNBOUND:                -1.246
REMARK  Name = 
REMARK  9 active torsions:
REMARK  status: ('A' for Active; 'I' for Inactive)
REMARK    1  A    between atoms: C_1  and  O_2
REMARK    2  A    between atoms: O_2  and  C_3
REMARK    3  A    between atoms: C_10  and  C_11
REMARK    4  A    between atoms: N_13  and  C_14
REMARK    5  A    between atoms: C_14  and  C_15
REMARK    6  A    between atoms: C_18  and  C_19
REMARK    7  A    between atoms: C_19  and  C_20
REMARK    8  A    between atoms: C_20  and  C_21
REMARK    9  A    between atoms: C_21  and  N_22
REMARK                            x       y       z     vdW  Elec       q    Type
REMARK                         _______ _______ _______ _____ _____    ______ ____
ROOT
ATOM      1  C   UNL     1      47.862   4.863  15.010  0.00  0.00    +0.000 C 
ENDROOT
BRANCH   1   2
ATOM      2  C   UNL     1      46.840   4.769  13.908  0.00  0.00    +0.000 A 
ATOM      3  C   UNL     1      46.246   5.925  13.383  0.00  0.00    +0.000 A 
ATOM      4  C   UNL     1      45.257   5.833  12.400  0.00  0.00    +0.000 A 
ATOM      5  C   UNL     1      44.834   4.582  11.935  0.00  0.00    +0.000 A 
ATOM      6  C   UNL     1      45.433   3.428  12.456  0.00  0.00    +0.000 A 
ATOM      7  C   UNL     1      46.425   3.519  13.433  0.00  0.00    +0.000 A 
BRANCH   5   8
ATOM      8  C   UNL     1      43.751   4.469  10.892  0.00  0.00    +0.000 C 
BRANCH   8   9
ATOM      9  C   UNL     1      44.050   3.446   9.789  0.00  0.00    +0.000 C 
BRANCH   9  10
ATOM     10  C   UNL     1      44.693   4.026   8.516  0.00  0.00    +0.000 C 
BRANCH  10  11
ATOM     11  N   UNL     1      45.401   3.040   7.678  0.00  0.00    +0.000 NA
ATOM     12  C   UNL     1      46.465   3.668   6.879  0.00  0.00    +0.000 C 
ATOM     13  C   UNL     1      47.184   2.650   5.995  0.00  0.00    +0.000 C 
ATOM     14  C   UNL     1      47.753   1.506   6.821  0.00  0.00    +0.000 C 
ATOM     15  C   UNL     1      46.661   0.895   7.690  0.00  0.00    +0.000 C 
ATOM     16  C   UNL     1      45.951   1.964   8.524  0.00  0.00    +0.000 C 
ENDBRANCH  10  11
ENDBRANCH   9  10
ENDBRANCH   8   9
ENDBRANCH   5   8
ENDBRANCH   1   2
BRANCH   1  19
ATOM     17  C   UNL     1      48.916   6.997  15.593  0.00  0.00    +0.000 C 
ATOM     18  O   UNL     1      49.955   6.652  15.031  0.00  0.00    +0.000 OA
ATOM     19  N   UNL     1      47.831   6.165  15.633  0.00  0.00    +0.000 N 
ATOM     20  H   UNL     1      46.987   6.442  16.118  0.00  0.00    +0.000 HD
BRANCH  17  28
ATOM     21  C   UNL     1      47.876   8.046  18.720  0.00  0.00    +0.000 A 
ATOM     22  N   UNL     1      47.516   8.733  19.824  0.00  0.00    +0.000 NA
ATOM     23  C   UNL     1      47.624  10.064  19.805  0.00  0.00    +0.000 A 
ATOM     24  N   UNL     1      48.059  10.814  18.800  0.00  0.00    +0.000 NA
ATOM     25  C   UNL     1      48.405  10.096  17.719  0.00  0.00    +0.000 A 
ATOM     26  S   UNL     1      48.985  10.900  16.341  0.00  0.00    +0.000 S 
ATOM     27  C   UNL     1      49.170   9.433  15.507  0.00  0.00    +0.000 A 
ATOM     28  C   UNL     1      48.803   8.312  16.243  0.00  0.00    +0.000 A 
ATOM     29  C   UNL     1      48.350   8.711  17.574  0.00  0.00    +0.000 A 
BRANCH  21  31
ATOM     30  C   UNL     1      47.286   6.157  19.983  0.00  0.00    +0.000 C 
ATOM     31  O   UNL     1      47.778   6.668  18.746  0.00  0.00    +0.000 OA
ENDBRANCH  21  31
ENDBRANCH  17  28
ENDBRANCH   1  19
TORSDOF 8
ENDMDL
MODEL 4
REMARK VINA RESULT:    -6.756      1.904      2.085
REMARK INTER + INTRA:         -11.161
REMARK INTER:                  -9.932
REMARK INTRA:                  -1.229
REMARK UNBOUND:                -1.246
REMARK  Name = 
REMARK  9 active torsions:
REMARK  status: ('A' for Active; 'I' for Inactive)
REMARK    1  A    between atoms: C_1  and  O_2
REMARK    2  A    between atoms: O_2  and  C_3
REMARK    3  A    between atoms: C_10  and  C_11
REMARK    4  A    between atoms: N_13  and  C_14
REMARK    5  A    between atoms: C_14  and  C_15
REMARK    6  A    between atoms: C_18  and  C_19
REMARK    7  A    between atoms: C_19  and  C_20
REMARK    8  A    between atoms: C_20  and  C_21
REMARK    9  A    between atoms: C_21  and  N_22
REMARK                            x       y       z     vdW  Elec       q    Type
REMARK                         _______ _______ _______ _____ _____    ______ ____
ROOT
ATOM      1  C   UNL     1      48.064   7.682  13.744  0.00  0.00    +0.000 C 
ENDROOT
BRANCH   1   2
ATOM      2  C   UNL     1      47.032   6.690  13.278  0.00  0.00    +0.000 A 
ATOM      3  C   UNL     1      45.830   7.126  12.705  0.00  0.00    +0.000 A 
ATOM      4  C   UNL     1      44.848   6.206  12.324  0.00  0.00    +0.000 A 
ATOM      5  C   UNL     1      45.046   4.835  12.524  0.00  0.00    +0.000 A 
ATOM      6  C   UNL     1      46.251   4.400  13.091  0.00  0.00    +0.000 A 
ATOM      7  C   UNL     1      47.234   5.318  13.465  0.00  0.00    +0.000 A 
BRANCH   5   8
ATOM      8  C   UNL     1      43.986   3.835  12.140  0.00  0.00    +0.000 C 
BRANCH   8   9
ATOM      9  C   UNL     1      43.753   3.719  10.628  0.00  0.00    +0.000 C 
BRANCH   9  10
ATOM     10  C   UNL     1      44.272   2.420   9.985  0.00  0.00    +0.000 C 
BRANCH  10  11
ATOM     11  N   UNL     1      45.444   2.594   9.104  0.00  0.00    +0.000 NA
ATOM     12  C   UNL     1      45.766   1.357   8.377  0.00  0.00    +0.000 C 
ATOM     13  C   UNL     1      46.993   1.531   7.482  0.00  0.00    +0.000 C 
ATOM     14  C   UNL     1      46.804   2.681   6.505  0.00  0.00    +0.000 C 
ATOM     15  C   UNL     1      46.415   3.948   7.257  0.00  0.00    +0.000 C 
ATOM     16  C   UNL     1      45.205   3.705   8.164  0.00  0.00    +0.000 C 
ENDBRANCH  10  11
ENDBRANCH   9  10
ENDBRANCH   8   9
ENDBRANCH   5   8
ENDBRANCH   1   2
BRANCH   1  19
ATOM     17  C   UNL     1      49.576   7.573  15.669  0.00  0.00    +0.000 C 
ATOM     18  O   UNL     1      49.136   8.641  16.092  0.00  0.00    +0.000 OA
ATOM     19  N   UNL     1      49.102   7.030  14.506  0.00  0.00    +0.000 N 
ATOM     20  H   UNL     1      49.484   6.164  14.148  0.00  0.00    +0.000 HD
BRANCH  17  28
ATOM     21  C   UNL     1      49.800   4.391  17.005  0.00  0.00    +0.000 A 
ATOM     22  N   UNL     1      50.159   3.248  17.626  0.00  0.00    +0.000 NA
ATOM     23  C   UNL     1      51.370   3.182  18.184  0.00  0.00    +0.000 A 
ATOM     24  N   UNL     1      52.293   4.136  18.198  0.00  0.00    +0.000 NA
ATOM     25  C   UNL     1      51.900   5.259  17.574  0.00  0.00    +0.000 A 
ATOM     26  S   UNL     1      52.962   6.581  17.499  0.00  0.00    +0.000 S 
ATOM     27  C   UNL     1      51.825   7.504  16.642  0.00  0.00    +0.000 A 
ATOM     28  C   UNL     1      50.627   6.842  16.394  0.00  0.00    +0.000 A 
ATOM     29  C   UNL     1      50.676   5.491  16.948  0.00  0.00    +0.000 A 
BRANCH  21  31
ATOM     30  C   UNL     1      47.495   4.045  17.282  0.00  0.00    +0.000 C 
ATOM     31  O   UNL     1      48.552   4.452  16.416  0.00  0.00    +0.000 OA
ENDBRANCH  21  31
ENDBRANCH  17  28
ENDBRANCH   1  19
TORSDOF 8
ENDMDL
MODEL 5
REMARK VINA RESULT:    -6.295      2.568      3.099
REMARK INTER + INTRA:         -10.485
REMARK INTER:                  -9.429
REMARK INTRA:                  -1.056
REMARK UNBOUND:                -1.246
REMARK  Name = 
REMARK  9 active torsions:
REMARK  status: ('A' for Active; 'I' for Inactive)
REMARK    1  A    between atoms: C_1  and  O_2
REMARK    2  A    between atoms: O_2  and  C_3
REMARK    3  A    between atoms: C_10  and  C_11
REMARK    4  A    between atoms: N_13  and  C_14
REMARK    5  A    between atoms: C_14  and  C_15
REMARK    6  A    between atoms: C_18  and  C_19
REMARK    7  A    between atoms: C_19  and  C_20
REMARK    8  A    between atoms: C_20  and  C_21
REMARK    9  A    between atoms: C_21  and  N_22
REMARK                            x       y       z     vdW  Elec       q    Type
REMARK                         _______ _______ _______ _____ _____    ______ ____
ROOT
ATOM      1  C   UNL     1      47.845   8.103  13.636  0.00  0.00    +0.000 C 
ENDROOT
BRANCH   1   2
ATOM      2  C   UNL     1      47.098   6.919  13.081  0.00  0.00    +0.000 A 
ATOM      3  C   UNL     1      46.498   6.983  11.816  0.00  0.00    +0.000 A 
ATOM      4  C   UNL     1      45.757   5.904  11.325  0.00  0.00    +0.000 A 
ATOM      5  C   UNL     1      45.591   4.748  12.097  0.00  0.00    +0.000 A 
ATOM      6  C   UNL     1      46.197   4.683  13.359  0.00  0.00    +0.000 A 
ATOM      7  C   UNL     1      46.942   5.758  13.847  0.00  0.00    +0.000 A 
BRANCH   5   8
ATOM      8  C   UNL     1      44.774   3.587  11.589  0.00  0.00    +0.000 C 
BRANCH   8   9
ATOM      9  C   UNL     1      44.428   3.671  10.097  0.00  0.00    +0.000 C 
BRANCH   9  10
ATOM     10  C   UNL     1      44.442   2.327   9.347  0.00  0.00    +0.000 C 
BRANCH  10  11
ATOM     11  N   UNL     1      45.266   2.313   8.122  0.00  0.00    +0.000 NA
ATOM     12  C   UNL     1      45.924   3.609   7.894  0.00  0.00    +0.000 C 
ATOM     13  C   UNL     1      46.759   3.601   6.614  0.00  0.00    +0.000 C 
ATOM     14  C   UNL     1      47.791   2.484   6.636  0.00  0.00    +0.000 C 
ATOM     15  C   UNL     1      47.114   1.151   6.929  0.00  0.00    +0.000 C 
ATOM     16  C   UNL     1      46.262   1.228   8.199  0.00  0.00    +0.000 C 
ENDBRANCH  10  11
ENDBRANCH   9  10
ENDBRANCH   8   9
ENDBRANCH   5   8
ENDBRANCH   1   2
BRANCH   1  19
ATOM     17  C   UNL     1      50.242   8.433  14.020  0.00  0.00    +0.000 C 
ATOM     18  O   UNL     1      50.222   9.461  13.344  0.00  0.00    +0.000 OA
ATOM     19  N   UNL     1      49.106   7.697  14.210  0.00  0.00    +0.000 N 
ATOM     20  H   UNL     1      49.132   6.838  14.746  0.00  0.00    +0.000 HD
BRANCH  17  28
ATOM     21  C   UNL     1      50.946   6.216  16.578  0.00  0.00    +0.000 A 
ATOM     22  N   UNL     1      51.507   5.440  17.529  0.00  0.00    +0.000 NA
ATOM     23  C   UNL     1      52.837   5.447  17.649  0.00  0.00    +0.000 A 
ATOM     24  N   UNL     1      53.699   6.147  16.921  0.00  0.00    +0.000 NA
ATOM     25  C   UNL     1      53.103   6.909  15.988  0.00  0.00    +0.000 A 
ATOM     26  S   UNL     1      54.061   7.869  14.968  0.00  0.00    +0.000 S 
ATOM     27  C   UNL     1      52.689   8.466  14.167  0.00  0.00    +0.000 A 
ATOM     28  C   UNL     1      51.486   7.958  14.646  0.00  0.00    +0.000 A 
ATOM     29  C   UNL     1      51.737   7.018  15.736  0.00  0.00    +0.000 A 
BRANCH  21  31
ATOM     30  C   UNL     1      48.927   5.287  17.338  0.00  0.00    +0.000 C 
ATOM     31  O   UNL     1      49.571   6.195  16.446  0.00  0.00    +0.000 OA
ENDBRANCH  21  31
ENDBRANCH  17  28
ENDBRANCH   1  19
TORSDOF 8
ENDMDL
MODEL 6
REMARK VINA RESULT:    -6.105      3.668      5.553
REMARK INTER + INTRA:         -10.206
REMARK INTER:                  -8.934
REMARK INTRA:                  -1.272
REMARK UNBOUND:                -1.246
REMARK  Name = 
REMARK  9 active torsions:
REMARK  status: ('A' for Active; 'I' for Inactive)
REMARK    1  A    between atoms: C_1  and  O_2
REMARK    2  A    between atoms: O_2  and  C_3
REMARK    3  A    between atoms: C_10  and  C_11
REMARK    4  A    between atoms: N_13  and  C_14
REMARK    5  A    between atoms: C_14  and  C_15
REMARK    6  A    between atoms: C_18  and  C_19
REMARK    7  A    between atoms: C_19  and  C_20
REMARK    8  A    between atoms: C_20  and  C_21
REMARK    9  A    between atoms: C_21  and  N_22
REMARK                            x       y       z     vdW  Elec       q    Type
REMARK                         _______ _______ _______ _____ _____    ______ ____
ROOT
ATOM      1  C   UNL     1      49.159   6.992  15.164  0.00  0.00    +0.000 C 
ENDROOT
BRANCH   1   2
ATOM      2  C   UNL     1      48.123   6.354  14.278  0.00  0.00    +0.000 A 
ATOM      3  C   UNL     1      47.827   6.897  13.020  0.00  0.00    +0.000 A 
ATOM      4  C   UNL     1      46.826   6.337  12.221  0.00  0.00    +0.000 A 
ATOM      5  C   UNL     1      46.092   5.234  12.673  0.00  0.00    +0.000 A 
ATOM      6  C   UNL     1      46.393   4.688  13.928  0.00  0.00    +0.000 A 
ATOM      7  C   UNL     1      47.398   5.243  14.723  0.00  0.00    +0.000 A 
BRANCH   5   8
ATOM      8  C   UNL     1      44.994   4.637  11.831  0.00  0.00    +0.000 C 
BRANCH   8   9
ATOM      9  C   UNL     1      45.144   4.900  10.327  0.00  0.00    +0.000 C 
BRANCH   9  10
ATOM     10  C   UNL     1      44.230   4.054   9.422  0.00  0.00    +0.000 C 
BRANCH  10  11
ATOM     11  N   UNL     1      44.939   3.256   8.402  0.00  0.00    +0.000 NA
ATOM     12  C   UNL     1      45.982   4.042   7.726  0.00  0.00    +0.000 C 
ATOM     13  C   UNL     1      46.702   3.223   6.655  0.00  0.00    +0.000 C 
ATOM     14  C   UNL     1      47.298   1.952   7.241  0.00  0.00    +0.000 C 
ATOM     15  C   UNL     1      46.227   1.169   7.990  0.00  0.00    +0.000 C 
ATOM     16  C   UNL     1      45.515   2.048   9.022  0.00  0.00    +0.000 C 
ENDBRANCH  10  11
ENDBRANCH   9  10
ENDBRANCH   8   9
ENDBRANCH   5   8
ENDBRANCH   1   2
BRANCH   1  19
ATOM     17  C   UNL     1      51.343   8.079  14.938  0.00  0.00    +0.000 C 
ATOM     18  O   UNL     1      51.200   8.625  16.031  0.00  0.00    +0.000 OA
ATOM     19  N   UNL     1      50.375   7.257  14.432  0.00  0.00    +0.000 N 
ATOM     20  H   UNL     1      50.485   6.830  13.521  0.00  0.00    +0.000 HD
BRANCH  17  28
ATOM     21  C   UNL     1      51.938   8.542  11.563  0.00  0.00    +0.000 A 
ATOM     22  N   UNL     1      52.463   8.718  10.332  0.00  0.00    +0.000 NA
ATOM     23  C   UNL     1      53.788   8.836  10.219  0.00  0.00    +0.000 A 
ATOM     24  N   UNL     1      54.678   8.801  11.203  0.00  0.00    +0.000 NA
ATOM     25  C   UNL     1      54.120   8.621  12.412  0.00  0.00    +0.000 A 
ATOM     26  S   UNL     1      55.117   8.553  13.784  0.00  0.00    +0.000 S 
ATOM     27  C   UNL     1      53.779   8.321  14.801  0.00  0.00    +0.000 A 
ATOM     28  C   UNL     1      52.558   8.291  14.136  0.00  0.00    +0.000 A 
ATOM     29  C   UNL     1      52.764   8.478  12.701  0.00  0.00    +0.000 A 
BRANCH  21  31
ATOM     30  C   UNL     1      49.882   9.674  11.497  0.00  0.00    +0.000 C 
ATOM     31  O   UNL     1      50.566   8.435  11.680  0.00  0.00    +0.000 OA
ENDBRANCH  21  31
ENDBRANCH  17  28
ENDBRANCH   1  19
TORSDOF 8
ENDMDL
MODEL 7
REMARK VINA RESULT:    -5.685      3.352      4.847
REMARK INTER + INTRA:          -9.589
REMARK INTER:                  -8.824
REMARK INTRA:                  -0.765
REMARK UNBOUND:                -1.246
REMARK  Name = 
REMARK  9 active torsions:
REMARK  status: ('A' for Active; 'I' for Inactive)
REMARK    1  A    between atoms: C_1  and  O_2
REMARK    2  A    between atoms: O_2  and  C_3
REMARK    3  A    between atoms: C_10  and  C_11
REMARK    4  A    between atoms: N_13  and  C_14
REMARK    5  A    between atoms: C_14  and  C_15
REMARK    6  A    between atoms: C_18  and  C_19
REMARK    7  A    between atoms: C_19  and  C_20
REMARK    8  A    between atoms: C_20  and  C_21
REMARK    9  A    between atoms: C_21  and  N_22
REMARK                            x       y       z     vdW  Elec       q    Type
REMARK                         _______ _______ _______ _____ _____    ______ ____
ROOT
ATOM      1  C   UNL     1      44.497   8.695  11.508  0.00  0.00    +0.000 C 
ENDROOT
BRANCH   1   2
ATOM      2  C   UNL     1      44.329   7.199  11.485  0.00  0.00    +0.000 A 
ATOM      3  C   UNL     1      45.448   6.356  11.462  0.00  0.00    +0.000 A 
ATOM      4  C   UNL     1      45.292   4.969  11.384  0.00  0.00    +0.000 A 
ATOM      5  C   UNL     1      44.015   4.402  11.312  0.00  0.00    +0.000 A 
ATOM      6  C   UNL     1      42.896   5.246  11.342  0.00  0.00    +0.000 A 
ATOM      7  C   UNL     1      43.052   6.630  11.426  0.00  0.00    +0.000 A 
BRANCH   5   8
ATOM      8  C   UNL     1      43.833   2.909  11.204  0.00  0.00    +0.000 C 
BRANCH   8   9
ATOM      9  C   UNL     1      44.525   2.282   9.986  0.00  0.00    +0.000 C 
BRANCH   9  10
ATOM     10  C   UNL     1      44.527   3.153   8.716  0.00  0.00    +0.000 C 
BRANCH  10  11
ATOM     11  N   UNL     1      45.419   2.674   7.642  0.00  0.00    +0.000 NA
ATOM     12  C   UNL     1      46.240   3.764   7.091  0.00  0.00    +0.000 C 
ATOM     13  C   UNL     1      47.148   3.272   5.964  0.00  0.00    +0.000 C 
ATOM     14  C   UNL     1      48.036   2.128   6.430  0.00  0.00    +0.000 C 
ATOM     15  C   UNL     1      47.188   1.027   7.053  0.00  0.00    +0.000 C 
ATOM     16  C   UNL     1      46.272   1.582   8.147  0.00  0.00    +0.000 C 
ENDBRANCH  10  11
ENDBRANCH   9  10
ENDBRANCH   8   9
ENDBRANCH   5   8
ENDBRANCH   1   2
BRANCH   1  19
ATOM     17  C   UNL     1      46.706   9.266  12.399  0.00  0.00    +0.000 C 
ATOM     18  O   UNL     1      46.288   9.149  13.549  0.00  0.00    +0.000 OA
ATOM     19  N   UNL     1      45.881   9.064  11.328  0.00  0.00    +0.000 N 
ATOM     20  H   UNL     1      46.222   9.186  10.383  0.00  0.00    +0.000 HD
BRANCH  17  28
ATOM     21  C   UNL     1      49.751   8.059  13.508  0.00  0.00    +0.000 A 
ATOM     22  N   UNL     1      51.052   7.818  13.777  0.00  0.00    +0.000 NA
ATOM     23  C   UNL     1      51.973   8.583  13.186  0.00  0.00    +0.000 A 
ATOM     24  N   UNL     1      51.755   9.581  12.338  0.00  0.00    +0.000 NA
ATOM     25  C   UNL     1      50.451   9.792  12.097  0.00  0.00    +0.000 A 
ATOM     26  S   UNL     1      49.995  11.033  11.032  0.00  0.00    +0.000 S 
ATOM     27  C   UNL     1      48.349  10.683  11.257  0.00  0.00    +0.000 A 
ATOM     28  C   UNL     1      48.107   9.630  12.132  0.00  0.00    +0.000 A 
ATOM     29  C   UNL     1      49.371   9.091  12.632  0.00  0.00    +0.000 A 
BRANCH  21  31
ATOM     30  C   UNL     1      48.725   7.425  15.523  0.00  0.00    +0.000 C 
ATOM     31  O   UNL     1      48.800   7.256  14.109  0.00  0.00    +0.000 OA
ENDBRANCH  21  31
ENDBRANCH  17  28
ENDBRANCH   1  19
TORSDOF 8
ENDMDL
MODEL 8
REMARK VINA RESULT:    -5.612      3.029      3.864
REMARK INTER + INTRA:          -9.483
REMARK INTER:                  -8.255
REMARK INTRA:                  -1.228
REMARK UNBOUND:                -1.246
REMARK  Name = 
REMARK  9 active torsions:
REMARK  status: ('A' for Active; 'I' for Inactive)
REMARK    1  A    between atoms: C_1  and  O_2
REMARK    2  A    between atoms: O_2  and  C_3
REMARK    3  A    between atoms: C_10  and  C_11
REMARK    4  A    between atoms: N_13  and  C_14
REMARK    5  A    between atoms: C_14  and  C_15
REMARK    6  A    between atoms: C_18  and  C_19
REMARK    7  A    between atoms: C_19  and  C_20
REMARK    8  A    between atoms: C_20  and  C_21
REMARK    9  A    between atoms: C_21  and  N_22
REMARK                            x       y       z     vdW  Elec       q    Type
REMARK                         _______ _______ _______ _____ _____    ______ ____
ROOT
ATOM      1  C   UNL     1      49.588   8.840  12.658  0.00  0.00    +0.000 C 
ENDROOT
BRANCH   1   2
ATOM      2  C   UNL     1      48.246   8.158  12.683  0.00  0.00    +0.000 A 
ATOM      3  C   UNL     1      48.147   6.769  12.527  0.00  0.00    +0.000 A 
ATOM      4  C   UNL     1      46.898   6.143  12.494  0.00  0.00    +0.000 A 
ATOM      5  C   UNL     1      45.724   6.898  12.601  0.00  0.00    +0.000 A 
ATOM      6  C   UNL     1      45.824   8.286  12.764  0.00  0.00    +0.000 A 
ATOM      7  C   UNL     1      47.071   8.910  12.803  0.00  0.00    +0.000 A 
BRANCH   5   8
ATOM      8  C   UNL     1      44.370   6.238  12.543  0.00  0.00    +0.000 C 
BRANCH   8   9
ATOM      9  C   UNL     1      44.401   4.790  12.037  0.00  0.00    +0.000 C 
BRANCH   9  10
ATOM     10  C   UNL     1      43.400   4.469  10.912  0.00  0.00    +0.000 C 
BRANCH  10  11
ATOM     11  N   UNL     1      43.994   3.828   9.722  0.00  0.00    +0.000 NA
ATOM     12  C   UNL     1      45.172   4.564   9.239  0.00  0.00    +0.000 C 
ATOM     13  C   UNL     1      45.774   3.912   7.994  0.00  0.00    +0.000 C 
ATOM     14  C   UNL     1      46.132   2.456   8.253  0.00  0.00    +0.000 C 
ATOM     15  C   UNL     1      44.926   1.710   8.808  0.00  0.00    +0.000 C 
ATOM     16  C   UNL     1      44.342   2.428  10.029  0.00  0.00    +0.000 C 
ENDBRANCH  10  11
ENDBRANCH   9  10
ENDBRANCH   8   9
ENDBRANCH   5   8
ENDBRANCH   1   2
BRANCH   1  19
ATOM     17  C   UNL     1      51.603   8.670  14.041  0.00  0.00    +0.000 C 
ATOM     18  O   UNL     1      51.720   9.894  14.044  0.00  0.00    +0.000 OA
ATOM     19  N   UNL     1      50.575   8.066  13.372  0.00  0.00    +0.000 N 
ATOM     20  H   UNL     1      50.496   7.056  13.351  0.00  0.00    +0.000 HD
BRANCH  17  28
ATOM     21  C   UNL     1      51.396   6.645  16.837  0.00  0.00    +0.000 A 
ATOM     22  N   UNL     1      51.613   5.818  17.880  0.00  0.00    +0.000 NA
ATOM     23  C   UNL     1      52.838   5.311  18.042  0.00  0.00    +0.000 A 
ATOM     24  N   UNL     1      53.899   5.529  17.275  0.00  0.00    +0.000 NA
ATOM     25  C   UNL     1      53.645   6.359  16.250  0.00  0.00    +0.000 A 
ATOM     26  S   UNL     1      54.894   6.746  15.167  0.00  0.00    +0.000 S 
ATOM     27  C   UNL     1      53.863   7.747  14.264  0.00  0.00    +0.000 A 
ATOM     28  C   UNL     1      52.563   7.812  14.753  0.00  0.00    +0.000 A 
ATOM     29  C   UNL     1      52.431   6.973  15.943  0.00  0.00    +0.000 A 
BRANCH  21  31
ATOM     30  C   UNL     1      49.211   6.225  16.086  0.00  0.00    +0.000 C 
ATOM     31  O   UNL     1      50.124   7.157  16.662  0.00  0.00    +0.000 OA
ENDBRANCH  21  31
ENDBRANCH  17  28
ENDBRANCH   1  19
TORSDOF 8
ENDMDL
MODEL 9
REMARK VINA RESULT:    -5.305      3.403      4.298
REMARK INTER + INTRA:          -9.032
REMARK INTER:                  -8.046
REMARK INTRA:                  -0.986
REMARK UNBOUND:                -1.246
REMARK  Name = 
REMARK  9 active torsions:
REMARK  status: ('A' for Active; 'I' for Inactive)
REMARK    1  A    between atoms: C_1  and  O_2
REMARK    2  A    between atoms: O_2  and  C_3
REMARK    3  A    between atoms: C_10  and  C_11
REMARK    4  A    between atoms: N_13  and  C_14
REMARK    5  A    between atoms: C_14  and  C_15
REMARK    6  A    between atoms: C_18  and  C_19
REMARK    7  A    between atoms: C_19  and  C_20
REMARK    8  A    between atoms: C_20  and  C_21
REMARK    9  A    between atoms: C_21  and  N_22
REMARK                            x       y       z     vdW  Elec       q    Type
REMARK                         _______ _______ _______ _____ _____    ______ ____
ROOT
ATOM      1  C   UNL     1      50.487   8.211  13.673  0.00  0.00    +0.000 C 
ENDROOT
BRANCH   1   2
ATOM      2  C   UNL     1      49.096   7.880  13.202  0.00  0.00    +0.000 A 
ATOM      3  C   UNL     1      48.622   6.562  13.244  0.00  0.00    +0.000 A 
ATOM      4  C   UNL     1      47.352   6.246  12.754  0.00  0.00    +0.000 A 
ATOM      5  C   UNL     1      46.539   7.241  12.198  0.00  0.00    +0.000 A 
ATOM      6  C   UNL     1      47.011   8.560  12.162  0.00  0.00    +0.000 A 
ATOM      7  C   UNL     1      48.277   8.876  12.657  0.00  0.00    +0.000 A 
BRANCH   5   8
ATOM      8  C   UNL     1      45.177   6.910  11.645  0.00  0.00    +0.000 C 
BRANCH   8   9
ATOM      9  C   UNL     1      44.883   5.406  11.564  0.00  0.00    +0.000 C 
BRANCH   9  10
ATOM     10  C   UNL     1      43.749   5.013  10.600  0.00  0.00    +0.000 C 
BRANCH  10  11
ATOM     11  N   UNL     1      44.146   4.075   9.531  0.00  0.00    +0.000 NA
ATOM     12  C   UNL     1      45.349   4.536   8.822  0.00  0.00    +0.000 C 
ATOM     13  C   UNL     1      45.747   3.576   7.701  0.00  0.00    +0.000 C 
ATOM     14  C   UNL     1      45.957   2.166   8.232  0.00  0.00    +0.000 C 
ATOM     15  C   UNL     1      44.732   1.713   9.015  0.00  0.00    +0.000 C 
ATOM     16  C   UNL     1      44.357   2.730  10.098  0.00  0.00    +0.000 C 
ENDBRANCH  10  11
ENDBRANCH   9  10
ENDBRANCH   8   9
ENDBRANCH   5   8
ENDBRANCH   1   2
BRANCH   1  19
ATOM     17  C   UNL     1      51.770   7.744  15.707  0.00  0.00    +0.000 C 
ATOM     18  O   UNL     1      52.245   8.879  15.684  0.00  0.00    +0.000 OA
ATOM     19  N   UNL     1      50.894   7.331  14.742  0.00  0.00    +0.000 N 
ATOM     20  H   UNL     1      50.525   6.388  14.751  0.00  0.00    +0.000 HD
BRANCH  17  28
ATOM     21  C   UNL     1      54.474   5.657  16.248  0.00  0.00    +0.000 A 
ATOM     22  N   UNL     1      55.367   4.751  16.700  0.00  0.00    +0.000 NA
ATOM     23  C   UNL     1      55.099   4.113  17.841  0.00  0.00    +0.000 A 
ATOM     24  N   UNL     1      54.027   4.268  18.608  0.00  0.00    +0.000 NA
ATOM     25  C   UNL     1      53.161   5.174  18.125  0.00  0.00    +0.000 A 
ATOM     26  S   UNL     1      51.733   5.497  18.986  0.00  0.00    +0.000 S 
ATOM     27  C   UNL     1      51.236   6.630  17.824  0.00  0.00    +0.000 A 
ATOM     28  C   UNL     1      52.128   6.791  16.770  0.00  0.00    +0.000 A 
ATOM     29  C   UNL     1      53.287   5.921  16.955  0.00  0.00    +0.000 A 
BRANCH  21  31
ATOM     30  C   UNL     1      55.627   7.446  15.256  0.00  0.00    +0.000 C 
ATOM     31  O   UNL     1      54.761   6.328  15.075  0.00  0.00    +0.000 OA
ENDBRANCH  21  31
ENDBRANCH  17  28
ENDBRANCH   1  19
TORSDOF 8
ENDMDL
