MODEL 1
REMARK VINA RESULT:    -5.570      0.000      0.000
REMARK INTER + INTRA:          -7.014
REMARK INTER:                  -6.709
REMARK INTRA:                  -0.305
REMARK UNBOUND:                -0.305
REMARK  Name = 
REMARK  4 active torsions:
REMARK  status: ('A' for Active; 'I' for Inactive)
REMARK    1  A    between atoms: N_1  and  C_2
REMARK    2  A    between atoms: C_2  and  C_3
REMARK    3  A    between atoms: C_6  and  C_7
REMARK    4  A    between atoms: C_8  and  C_9
REMARK                            x       y       z     vdW  Elec       q    Type
REMARK                         _______ _______ _______ _____ _____    ______ ____
ROOT
ATOM      1  C   UNL     1      44.964   4.254  10.013  0.00  0.00    +0.000 A 
ATOM      2  C   UNL     1      45.501   5.484  10.417  0.00  0.00    +0.000 A 
ATOM      3  C   UNL     1      45.922   5.683  11.736  0.00  0.00    +0.000 A 
ATOM      4  C   UNL     1      45.801   4.662  12.683  0.00  0.00    +0.000 A 
ATOM      5  C   UNL     1      45.260   3.435  12.281  0.00  0.00    +0.000 A 
ATOM      6  C   UNL     1      44.840   3.232  10.961  0.00  0.00    +0.000 A 
ENDROOT
BRANCH   4   7
ATOM      7  C   UNL     1      46.298   4.790  14.062  0.00  0.00    +0.000 C 
ATOM      8  C   UNL     1      47.190   3.972  14.644  0.00  0.00    +0.000 C 
BRANCH   8   9
ATOM      9  C   UNL     1      47.657   4.129  16.028  0.00  0.00    +0.000 A 
ATOM     10  C   UNL     1      47.620   3.095  16.970  0.00  0.00    +0.000 A 
ATOM     11  C   UNL     1      48.097   3.307  18.261  0.00  0.00    +0.000 A 
ATOM     12  C   UNL     1      48.619   4.548  18.573  0.00  0.00    +0.000 A 
ATOM     13  N   UNL     1      48.699   5.569  17.694  0.00  0.00    +0.000 NA
ATOM     14  C   UNL     1      48.220   5.333  16.446  0.00  0.00    +0.000 A 
ENDBRANCH   8   9
ENDBRANCH   4   7
BRANCH   1  15
ATOM     15  C   UNL     1      44.536   4.039   8.584  0.00  0.00    +0.000 C 
BRANCH  15  16
ATOM     16  N   UNL     1      45.680   4.032   7.680  0.00  0.00    +0.000 NA
ATOM     17  H   UNL     1      45.965   3.072   7.507  0.00  0.00    +0.000 HD
ATOM     18  H   UNL     1      46.465   4.489   8.143  0.00  0.00    +0.000 HD
ENDBRANCH  15  16
ENDBRANCH   1  15
TORSDOF 4
ENDMDL
MODEL 2
REMARK VINA RESULT:    -5.227      1.302      7.535
REMARK INTER + INTRA:          -6.602
REMARK INTER:                  -6.262
REMARK INTRA:                  -0.340
REMARK UNBOUND:                -0.305
REMARK  Name = 
REMARK  4 active torsions:
REMARK  status: ('A' for Active; 'I' for Inactive)
REMARK    1  A    between atoms: N_1  and  C_2
REMARK    2  A    between atoms: C_2  and  C_3
REMARK    3  A    between atoms: C_6  and  C_7
REMARK    4  A    between atoms: C_8  and  C_9
REMARK                            x       y       z     vdW  Elec       q    Type
REMARK                         _______ _______ _______ _____ _____    ______ ____
ROOT
ATOM      1  C   UNL     1      48.564   4.573  18.577  0.00  0.00    +0.000 A 
ATOM      2  C   UNL     1      48.631   5.595  17.622  0.00  0.00    +0.000 A 
ATOM      3  C   UNL     1      48.135   5.402  16.329  0.00  0.00    +0.000 A 
ATOM      4  C   UNL     1      47.574   4.176  15.959  0.00  0.00    +0.000 A 
ATOM      5  C   UNL     1      47.511   3.152  16.912  0.00  0.00    +0.000 A 
ATOM      6  C   UNL     1      48.005   3.344  18.207  0.00  0.00    +0.000 A 
ENDROOT
BRANCH   4   7
ATOM      7  C   UNL     1      46.967   3.943  14.639  0.00  0.00    +0.000 C 
ATOM      8  C   UNL     1      46.439   4.893  13.849  0.00  0.00    +0.000 C 
BRANCH   8   9
ATOM      9  C   UNL     1      45.835   4.618  12.538  0.00  0.00    +0.000 A 
ATOM     10  C   UNL     1      45.291   3.377  12.191  0.00  0.00    +0.000 A 
ATOM     11  C   UNL     1      44.715   3.191  10.937  0.00  0.00    +0.000 A 
ATOM     12  C   UNL     1      44.682   4.262  10.064  0.00  0.00    +0.000 A 
ATOM     13  N   UNL     1      45.173   5.485  10.360  0.00  0.00    +0.000 NA
ATOM     14  C   UNL     1      45.732   5.631  11.588  0.00  0.00    +0.000 A 
ENDBRANCH   8   9
ENDBRANCH   4   7
BRANCH   1  15
ATOM     15  C   UNL     1      49.079   4.797  19.976  0.00  0.00    +0.000 C 
BRANCH  15  16
ATOM     16  N   UNL     1      48.437   3.899  20.930  0.00  0.00    +0.000 NA
ATOM     17  H   UNL     1      49.136   3.544  21.578  0.00  0.00    +0.000 HD
ATOM     18  H   UNL     1      48.073   3.092  20.425  0.00  0.00    +0.000 HD
ENDBRANCH  15  16
ENDBRANCH   1  15
TORSDOF 4
ENDMDL
MODEL 3
REMARK VINA RESULT:    -4.958      4.162      5.567
REMARK INTER + INTRA:          -6.277
REMARK INTER:                  -5.958
REMARK INTRA:                  -0.320
REMARK UNBOUND:                -0.305
REMARK  Name = 
REMARK  4 active torsions:
REMARK  status: ('A' for Active; 'I' for Inactive)
REMARK    1  A    between atoms: N_1  and  C_2
REMARK    2  A    between atoms: C_2  and  C_3
REMARK    3  A    between atoms: C_6  and  C_7
REMARK    4  A    between atoms: C_8  and  C_9
REMARK                            x       y       z     vdW  Elec       q    Type
REMARK                         _______ _______ _______ _____ _____    ______ ____
ROOT
ATOM      1  C   UNL     1      44.541   4.139  11.572  0.00  0.00    +0.000 A 
ATOM      2  C   UNL     1      45.152   4.284  12.825  0.00  0.00    +0.000 A 
ATOM      3  C   UNL     1      46.092   5.293  13.050  0.00  0.00    +0.000 A 
ATOM      4  C   UNL     1      46.454   6.171  12.024  0.00  0.00    +0.000 A 
ATOM      5  C   UNL     1      45.847   6.023  10.770  0.00  0.00    +0.000 A 
ATOM      6  C   UNL     1      44.904   5.015  10.543  0.00  0.00    +0.000 A 
ENDROOT
BRANCH   4   7
ATOM      7  C   UNL     1      47.378   7.297  12.226  0.00  0.00    +0.000 C 
ATOM      8  C   UNL     1      48.488   7.528  11.505  0.00  0.00    +0.000 C 
BRANCH   8   9
ATOM      9  C   UNL     1      49.392   8.663  11.743  0.00  0.00    +0.000 A 
ATOM     10  C   UNL     1      49.089   9.975  11.363  0.00  0.00    +0.000 A 
ATOM     11  C   UNL     1      49.983  11.007  11.636  0.00  0.00    +0.000 A 
ATOM     12  C   UNL     1      51.155  10.701  12.303  0.00  0.00    +0.000 A 
ATOM     13  N   UNL     1      51.482   9.457  12.711  0.00  0.00    +0.000 NA
ATOM     14  C   UNL     1      50.592   8.473  12.424  0.00  0.00    +0.000 A 
ENDBRANCH   8   9
ENDBRANCH   4   7
BRANCH   1  15
ATOM     15  C   UNL     1      43.509   3.063  11.343  0.00  0.00    +0.000 C 
BRANCH  15  16
ATOM     16  N   UNL     1      43.512   2.084  12.425  0.00  0.00    +0.000 NA
ATOM     17  H   UNL     1      43.193   1.188  12.066  0.00  0.00    +0.000 HD
ATOM     18  H   UNL     1      42.835   2.374  13.129  0.00  0.00    +0.000 HD
ENDBRANCH  15  16
ENDBRANCH   1  15
TORSDOF 4
ENDMDL
MODEL 4
REMARK VINA RESULT:    -4.871      4.188      5.353
REMARK INTER + INTRA:          -6.173
REMARK INTER:                  -5.866
REMARK INTRA:                  -0.307
REMARK UNBOUND:                -0.305
REMARK  Name = 
REMARK  4 active torsions:
REMARK  status: ('A' for Active; 'I' for Inactive)
REMARK    1  A    between atoms: N_1  and  C_2
REMARK    2  A    between atoms: C_2  and  C_3
REMARK    3  A    between atoms: C_6  and  C_7
REMARK    4  A    between atoms: C_8  and  C_9
REMARK                            x       y       z     vdW  Elec       q    Type
REMARK                         _______ _______ _______ _____ _____    ______ ____
ROOT
ATOM      1  C   UNL     1      44.498   4.179  11.631  0.00  0.00    +0.000 A 
ATOM      2  C   UNL     1      44.854   5.069  10.608  0.00  0.00    +0.000 A 
ATOM      3  C   UNL     1      45.803   6.072  10.829  0.00  0.00    +0.000 A 
ATOM      4  C   UNL     1      46.405   6.218  12.083  0.00  0.00    +0.000 A 
ATOM      5  C   UNL     1      46.045   5.333  13.107  0.00  0.00    +0.000 A 
ATOM      6  C   UNL     1      45.098   4.326  12.887  0.00  0.00    +0.000 A 
ENDROOT
BRANCH   4   7
ATOM      7  C   UNL     1      47.463   7.205  12.350  0.00  0.00    +0.000 C 
ATOM      8  C   UNL     1      48.499   7.468  11.537  0.00  0.00    +0.000 C 
BRANCH   8   9
ATOM      9  C   UNL     1      49.542   8.458  11.843  0.00  0.00    +0.000 A 
ATOM     10  C   UNL     1      50.834   8.398  11.310  0.00  0.00    +0.000 A 
ATOM     11  C   UNL     1      51.768   9.380  11.625  0.00  0.00    +0.000 A 
ATOM     12  C   UNL     1      51.379  10.415  12.456  0.00  0.00    +0.000 A 
ATOM     13  N   UNL     1      50.139  10.530  12.977  0.00  0.00    +0.000 NA
ATOM     14  C   UNL     1      49.254   9.553  12.654  0.00  0.00    +0.000 A 
ENDBRANCH   8   9
ENDBRANCH   4   7
BRANCH   1  15
ATOM     15  C   UNL     1      43.494   3.085  11.377  0.00  0.00    +0.000 C 
BRANCH  15  16
ATOM     16  N   UNL     1      43.521   2.081  12.436  0.00  0.00    +0.000 NA
ATOM     17  H   UNL     1      43.684   2.540  13.329  0.00  0.00    +0.000 HD
ATOM     18  H   UNL     1      44.314   1.461  12.278  0.00  0.00    +0.000 HD
ENDBRANCH  15  16
ENDBRANCH   1  15
TORSDOF 4
ENDMDL
MODEL 5
REMARK VINA RESULT:    -4.742      4.188      6.715
REMARK INTER + INTRA:          -6.017
REMARK INTER:                  -5.718
REMARK INTRA:                  -0.299
REMARK UNBOUND:                -0.305
REMARK  Name = 
REMARK  4 active torsions:
REMARK  status: ('A' for Active; 'I' for Inactive)
REMARK    1  A    between atoms: N_1  and  C_2
REMARK    2  A    between atoms: C_2  and  C_3
REMARK    3  A    between atoms: C_6  and  C_7
REMARK    4  A    between atoms: C_8  and  C_9
REMARK                            x       y       z     vdW  Elec       q    Type
REMARK                         _______ _______ _______ _____ _____    ______ ____
ROOT
ATOM      1  C   UNL     1      49.371  10.114  11.744  0.00  0.00    +0.000 A 
ATOM      2  C   UNL     1      48.020  10.377  12.005  0.00  0.00    +0.000 A 
ATOM      3  C   UNL     1      47.101   9.332  12.146  0.00  0.00    +0.000 A 
ATOM      4  C   UNL     1      47.511   8.002  12.012  0.00  0.00    +0.000 A 
ATOM      5  C   UNL     1      48.860   7.739  11.745  0.00  0.00    +0.000 A 
ATOM      6  C   UNL     1      49.782   8.783  11.607  0.00  0.00    +0.000 A 
ENDROOT
BRANCH   4   7
ATOM      7  C   UNL     1      46.605   6.863  12.226  0.00  0.00    +0.000 C 
ATOM      8  C   UNL     1      46.094   6.086  11.257  0.00  0.00    +0.000 C 
BRANCH   8   9
ATOM      9  C   UNL     1      45.184   4.960  11.510  0.00  0.00    +0.000 A 
ATOM     10  C   UNL     1      44.677   4.143  10.494  0.00  0.00    +0.000 A 
ATOM     11  C   UNL     1      43.834   3.079  10.806  0.00  0.00    +0.000 A 
ATOM     12  C   UNL     1      43.534   2.848  12.136  0.00  0.00    +0.000 A 
ATOM     13  N   UNL     1      44.016   3.592  13.153  0.00  0.00    +0.000 NA
ATOM     14  C   UNL     1      44.830   4.624  12.814  0.00  0.00    +0.000 A 
ENDBRANCH   8   9
ENDBRANCH   4   7
BRANCH   1  15
ATOM     15  C   UNL     1      50.360  11.244  11.618  0.00  0.00    +0.000 C 
BRANCH  15  16
ATOM     16  N   UNL     1      51.713  10.808  11.947  0.00  0.00    +0.000 NA
ATOM     17  H   UNL     1      51.695   9.824  12.202  0.00  0.00    +0.000 HD
ATOM     18  H   UNL     1      52.028  11.317  12.773  0.00  0.00    +0.000 HD
ENDBRANCH  15  16
ENDBRANCH   1  15
TORSDOF 4
ENDMDL
MODEL 6
REMARK VINA RESULT:    -4.661      4.902      6.070
REMARK INTER + INTRA:          -5.919
REMARK INTER:                  -5.595
REMARK INTRA:                  -0.325
REMARK UNBOUND:                -0.305
REMARK  Name = 
REMARK  4 active torsions:
REMARK  status: ('A' for Active; 'I' for Inactive)
REMARK    1  A    between atoms: N_1  and  C_2
REMARK    2  A    between atoms: C_2  and  C_3
REMARK    3  A    between atoms: C_6  and  C_7
REMARK    4  A    between atoms: C_8  and  C_9
REMARK                            x       y       z     vdW  Elec       q    Type
REMARK                         _______ _______ _______ _____ _____    ______ ____
ROOT
ATOM      1  C   UNL     1      44.920   5.161  12.590  0.00  0.00    +0.000 A 
ATOM      2  C   UNL     1      45.828   4.904  13.626  0.00  0.00    +0.000 A 
ATOM      3  C   UNL     1      47.108   5.466  13.613  0.00  0.00    +0.000 A 
ATOM      4  C   UNL     1      47.514   6.287  12.556  0.00  0.00    +0.000 A 
ATOM      5  C   UNL     1      46.608   6.540  11.518  0.00  0.00    +0.000 A 
ATOM      6  C   UNL     1      45.326   5.979  11.530  0.00  0.00    +0.000 A 
ENDROOT
BRANCH   4   7
ATOM      7  C   UNL     1      48.818   6.967  12.529  0.00  0.00    +0.000 C 
ATOM      8  C   UNL     1      49.277   7.723  11.518  0.00  0.00    +0.000 C 
BRANCH   8   9
ATOM      9  C   UNL     1      50.591   8.381  11.525  0.00  0.00    +0.000 A 
ATOM     10  C   UNL     1      50.873   9.518  12.291  0.00  0.00    +0.000 A 
ATOM     11  C   UNL     1      52.147  10.080  12.266  0.00  0.00    +0.000 A 
ATOM     12  C   UNL     1      53.116   9.477  11.486  0.00  0.00    +0.000 A 
ATOM     13  N   UNL     1      52.900   8.367  10.749  0.00  0.00    +0.000 NA
ATOM     14  C   UNL     1      51.647   7.847  10.790  0.00  0.00    +0.000 A 
ENDBRANCH   8   9
ENDBRANCH   4   7
BRANCH   1  15
ATOM     15  C   UNL     1      43.534   4.570  12.623  0.00  0.00    +0.000 C 
BRANCH  15  16
ATOM     16  N   UNL     1      42.621   5.398  13.404  0.00  0.00    +0.000 NA
ATOM     17  H   UNL     1      42.307   4.875  14.217  0.00  0.00    +0.000 HD
ATOM     18  H   UNL     1      41.791   5.587  12.842  0.00  0.00    +0.000 HD
ENDBRANCH  15  16
ENDBRANCH   1  15
TORSDOF 4
ENDMDL
MODEL 7
REMARK VINA RESULT:    -4.426      4.036      6.929
REMARK INTER + INTRA:          -5.637
REMARK INTER:                  -5.302
REMARK INTRA:                  -0.334
REMARK UNBOUND:                -0.305
REMARK  Name = 
REMARK  4 active torsions:
REMARK  status: ('A' for Active; 'I' for Inactive)
REMARK    1  A    between atoms: N_1  and  C_2
REMARK    2  A    between atoms: C_2  and  C_3
REMARK    3  A    between atoms: C_6  and  C_7
REMARK    4  A    between atoms: C_8  and  C_9
REMARK                            x       y       z     vdW  Elec       q    Type
REMARK                         _______ _______ _______ _____ _____    ______ ____
ROOT
ATOM      1  C   UNL     1      51.135   8.480  12.915  0.00  0.00    +0.000 A 
ATOM      2  C   UNL     1      50.246   8.264  13.976  0.00  0.00    +0.000 A 
ATOM      3  C   UNL     1      48.958   7.771  13.742  0.00  0.00    +0.000 A 
ATOM      4  C   UNL     1      48.527   7.497  12.441  0.00  0.00    +0.000 A 
ATOM      5  C   UNL     1      49.414   7.717  11.380  0.00  0.00    +0.000 A 
ATOM      6  C   UNL     1      50.704   8.208  11.612  0.00  0.00    +0.000 A 
ENDROOT
BRANCH   4   7
ATOM      7  C   UNL     1      47.213   6.905  12.144  0.00  0.00    +0.000 C 
ATOM      8  C   UNL     1      46.775   5.721  12.602  0.00  0.00    +0.000 C 
BRANCH   8   9
ATOM      9  C   UNL     1      45.457   5.159  12.277  0.00  0.00    +0.000 A 
ATOM     10  C   UNL     1      44.639   5.665  11.261  0.00  0.00    +0.000 A 
ATOM     11  C   UNL     1      43.408   5.072  10.992  0.00  0.00    +0.000 A 
ATOM     12  C   UNL     1      43.033   3.971  11.739  0.00  0.00    +0.000 A 
ATOM     13  N   UNL     1      43.795   3.431  12.713  0.00  0.00    +0.000 NA
ATOM     14  C   UNL     1      44.987   4.036  12.954  0.00  0.00    +0.000 A 
ENDBRANCH   8   9
ENDBRANCH   4   7
BRANCH   1  15
ATOM     15  C   UNL     1      52.530   8.988  13.177  0.00  0.00    +0.000 C 
BRANCH  15  16
ATOM     16  N   UNL     1      53.535   7.985  12.840  0.00  0.00    +0.000 NA
ATOM     17  H   UNL     1      53.986   7.663  13.692  0.00  0.00    +0.000 HD
ATOM     18  H   UNL     1      54.261   8.427  12.276  0.00  0.00    +0.000 HD
ENDBRANCH  15  16
ENDBRANCH   1  15
TORSDOF 4
ENDMDL
MODEL 8
REMARK VINA RESULT:    -4.380      2.635      3.366
REMARK INTER + INTRA:          -5.582
REMARK INTER:                  -5.286
REMARK INTRA:                  -0.296
REMARK UNBOUND:                -0.305
REMARK  Name = 
REMARK  4 active torsions:
REMARK  status: ('A' for Active; 'I' for Inactive)
REMARK    1  A    between atoms: N_1  and  C_2
REMARK    2  A    between atoms: C_2  and  C_3
REMARK    3  A    between atoms: C_6  and  C_7
REMARK    4  A    between atoms: C_8  and  C_9
REMARK                            x       y       z     vdW  Elec       q    Type
REMARK                         _______ _______ _______ _____ _____    ______ ____
ROOT
ATOM      1  C   UNL     1      44.952   3.887  10.783  0.00  0.00    +0.000 A 
ATOM      2  C   UNL     1      45.280   3.542  12.101  0.00  0.00    +0.000 A 
ATOM      3  C   UNL     1      45.950   4.445  12.932  0.00  0.00    +0.000 A 
ATOM      4  C   UNL     1      46.319   5.708  12.458  0.00  0.00    +0.000 A 
ATOM      5  C   UNL     1      45.996   6.051  11.139  0.00  0.00    +0.000 A 
ATOM      6  C   UNL     1      45.324   5.149  10.307  0.00  0.00    +0.000 A 
ENDROOT
BRANCH   4   7
ATOM      7  C   UNL     1      46.955   6.725  13.310  0.00  0.00    +0.000 C 
ATOM      8  C   UNL     1      48.005   6.511  14.121  0.00  0.00    +0.000 C 
BRANCH   8   9
ATOM      9  C   UNL     1      48.609   7.552  14.964  0.00  0.00    +0.000 A 
ATOM     10  C   UNL     1      49.489   7.271  16.014  0.00  0.00    +0.000 A 
ATOM     11  C   UNL     1      50.041   8.308  16.762  0.00  0.00    +0.000 A 
ATOM     12  C   UNL     1      49.711   9.608  16.425  0.00  0.00    +0.000 A 
ATOM     13  N   UNL     1      48.886   9.932  15.407  0.00  0.00    +0.000 NA
ATOM     14  C   UNL     1      48.360   8.897  14.702  0.00  0.00    +0.000 A 
ENDBRANCH   8   9
ENDBRANCH   4   7
BRANCH   1  15
ATOM     15  C   UNL     1      44.208   2.917   9.901  0.00  0.00    +0.000 C 
BRANCH  15  16
ATOM     16  N   UNL     1      44.298   3.297   8.495  0.00  0.00    +0.000 NA
ATOM     17  H   UNL     1      45.159   2.925   8.102  0.00  0.00    +0.000 HD
ATOM     18  H   UNL     1      44.367   4.313   8.436  0.00  0.00    +0.000 HD
ENDBRANCH  15  16
ENDBRANCH   1  15
TORSDOF 4
ENDMDL
MODEL 9
REMARK VINA RESULT:    -4.056      9.843     11.986
REMARK INTER + INTRA:          -5.191
REMARK INTER:                  -4.850
REMARK INTRA:                  -0.342
REMARK UNBOUND:                -0.305
REMARK  Name = 
REMARK  4 active torsions:
REMARK  status: ('A' for Active; 'I' for Inactive)
REMARK    1  A    between atoms: N_1  and  C_2
REMARK    2  A    between atoms: C_2  and  C_3
REMARK    3  A    between atoms: C_6  and  C_7
REMARK    4  A    between atoms: C_8  and  C_9
REMARK                            x       y       z     vdW  Elec       q    Type
REMARK                         _______ _______ _______ _____ _____    ______ ____
ROOT
ATOM      1  C   UNL     1      46.017  -6.887  17.837  0.00  0.00    +0.000 A 
ATOM      2  C   UNL     1      44.876  -7.227  17.098  0.00  0.00    +0.000 A 
ATOM      3  C   UNL     1      43.766  -6.377  17.062  0.00  0.00    +0.000 A 
ATOM      4  C   UNL     1      43.768  -5.175  17.776  0.00  0.00    +0.000 A 
ATOM      5  C   UNL     1      44.906  -4.837  18.519  0.00  0.00    +0.000 A 
ATOM      6  C   UNL     1      46.018  -5.686  18.555  0.00  0.00    +0.000 A 
ENDROOT
BRANCH   4   7
ATOM      7  C   UNL     1      42.661  -4.208  17.712  0.00  0.00    +0.000 C 
ATOM      8  C   UNL     1      42.037  -3.817  16.588  0.00  0.00    +0.000 C 
BRANCH   8   9
ATOM      9  C   UNL     1      40.938  -2.841  16.565  0.00  0.00    +0.000 A 
ATOM     10  C   UNL     1      40.401  -2.266  17.721  0.00  0.00    +0.000 A 
ATOM     11  C   UNL     1      39.372  -1.332  17.625  0.00  0.00    +0.000 A 
ATOM     12  C   UNL     1      38.918  -0.982  16.367  0.00  0.00    +0.000 A 
ATOM     13  N   UNL     1      39.419  -1.491  15.222  0.00  0.00    +0.000 NA
ATOM     14  C   UNL     1      40.416  -2.403  15.350  0.00  0.00    +0.000 A 
ENDBRANCH   8   9
ENDBRANCH   4   7
BRANCH   1  15
ATOM     15  C   UNL     1      47.219  -7.797  17.851  0.00  0.00    +0.000 C 
BRANCH  15  16
ATOM     16  N   UNL     1      48.288  -7.255  18.683  0.00  0.00    +0.000 NA
ATOM     17  H   UNL     1      49.127  -7.144  18.119  0.00  0.00    +0.000 HD
ATOM     18  H   UNL     1      48.513  -7.934  19.409  0.00  0.00    +0.000 HD
ENDBRANCH  15  16
ENDBRANCH   1  15
TORSDOF 4
ENDMDL
