MODEL 1
REMARK VINA RESULT:    -7.245      0.000      0.000
REMARK INTER + INTRA:         -11.422
REMARK INTER:                 -10.209
REMARK INTRA:                  -1.213
REMARK UNBOUND:                -1.213
REMARK  Name = 
REMARK  8 active torsions:
REMARK  status: ('A' for Active; 'I' for Inactive)
REMARK    1  A    between atoms: C_1  and  O_2
REMARK    2  A    between atoms: O_2  and  C_3
REMARK    3  A    between atoms: C_8  and  C_9
REMARK    4  A    between atoms: N_11  and  C_12
REMARK    5  A    between atoms: C_12  and  C_13
REMARK    6  A    between atoms: C_16  and  C_17
REMARK    7  A    between atoms: C_17  and  N_18
REMARK    8  A    between atoms: C_19  and  C_21
REMARK                            x       y       z     vdW  Elec       q    Type
REMARK                         _______ _______ _______ _____ _____    ______ ____
ROOT
ATOM      1  C   UNL     1      50.079   7.468  15.354  0.00  0.00    +0.000 A 
ATOM      2  C   UNL     1      48.927   6.673  15.282  0.00  0.00    +0.000 A 
ATOM      3  C   UNL     1      48.049   6.782  14.197  0.00  0.00    +0.000 A 
ATOM      4  C   UNL     1      48.317   7.677  13.152  0.00  0.00    +0.000 A 
ATOM      5  C   UNL     1      49.460   8.484  13.233  0.00  0.00    +0.000 A 
ATOM      6  C   UNL     1      50.337   8.373  14.316  0.00  0.00    +0.000 A 
ENDROOT
BRANCH   1   7
ATOM      7  C   UNL     1      51.042   7.328  16.504  0.00  0.00    +0.000 C 
BRANCH   7  10
ATOM      8  C   UNL     1      51.071   5.169  17.686  0.00  0.00    +0.000 C 
ATOM      9  O   UNL     1      50.325   5.593  18.567  0.00  0.00    +0.000 OA
ATOM     10  N   UNL     1      51.494   5.967  16.651  0.00  0.00    +0.000 N 
ATOM     11  H   UNL     1      52.109   5.569  15.948  0.00  0.00    +0.000 HD
BRANCH   8  17
ATOM     12  C   UNL     1      50.758   2.643  17.232  0.00  0.00    +0.000 A 
ATOM     13  C   UNL     1      51.260   1.341  17.394  0.00  0.00    +0.000 A 
ATOM     14  C   UNL     1      52.512   1.118  17.974  0.00  0.00    +0.000 A 
ATOM     15  C   UNL     1      53.285   2.192  18.392  0.00  0.00    +0.000 A 
ATOM     16  C   UNL     1      52.793   3.490  18.258  0.00  0.00    +0.000 A 
ATOM     17  C   UNL     1      51.522   3.734  17.700  0.00  0.00    +0.000 A 
BRANCH  12  19
ATOM     18  C   UNL     1      48.383   2.867  17.453  0.00  0.00    +0.000 C 
ATOM     19  O   UNL     1      49.550   2.910  16.639  0.00  0.00    +0.000 OA
ENDBRANCH  12  19
ENDBRANCH   8  17
ENDBRANCH   7  10
ENDBRANCH   1   7
BRANCH   4  20
ATOM     20  C   UNL     1      47.387   7.797  11.971  0.00  0.00    +0.000 C 
BRANCH  20  21
ATOM     21  N   UNL     1      46.729   6.547  11.687  0.00  0.00    +0.000 N 
ATOM     22  C   UNL     1      45.361   6.442  11.700  0.00  0.00    +0.000 C 
ATOM     23  O   UNL     1      44.635   7.411  11.910  0.00  0.00    +0.000 OA
ATOM     24  H   UNL     1      47.291   5.705  11.763  0.00  0.00    +0.000 HD
BRANCH  22  25
ATOM     25  C   UNL     1      44.803   5.121  11.386  0.00  0.00    +0.000 A 
ATOM     26  C   UNL     1      44.041   4.449  12.335  0.00  0.00    +0.000 A 
ATOM     27  S   UNL     1      43.424   2.957  11.785  0.00  0.00    +0.000 S 
ATOM     28  C   UNL     1      44.198   3.130  10.280  0.00  0.00    +0.000 A 
ATOM     29  N   UNL     1      44.099   2.165   9.326  0.00  0.00    +0.000 NA
ATOM     30  C   UNL     1      44.757   2.414   8.246  0.00  0.00    +0.000 A 
ATOM     31  N   UNL     1      45.506   3.542   8.027  0.00  0.00    +0.000 N 
ATOM     32  C   UNL     1      45.618   4.554   8.951  0.00  0.00    +0.000 A 
ATOM     33  O   UNL     1      46.267   5.564   8.711  0.00  0.00    +0.000 OA
ATOM     34  C   UNL     1      44.901   4.319  10.190  0.00  0.00    +0.000 A 
ATOM     35  H   UNL     1      45.994   3.680   7.154  0.00  0.00    +0.000 HD
ENDBRANCH  22  25
ENDBRANCH  20  21
ENDBRANCH   4  20
TORSDOF 7
ENDMDL
MODEL 2
REMARK VINA RESULT:    -7.176      2.999      9.597
REMARK INTER + INTRA:         -11.326
REMARK INTER:                 -10.277
REMARK INTRA:                  -1.048
REMARK UNBOUND:                -1.213
REMARK  Name = 
REMARK  8 active torsions:
REMARK  status: ('A' for Active; 'I' for Inactive)
REMARK    1  A    between atoms: C_1  and  O_2
REMARK    2  A    between atoms: O_2  and  C_3
REMARK    3  A    between atoms: C_8  and  C_9
REMARK    4  A    between atoms: N_11  and  C_12
REMARK    5  A    between atoms: C_12  and  C_13
REMARK    6  A    between atoms: C_16  and  C_17
REMARK    7  A    between atoms: C_17  and  N_18
REMARK    8  A    between atoms: C_19  and  C_21
REMARK                            x       y       z     vdW  Elec       q    Type
REMARK                         _______ _______ _______ _____ _____    ______ ____
ROOT
ATOM      1  C   UNL     1      47.476   5.761  14.445  0.00  0.00    +0.000 A 
ATOM      2  C   UNL     1      48.344   6.252  15.429  0.00  0.00    +0.000 A 
ATOM      3  C   UNL     1      48.608   5.508  16.585  0.00  0.00    +0.000 A 
ATOM      4  C   UNL     1      48.023   4.248  16.770  0.00  0.00    +0.000 A 
ATOM      5  C   UNL     1      47.142   3.766  15.793  0.00  0.00    +0.000 A 
ATOM      6  C   UNL     1      46.880   4.509  14.637  0.00  0.00    +0.000 A 
ENDROOT
BRANCH   1   7
ATOM      7  C   UNL     1      47.218   6.546  13.185  0.00  0.00    +0.000 C 
BRANCH   7  10
ATOM      8  C   UNL     1      45.683   6.028  11.331  0.00  0.00    +0.000 C 
ATOM      9  O   UNL     1      45.027   7.048  11.533  0.00  0.00    +0.000 OA
ATOM     10  N   UNL     1      46.759   5.694  12.116  0.00  0.00    +0.000 N 
ATOM     11  H   UNL     1      47.269   4.841  11.907  0.00  0.00    +0.000 HD
BRANCH   8  17
ATOM     12  C   UNL     1      44.310   4.157  10.190  0.00  0.00    +0.000 A 
ATOM     13  C   UNL     1      44.162   3.308   9.082  0.00  0.00    +0.000 A 
ATOM     14  C   UNL     1      44.992   3.429   7.964  0.00  0.00    +0.000 A 
ATOM     15  C   UNL     1      45.976   4.408   7.932  0.00  0.00    +0.000 A 
ATOM     16  C   UNL     1      46.151   5.246   9.033  0.00  0.00    +0.000 A 
ATOM     17  C   UNL     1      45.341   5.122  10.180  0.00  0.00    +0.000 A 
BRANCH  12  19
ATOM     18  C   UNL     1      43.676   3.005  12.193  0.00  0.00    +0.000 C 
ATOM     19  O   UNL     1      43.497   4.095  11.295  0.00  0.00    +0.000 OA
ENDBRANCH  12  19
ENDBRANCH   8  17
ENDBRANCH   7  10
ENDBRANCH   1   7
BRANCH   4  20
ATOM     20  C   UNL     1      48.307   3.429  18.004  0.00  0.00    +0.000 C 
BRANCH  20  21
ATOM     21  N   UNL     1      49.716   3.165  18.151  0.00  0.00    +0.000 N 
ATOM     22  C   UNL     1      50.372   2.306  17.306  0.00  0.00    +0.000 C 
ATOM     23  O   UNL     1      49.805   1.758  16.364  0.00  0.00    +0.000 OA
ATOM     24  H   UNL     1      50.135   3.396  19.046  0.00  0.00    +0.000 HD
BRANCH  22  25
ATOM     25  C   UNL     1      51.809   2.122  17.547  0.00  0.00    +0.000 A 
ATOM     26  C   UNL     1      52.331   0.841  17.668  0.00  0.00    +0.000 A 
ATOM     27  S   UNL     1      54.022   0.808  17.886  0.00  0.00    +0.000 S 
ATOM     28  C   UNL     1      54.110   2.508  17.883  0.00  0.00    +0.000 A 
ATOM     29  N   UNL     1      55.297   3.149  18.055  0.00  0.00    +0.000 NA
ATOM     30  C   UNL     1      55.213   4.436  18.058  0.00  0.00    +0.000 A 
ATOM     31  N   UNL     1      54.048   5.144  17.899  0.00  0.00    +0.000 N 
ATOM     32  C   UNL     1      52.829   4.542  17.699  0.00  0.00    +0.000 A 
ATOM     33  O   UNL     1      51.814   5.204  17.526  0.00  0.00    +0.000 OA
ATOM     34  C   UNL     1      52.868   3.092  17.696  0.00  0.00    +0.000 A 
ATOM     35  H   UNL     1      54.051   6.154  17.904  0.00  0.00    +0.000 HD
ENDBRANCH  22  25
ENDBRANCH  20  21
ENDBRANCH   4  20
TORSDOF 7
ENDMDL
MODEL 3
REMARK VINA RESULT:    -7.026      3.455      5.576
REMARK INTER + INTRA:         -11.115
REMARK INTER:                 -10.057
REMARK INTRA:                  -1.058
REMARK UNBOUND:                -1.213
REMARK  Name = 
REMARK  8 active torsions:
REMARK  status: ('A' for Active; 'I' for Inactive)
REMARK    1  A    between atoms: C_1  and  O_2
REMARK    2  A    between atoms: O_2  and  C_3
REMARK    3  A    between atoms: C_8  and  C_9
REMARK    4  A    between atoms: N_11  and  C_12
REMARK    5  A    between atoms: C_12  and  C_13
REMARK    6  A    between atoms: C_16  and  C_17
REMARK    7  A    between atoms: C_17  and  N_18
REMARK    8  A    between atoms: C_19  and  C_21
REMARK                            x       y       z     vdW  Elec       q    Type
REMARK                         _______ _______ _______ _____ _____    ______ ____
ROOT
ATOM      1  C   UNL     1      51.402   2.834  17.701  0.00  0.00    +0.000 A 
ATOM      2  C   UNL     1      50.602   1.884  17.053  0.00  0.00    +0.000 A 
ATOM      3  C   UNL     1      49.242   2.127  16.830  0.00  0.00    +0.000 A 
ATOM      4  C   UNL     1      48.659   3.335  17.233  0.00  0.00    +0.000 A 
ATOM      5  C   UNL     1      49.456   4.278  17.897  0.00  0.00    +0.000 A 
ATOM      6  C   UNL     1      50.815   4.035  18.118  0.00  0.00    +0.000 A 
ENDROOT
BRANCH   1   7
ATOM      7  C   UNL     1      52.874   2.588  17.912  0.00  0.00    +0.000 C 
BRANCH   7  10
ATOM      8  C   UNL     1      54.501   0.797  17.461  0.00  0.00    +0.000 C 
ATOM      9  O   UNL     1      55.423   1.603  17.351  0.00  0.00    +0.000 OA
ATOM     10  N   UNL     1      53.212   1.202  17.708  0.00  0.00    +0.000 N 
ATOM     11  H   UNL     1      52.487   0.495  17.791  0.00  0.00    +0.000 HD
BRANCH   8  17
ATOM     12  C   UNL     1      54.766  -1.579  18.448  0.00  0.00    +0.000 A 
ATOM     13  C   UNL     1      55.130  -2.917  18.227  0.00  0.00    +0.000 A 
ATOM     14  C   UNL     1      55.456  -3.374  16.948  0.00  0.00    +0.000 A 
ATOM     15  C   UNL     1      55.414  -2.503  15.867  0.00  0.00    +0.000 A 
ATOM     16  C   UNL     1      55.075  -1.166  16.072  0.00  0.00    +0.000 A 
ATOM     17  C   UNL     1      54.769  -0.680  17.359  0.00  0.00    +0.000 A 
BRANCH  12  19
ATOM     18  C   UNL     1      55.151  -1.535  20.812  0.00  0.00    +0.000 C 
ATOM     19  O   UNL     1      54.407  -1.095  19.681  0.00  0.00    +0.000 OA
ENDBRANCH  12  19
ENDBRANCH   8  17
ENDBRANCH   7  10
ENDBRANCH   1   7
BRANCH   4  20
ATOM     20  C   UNL     1      47.198   3.616  16.989  0.00  0.00    +0.000 C 
BRANCH  20  21
ATOM     21  N   UNL     1      47.015   4.627  15.978  0.00  0.00    +0.000 N 
ATOM     22  C   UNL     1      47.075   4.318  14.643  0.00  0.00    +0.000 C 
ATOM     23  O   UNL     1      47.241   3.167  14.246  0.00  0.00    +0.000 OA
ATOM     24  H   UNL     1      47.131   5.592  16.270  0.00  0.00    +0.000 HD
BRANCH  22  25
ATOM     25  C   UNL     1      46.865   5.429  13.705  0.00  0.00    +0.000 A 
ATOM     26  C   UNL     1      47.910   6.298  13.419  0.00  0.00    +0.000 A 
ATOM     27  S   UNL     1      47.511   7.492  12.268  0.00  0.00    +0.000 S 
ATOM     28  C   UNL     1      45.911   6.925  12.154  0.00  0.00    +0.000 A 
ATOM     29  N   UNL     1      45.007   7.535  11.341  0.00  0.00    +0.000 NA
ATOM     30  C   UNL     1      43.826   7.017  11.373  0.00  0.00    +0.000 A 
ATOM     31  N   UNL     1      43.464   5.940  12.141  0.00  0.00    +0.000 N 
ATOM     32  C   UNL     1      44.348   5.276  12.959  0.00  0.00    +0.000 A 
ATOM     33  O   UNL     1      44.000   4.296  13.606  0.00  0.00    +0.000 OA
ATOM     34  C   UNL     1      45.689   5.826  12.966  0.00  0.00    +0.000 A 
ATOM     35  H   UNL     1      42.522   5.578  12.115  0.00  0.00    +0.000 HD
ENDBRANCH  22  25
ENDBRANCH  20  21
ENDBRANCH   4  20
TORSDOF 7
ENDMDL
MODEL 4
REMARK VINA RESULT:    -7.017      3.156      9.643
REMARK INTER + INTRA:         -11.101
REMARK INTER:                 -10.013
REMARK INTRA:                  -1.089
REMARK UNBOUND:                -1.213
REMARK  Name = 
REMARK  8 active torsions:
REMARK  status: ('A' for Active; 'I' for Inactive)
REMARK    1  A    between atoms: C_1  and  O_2
REMARK    2  A    between atoms: O_2  and  C_3
REMARK    3  A    between atoms: C_8  and  C_9
REMARK    4  A    between atoms: N_11  and  C_12
REMARK    5  A    between atoms: C_12  and  C_13
REMARK    6  A    between atoms: C_16  and  C_17
REMARK    7  A    between atoms: C_17  and  N_18
REMARK    8  A    between atoms: C_19  and  C_21
REMARK                            x       y       z     vdW  Elec       q    Type
REMARK                         _______ _______ _______ _____ _____    ______ ____
ROOT
ATOM      1  C   UNL     1      47.525   6.381  14.003  0.00  0.00    +0.000 A 
ATOM      2  C   UNL     1      48.439   7.058  14.821  0.00  0.00    +0.000 A 
ATOM      3  C   UNL     1      48.875   6.494  16.026  0.00  0.00    +0.000 A 
ATOM      4  C   UNL     1      48.420   5.230  16.426  0.00  0.00    +0.000 A 
ATOM      5  C   UNL     1      47.493   4.561  15.615  0.00  0.00    +0.000 A 
ATOM      6  C   UNL     1      47.059   5.125  14.411  0.00  0.00    +0.000 A 
ENDROOT
BRANCH   1   7
ATOM      7  C   UNL     1      47.080   6.972  12.690  0.00  0.00    +0.000 C 
BRANCH   7  10
ATOM      8  C   UNL     1      45.568   6.087  10.961  0.00  0.00    +0.000 C 
ATOM      9  O   UNL     1      44.835   7.070  11.037  0.00  0.00    +0.000 OA
ATOM     10  N   UNL     1      46.678   5.948  11.759  0.00  0.00    +0.000 N 
ATOM     11  H   UNL     1      47.252   5.116  11.656  0.00  0.00    +0.000 HD
BRANCH   8  17
ATOM     12  C   UNL     1      44.330   3.980  10.115  0.00  0.00    +0.000 A 
ATOM     13  C   UNL     1      44.237   2.976   9.137  0.00  0.00    +0.000 A 
ATOM     14  C   UNL     1      45.045   3.002   7.998  0.00  0.00    +0.000 A 
ATOM     15  C   UNL     1      45.953   4.036   7.813  0.00  0.00    +0.000 A 
ATOM     16  C   UNL     1      46.074   5.030   8.784  0.00  0.00    +0.000 A 
ATOM     17  C   UNL     1      45.286   5.007   9.953  0.00  0.00    +0.000 A 
BRANCH  12  19
ATOM     18  C   UNL     1      43.655   2.945  12.168  0.00  0.00    +0.000 C 
ATOM     19  O   UNL     1      43.534   4.012  11.233  0.00  0.00    +0.000 OA
ENDBRANCH  12  19
ENDBRANCH   8  17
ENDBRANCH   7  10
ENDBRANCH   1   7
BRANCH   4  20
ATOM     20  C   UNL     1      48.890   4.604  17.715  0.00  0.00    +0.000 C 
BRANCH  20  21
ATOM     21  N   UNL     1      50.246   4.128  17.607  0.00  0.00    +0.000 N 
ATOM     22  C   UNL     1      51.125   4.238  18.655  0.00  0.00    +0.000 C 
ATOM     23  O   UNL     1      50.790   4.703  19.742  0.00  0.00    +0.000 OA
ATOM     24  H   UNL     1      50.607   3.982  16.670  0.00  0.00    +0.000 HD
BRANCH  22  25
ATOM     25  C   UNL     1      52.477   3.710  18.432  0.00  0.00    +0.000 A 
ATOM     26  C   UNL     1      53.583   4.511  18.687  0.00  0.00    +0.000 A 
ATOM     27  S   UNL     1      55.073   3.722  18.431  0.00  0.00    +0.000 S 
ATOM     28  C   UNL     1      54.294   2.300  17.918  0.00  0.00    +0.000 A 
ATOM     29  N   UNL     1      55.009   1.213  17.520  0.00  0.00    +0.000 NA
ATOM     30  C   UNL     1      54.291   0.215  17.131  0.00  0.00    +0.000 A 
ATOM     31  N   UNL     1      52.919   0.200  17.107  0.00  0.00    +0.000 N 
ATOM     32  C   UNL     1      52.153   1.264  17.522  0.00  0.00    +0.000 A 
ATOM     33  O   UNL     1      50.931   1.204  17.520  0.00  0.00    +0.000 OA
ATOM     34  C   UNL     1      52.915   2.417  17.961  0.00  0.00    +0.000 A 
ATOM     35  H   UNL     1      52.415  -0.619  16.797  0.00  0.00    +0.000 HD
ENDBRANCH  22  25
ENDBRANCH  20  21
ENDBRANCH   4  20
TORSDOF 7
ENDMDL
MODEL 5
REMARK VINA RESULT:    -6.833      1.882      3.141
REMARK INTER + INTRA:         -10.843
REMARK INTER:                  -9.573
REMARK INTRA:                  -1.270
REMARK UNBOUND:                -1.213
REMARK  Name = 
REMARK  8 active torsions:
REMARK  status: ('A' for Active; 'I' for Inactive)
REMARK    1  A    between atoms: C_1  and  O_2
REMARK    2  A    between atoms: O_2  and  C_3
REMARK    3  A    between atoms: C_8  and  C_9
REMARK    4  A    between atoms: N_11  and  C_12
REMARK    5  A    between atoms: C_12  and  C_13
REMARK    6  A    between atoms: C_16  and  C_17
REMARK    7  A    between atoms: C_17  and  N_18
REMARK    8  A    between atoms: C_19  and  C_21
REMARK                            x       y       z     vdW  Elec       q    Type
REMARK                         _______ _______ _______ _____ _____    ______ ____
ROOT
ATOM      1  C   UNL     1      48.975   4.962  17.442  0.00  0.00    +0.000 A 
ATOM      2  C   UNL     1      47.906   4.495  16.665  0.00  0.00    +0.000 A 
ATOM      3  C   UNL     1      47.571   5.123  15.459  0.00  0.00    +0.000 A 
ATOM      4  C   UNL     1      48.312   6.218  14.996  0.00  0.00    +0.000 A 
ATOM      5  C   UNL     1      49.370   6.694  15.782  0.00  0.00    +0.000 A 
ATOM      6  C   UNL     1      49.706   6.066  16.986  0.00  0.00    +0.000 A 
ENDROOT
BRANCH   1   7
ATOM      7  C   UNL     1      49.358   4.267  18.723  0.00  0.00    +0.000 C 
BRANCH   7  10
ATOM      8  C   UNL     1      51.048   2.708  17.843  0.00  0.00    +0.000 C 
ATOM      9  O   UNL     1      50.214   2.124  17.155  0.00  0.00    +0.000 OA
ATOM     10  N   UNL     1      50.704   3.755  18.664  0.00  0.00    +0.000 N 
ATOM     11  H   UNL     1      51.432   4.205  19.211  0.00  0.00    +0.000 HD
BRANCH   8  17
ATOM     12  C   UNL     1      53.586   3.206  17.856  0.00  0.00    +0.000 A 
ATOM     13  C   UNL     1      54.889   2.711  17.685  0.00  0.00    +0.000 A 
ATOM     14  C   UNL     1      55.121   1.348  17.476  0.00  0.00    +0.000 A 
ATOM     15  C   UNL     1      54.056   0.459  17.447  0.00  0.00    +0.000 A 
ATOM     16  C   UNL     1      52.754   0.936  17.596  0.00  0.00    +0.000 A 
ATOM     17  C   UNL     1      52.497   2.310  17.780  0.00  0.00    +0.000 A 
BRANCH  12  19
ATOM     18  C   UNL     1      53.506   5.452  17.028  0.00  0.00    +0.000 C 
ATOM     19  O   UNL     1      53.315   4.530  18.095  0.00  0.00    +0.000 OA
ENDBRANCH  12  19
ENDBRANCH   8  17
ENDBRANCH   7  10
ENDBRANCH   1   7
BRANCH   4  20
ATOM     20  C   UNL     1      47.971   6.897  13.694  0.00  0.00    +0.000 C 
BRANCH  20  21
ATOM     21  N   UNL     1      47.273   6.007  12.801  0.00  0.00    +0.000 N 
ATOM     22  C   UNL     1      46.360   6.480  11.893  0.00  0.00    +0.000 C 
ATOM     23  O   UNL     1      46.125   7.679  11.768  0.00  0.00    +0.000 OA
ATOM     24  H   UNL     1      47.259   5.024  13.053  0.00  0.00    +0.000 HD
BRANCH  22  25
ATOM     25  C   UNL     1      45.718   5.480  11.030  0.00  0.00    +0.000 A 
ATOM     26  C   UNL     1      45.829   5.586   9.649  0.00  0.00    +0.000 A 
ATOM     27  S   UNL     1      45.076   4.312   8.802  0.00  0.00    +0.000 S 
ATOM     28  C   UNL     1      44.527   3.603  10.247  0.00  0.00    +0.000 A 
ATOM     29  N   UNL     1      43.777   2.468  10.231  0.00  0.00    +0.000 NA
ATOM     30  C   UNL     1      43.407   2.056  11.396  0.00  0.00    +0.000 A 
ATOM     31  N   UNL     1      43.722   2.673  12.580  0.00  0.00    +0.000 N 
ATOM     32  C   UNL     1      44.496   3.807  12.649  0.00  0.00    +0.000 A 
ATOM     33  O   UNL     1      44.786   4.312  13.726  0.00  0.00    +0.000 OA
ATOM     34  C   UNL     1      44.930   4.316  11.363  0.00  0.00    +0.000 A 
ATOM     35  H   UNL     1      43.405   2.294  13.462  0.00  0.00    +0.000 HD
ENDBRANCH  22  25
ENDBRANCH  20  21
ENDBRANCH   4  20
TORSDOF 7
ENDMDL
MODEL 6
REMARK VINA RESULT:    -6.736      4.837      6.126
REMARK INTER + INTRA:         -10.706
REMARK INTER:                  -9.402
REMARK INTRA:                  -1.303
REMARK UNBOUND:                -1.213
REMARK  Name = 
REMARK  8 active torsions:
REMARK  status: ('A' for Active; 'I' for Inactive)
REMARK    1  A    between atoms: C_1  and  O_2
REMARK    2  A    between atoms: O_2  and  C_3
REMARK    3  A    between atoms: C_8  and  C_9
REMARK    4  A    between atoms: N_11  and  C_12
REMARK    5  A    between atoms: C_12  and  C_13
REMARK    6  A    between atoms: C_16  and  C_17
REMARK    7  A    between atoms: C_17  and  N_18
REMARK    8  A    between atoms: C_19  and  C_21
REMARK                            x       y       z     vdW  Elec       q    Type
REMARK                         _______ _______ _______ _____ _____    ______ ____
ROOT
ATOM      1  C   UNL     1      50.270   8.979  11.425  0.00  0.00    +0.000 A 
ATOM      2  C   UNL     1      49.415  10.048  11.724  0.00  0.00    +0.000 A 
ATOM      3  C   UNL     1      48.094   9.817  12.126  0.00  0.00    +0.000 A 
ATOM      4  C   UNL     1      47.608   8.509  12.256  0.00  0.00    +0.000 A 
ATOM      5  C   UNL     1      48.459   7.441  11.941  0.00  0.00    +0.000 A 
ATOM      6  C   UNL     1      49.779   7.673  11.541  0.00  0.00    +0.000 A 
ENDROOT
BRANCH   1   7
ATOM      7  C   UNL     1      51.701   9.226  11.025  0.00  0.00    +0.000 C 
BRANCH   7  10
ATOM      8  C   UNL     1      52.787   8.020   9.174  0.00  0.00    +0.000 C 
ATOM      9  O   UNL     1      52.687   8.991   8.426  0.00  0.00    +0.000 OA
ATOM     10  N   UNL     1      52.302   8.044  10.459  0.00  0.00    +0.000 N 
ATOM     11  H   UNL     1      52.412   7.216  11.037  0.00  0.00    +0.000 HD
BRANCH   8  17
ATOM     12  C   UNL     1      54.535   6.127   9.394  0.00  0.00    +0.000 A 
ATOM     13  C   UNL     1      55.164   5.023   8.797  0.00  0.00    +0.000 A 
ATOM     14  C   UNL     1      54.742   4.537   7.557  0.00  0.00    +0.000 A 
ATOM     15  C   UNL     1      53.677   5.140   6.900  0.00  0.00    +0.000 A 
ATOM     16  C   UNL     1      53.055   6.250   7.469  0.00  0.00    +0.000 A 
ATOM     17  C   UNL     1      53.484   6.772   8.707  0.00  0.00    +0.000 A 
BRANCH  12  19
ATOM     18  C   UNL     1      55.355   5.692  11.603  0.00  0.00    +0.000 C 
ATOM     19  O   UNL     1      54.896   6.618  10.625  0.00  0.00    +0.000 OA
ENDBRANCH  12  19
ENDBRANCH   8  17
ENDBRANCH   7  10
ENDBRANCH   1   7
BRANCH   4  20
ATOM     20  C   UNL     1      46.191   8.244  12.700  0.00  0.00    +0.000 C 
BRANCH  20  21
ATOM     21  N   UNL     1      45.793   6.889  12.415  0.00  0.00    +0.000 N 
ATOM     22  C   UNL     1      44.696   6.617  11.638  0.00  0.00    +0.000 C 
ATOM     23  O   UNL     1      44.030   7.507  11.115  0.00  0.00    +0.000 OA
ATOM     24  H   UNL     1      46.160   6.165  13.025  0.00  0.00    +0.000 HD
BRANCH  22  25
ATOM     25  C   UNL     1      44.392   5.198  11.409  0.00  0.00    +0.000 A 
ATOM     26  C   UNL     1      43.655   4.489  12.348  0.00  0.00    +0.000 A 
ATOM     27  S   UNL     1      43.344   2.873  11.897  0.00  0.00    +0.000 S 
ATOM     28  C   UNL     1      44.232   3.048  10.457  0.00  0.00    +0.000 A 
ATOM     29  N   UNL     1      44.387   2.005   9.598  0.00  0.00    +0.000 NA
ATOM     30  C   UNL     1      45.105   2.270   8.560  0.00  0.00    +0.000 A 
ATOM     31  N   UNL     1      45.682   3.487   8.297  0.00  0.00    +0.000 N 
ATOM     32  C   UNL     1      45.534   4.577   9.123  0.00  0.00    +0.000 A 
ATOM     33  O   UNL     1      46.034   5.659   8.841  0.00  0.00    +0.000 OA
ATOM     34  C   UNL     1      44.741   4.328  10.311  0.00  0.00    +0.000 A 
ATOM     35  H   UNL     1      46.229   3.632   7.461  0.00  0.00    +0.000 HD
ENDBRANCH  22  25
ENDBRANCH  20  21
ENDBRANCH   4  20
TORSDOF 7
ENDMDL
MODEL 7
REMARK VINA RESULT:    -6.650      5.718      8.859
REMARK INTER + INTRA:         -10.585
REMARK INTER:                  -9.469
REMARK INTRA:                  -1.116
REMARK UNBOUND:                -1.213
REMARK  Name = 
REMARK  8 active torsions:
REMARK  status: ('A' for Active; 'I' for Inactive)
REMARK    1  A    between atoms: C_1  and  O_2
REMARK    2  A    between atoms: O_2  and  C_3
REMARK    3  A    between atoms: C_8  and  C_9
REMARK    4  A    between atoms: N_11  and  C_12
REMARK    5  A    between atoms: C_12  and  C_13
REMARK    6  A    between atoms: C_16  and  C_17
REMARK    7  A    between atoms: C_17  and  N_18
REMARK    8  A    between atoms: C_19  and  C_21
REMARK                            x       y       z     vdW  Elec       q    Type
REMARK                         _______ _______ _______ _____ _____    ______ ____
ROOT
ATOM      1  C   UNL     1      48.578   8.287  12.078  0.00  0.00    +0.000 A 
ATOM      2  C   UNL     1      48.862   9.636  11.826  0.00  0.00    +0.000 A 
ATOM      3  C   UNL     1      50.097  10.019  11.288  0.00  0.00    +0.000 A 
ATOM      4  C   UNL     1      51.065   9.056  10.973  0.00  0.00    +0.000 A 
ATOM      5  C   UNL     1      50.786   7.709  11.241  0.00  0.00    +0.000 A 
ATOM      6  C   UNL     1      49.553   7.327  11.776  0.00  0.00    +0.000 A 
ENDROOT
BRANCH   1   7
ATOM      7  C   UNL     1      47.238   7.871  12.625  0.00  0.00    +0.000 C 
BRANCH   7  10
ATOM      8  C   UNL     1      45.588   6.605  11.308  0.00  0.00    +0.000 C 
ATOM      9  O   UNL     1      44.847   7.582  11.217  0.00  0.00    +0.000 OA
ATOM     10  N   UNL     1      46.769   6.656  12.007  0.00  0.00    +0.000 N 
ATOM     11  H   UNL     1      47.346   5.821  12.051  0.00  0.00    +0.000 HD
BRANCH   8  17
ATOM     12  C   UNL     1      44.572   4.228  11.228  0.00  0.00    +0.000 A 
ATOM     13  C   UNL     1      44.388   3.045  10.494  0.00  0.00    +0.000 A 
ATOM     14  C   UNL     1      44.815   2.946   9.167  0.00  0.00    +0.000 A 
ATOM     15  C   UNL     1      45.423   4.031   8.550  0.00  0.00    +0.000 A 
ATOM     16  C   UNL     1      45.632   5.206   9.271  0.00  0.00    +0.000 A 
ATOM     17  C   UNL     1      45.232   5.317  10.618  0.00  0.00    +0.000 A 
BRANCH  12  19
ATOM     18  C   UNL     1      42.857   4.961  12.732  0.00  0.00    +0.000 C 
ATOM     19  O   UNL     1      44.139   4.381  12.522  0.00  0.00    +0.000 OA
ENDBRANCH  12  19
ENDBRANCH   8  17
ENDBRANCH   7  10
ENDBRANCH   1   7
BRANCH   4  20
ATOM     20  C   UNL     1      52.394   9.452  10.381  0.00  0.00    +0.000 C 
BRANCH  20  21
ATOM     21  N   UNL     1      52.682   8.708   9.181  0.00  0.00    +0.000 N 
ATOM     22  C   UNL     1      53.901   8.802   8.559  0.00  0.00    +0.000 C 
ATOM     23  O   UNL     1      54.815   9.484   9.016  0.00  0.00    +0.000 OA
ATOM     24  H   UNL     1      51.886   8.352   8.661  0.00  0.00    +0.000 HD
BRANCH  22  25
ATOM     25  C   UNL     1      54.082   7.990   7.349  0.00  0.00    +0.000 A 
ATOM     26  C   UNL     1      54.374   8.609   6.140  0.00  0.00    +0.000 A 
ATOM     27  S   UNL     1      54.609   7.516   4.851  0.00  0.00    +0.000 S 
ATOM     28  C   UNL     1      54.273   6.181   5.851  0.00  0.00    +0.000 A 
ATOM     29  N   UNL     1      54.278   4.914   5.354  0.00  0.00    +0.000 NA
ATOM     30  C   UNL     1      53.980   4.002   6.216  0.00  0.00    +0.000 A 
ATOM     31  N   UNL     1      53.680   4.238   7.534  0.00  0.00    +0.000 N 
ATOM     32  C   UNL     1      53.685   5.497   8.087  0.00  0.00    +0.000 A 
ATOM     33  O   UNL     1      53.446   5.670   9.275  0.00  0.00    +0.000 OA
ATOM     34  C   UNL     1      54.006   6.561   7.155  0.00  0.00    +0.000 A 
ATOM     35  H   UNL     1      53.461   3.477   8.160  0.00  0.00    +0.000 HD
ENDBRANCH  22  25
ENDBRANCH  20  21
ENDBRANCH   4  20
TORSDOF 7
ENDMDL
MODEL 8
REMARK VINA RESULT:    -6.390      5.342      8.130
REMARK INTER + INTRA:         -10.218
REMARK INTER:                  -9.252
REMARK INTRA:                  -0.967
REMARK UNBOUND:                -1.213
REMARK  Name = 
REMARK  8 active torsions:
REMARK  status: ('A' for Active; 'I' for Inactive)
REMARK    1  A    between atoms: C_1  and  O_2
REMARK    2  A    between atoms: O_2  and  C_3
REMARK    3  A    between atoms: C_8  and  C_9
REMARK    4  A    between atoms: N_11  and  C_12
REMARK    5  A    between atoms: C_12  and  C_13
REMARK    6  A    between atoms: C_16  and  C_17
REMARK    7  A    between atoms: C_17  and  N_18
REMARK    8  A    between atoms: C_19  and  C_21
REMARK                            x       y       z     vdW  Elec       q    Type
REMARK                         _______ _______ _______ _____ _____    ______ ____
ROOT
ATOM      1  C   UNL     1      49.267   7.161  13.956  0.00  0.00    +0.000 A 
ATOM      2  C   UNL     1      49.140   7.298  12.567  0.00  0.00    +0.000 A 
ATOM      3  C   UNL     1      50.093   8.010  11.829  0.00  0.00    +0.000 A 
ATOM      4  C   UNL     1      51.204   8.582  12.463  0.00  0.00    +0.000 A 
ATOM      5  C   UNL     1      51.321   8.458  13.854  0.00  0.00    +0.000 A 
ATOM      6  C   UNL     1      50.370   7.746  14.591  0.00  0.00    +0.000 A 
ENDROOT
BRANCH   1   7
ATOM      7  C   UNL     1      48.260   6.366  14.747  0.00  0.00    +0.000 C 
BRANCH   7  10
ATOM      8  C   UNL     1      46.727   4.845  13.567  0.00  0.00    +0.000 C 
ATOM      9  O   UNL     1      47.448   3.874  13.793  0.00  0.00    +0.000 OA
ATOM     10  N   UNL     1      47.068   6.110  13.978  0.00  0.00    +0.000 N 
ATOM     11  H   UNL     1      46.437   6.878  13.768  0.00  0.00    +0.000 HD
BRANCH   8  17
ATOM     12  C   UNL     1      44.519   5.709  12.536  0.00  0.00    +0.000 A 
ATOM     13  C   UNL     1      43.280   5.390  11.955  0.00  0.00    +0.000 A 
ATOM     14  C   UNL     1      42.943   4.067  11.658  0.00  0.00    +0.000 A 
ATOM     15  C   UNL     1      43.841   3.043  11.927  0.00  0.00    +0.000 A 
ATOM     16  C   UNL     1      45.067   3.340  12.522  0.00  0.00    +0.000 A 
ATOM     17  C   UNL     1      45.415   4.665  12.854  0.00  0.00    +0.000 A 
BRANCH  12  19
ATOM     18  C   UNL     1      45.023   7.907  11.727  0.00  0.00    +0.000 C 
ATOM     19  O   UNL     1      44.904   6.996  12.815  0.00  0.00    +0.000 OA
ENDBRANCH  12  19
ENDBRANCH   8  17
ENDBRANCH   7  10
ENDBRANCH   1   7
BRANCH   4  20
ATOM     20  C   UNL     1      52.245   9.341  11.680  0.00  0.00    +0.000 C 
BRANCH  20  21
ATOM     21  N   UNL     1      52.363   8.841  10.334  0.00  0.00    +0.000 N 
ATOM     22  C   UNL     1      53.582   8.506   9.802  0.00  0.00    +0.000 C 
ATOM     23  O   UNL     1      54.620   8.575  10.456  0.00  0.00    +0.000 OA
ATOM     24  H   UNL     1      51.581   9.014   9.711  0.00  0.00    +0.000 HD
BRANCH  22  25
ATOM     25  C   UNL     1      53.577   7.999   8.424  0.00  0.00    +0.000 A 
ATOM     26  C   UNL     1      53.441   8.884   7.362  0.00  0.00    +0.000 A 
ATOM     27  S   UNL     1      53.515   8.134   5.832  0.00  0.00    +0.000 S 
ATOM     28  C   UNL     1      53.675   6.593   6.535  0.00  0.00    +0.000 A 
ATOM     29  N   UNL     1      53.764   5.477   5.763  0.00  0.00    +0.000 NA
ATOM     30  C   UNL     1      53.855   4.375   6.427  0.00  0.00    +0.000 A 
ATOM     31  N   UNL     1      53.870   4.285   7.796  0.00  0.00    +0.000 N 
ATOM     32  C   UNL     1      53.807   5.386   8.617  0.00  0.00    +0.000 A 
ATOM     33  O   UNL     1      53.857   5.273   9.835  0.00  0.00    +0.000 OA
ATOM     34  C   UNL     1      53.694   6.652   7.918  0.00  0.00    +0.000 A 
ATOM     35  H   UNL     1      53.950   3.390   8.256  0.00  0.00    +0.000 HD
ENDBRANCH  22  25
ENDBRANCH  20  21
ENDBRANCH   4  20
TORSDOF 7
ENDMDL
MODEL 9
REMARK VINA RESULT:    -6.361      2.080      2.446
REMARK INTER + INTRA:         -10.176
REMARK INTER:                  -8.670
REMARK INTRA:                  -1.506
REMARK UNBOUND:                -1.213
REMARK  Name = 
REMARK  8 active torsions:
REMARK  status: ('A' for Active; 'I' for Inactive)
REMARK    1  A    between atoms: C_1  and  O_2
REMARK    2  A    between atoms: O_2  and  C_3
REMARK    3  A    between atoms: C_8  and  C_9
REMARK    4  A    between atoms: N_11  and  C_12
REMARK    5  A    between atoms: C_12  and  C_13
REMARK    6  A    between atoms: C_16  and  C_17
REMARK    7  A    between atoms: C_17  and  N_18
REMARK    8  A    between atoms: C_19  and  C_21
REMARK                            x       y       z     vdW  Elec       q    Type
REMARK                         _______ _______ _______ _____ _____    ______ ____
ROOT
ATOM      1  C   UNL     1      49.946   8.513  14.865  0.00  0.00    +0.000 A 
ATOM      2  C   UNL     1      49.123   9.600  14.540  0.00  0.00    +0.000 A 
ATOM      3  C   UNL     1      48.236   9.527  13.460  0.00  0.00    +0.000 A 
ATOM      4  C   UNL     1      48.138   8.357  12.695  0.00  0.00    +0.000 A 
ATOM      5  C   UNL     1      48.974   7.276  13.011  0.00  0.00    +0.000 A 
ATOM      6  C   UNL     1      49.859   7.349  14.090  0.00  0.00    +0.000 A 
ENDROOT
BRANCH   1   7
ATOM      7  C   UNL     1      50.878   8.578  16.047  0.00  0.00    +0.000 C 
BRANCH   7  10
ATOM      8  C   UNL     1      49.530   7.552  17.834  0.00  0.00    +0.000 C 
ATOM      9  O   UNL     1      48.762   8.512  17.864  0.00  0.00    +0.000 OA
ATOM     10  N   UNL     1      50.612   7.518  16.988  0.00  0.00    +0.000 N 
ATOM     11  H   UNL     1      51.214   6.701  17.000  0.00  0.00    +0.000 HD
BRANCH   8  17
ATOM     12  C   UNL     1      48.974   5.060  18.241  0.00  0.00    +0.000 A 
ATOM     13  C   UNL     1      48.669   4.053  19.172  0.00  0.00    +0.000 A 
ATOM     14  C   UNL     1      48.703   4.307  20.546  0.00  0.00    +0.000 A 
ATOM     15  C   UNL     1      49.051   5.568  21.011  0.00  0.00    +0.000 A 
ATOM     16  C   UNL     1      49.337   6.585  20.100  0.00  0.00    +0.000 A 
ATOM     17  C   UNL     1      49.282   6.356  18.710  0.00  0.00    +0.000 A 
BRANCH  12  19
ATOM     18  C   UNL     1      47.733   4.713  16.221  0.00  0.00    +0.000 C 
ATOM     19  O   UNL     1      48.985   4.847  16.885  0.00  0.00    +0.000 OA
ENDBRANCH  12  19
ENDBRANCH   8  17
ENDBRANCH   7  10
ENDBRANCH   1   7
BRANCH   4  20
ATOM     20  C   UNL     1      47.178   8.259  11.537  0.00  0.00    +0.000 C 
BRANCH  20  21
ATOM     21  N   UNL     1      46.581   6.950  11.454  0.00  0.00    +0.000 N 
ATOM     22  C   UNL     1      45.219   6.786  11.477  0.00  0.00    +0.000 C 
ATOM     23  O   UNL     1      44.447   7.741  11.524  0.00  0.00    +0.000 OA
ATOM     24  H   UNL     1      47.179   6.159  11.668  0.00  0.00    +0.000 HD
BRANCH  22  25
ATOM     25  C   UNL     1      44.725   5.406  11.377  0.00  0.00    +0.000 A 
ATOM     26  C   UNL     1      43.990   4.858  12.420  0.00  0.00    +0.000 A 
ATOM     27  S   UNL     1      43.447   3.270  12.114  0.00  0.00    +0.000 S 
ATOM     28  C   UNL     1      44.222   3.239  10.600  0.00  0.00    +0.000 A 
ATOM     29  N   UNL     1      44.174   2.132   9.811  0.00  0.00    +0.000 NA
ATOM     30  C   UNL     1      44.827   2.237   8.704  0.00  0.00    +0.000 A 
ATOM     31  N   UNL     1      45.523   3.352   8.308  0.00  0.00    +0.000 N 
ATOM     32  C   UNL     1      45.582   4.501   9.061  0.00  0.00    +0.000 A 
ATOM     33  O   UNL     1      46.184   5.490   8.663  0.00  0.00    +0.000 OA
ATOM     34  C   UNL     1      44.869   4.431  10.322  0.00  0.00    +0.000 A 
ATOM     35  H   UNL     1      46.010   3.372   7.424  0.00  0.00    +0.000 HD
ENDBRANCH  22  25
ENDBRANCH  20  21
ENDBRANCH   4  20
TORSDOF 7
ENDMDL
