MODEL 1
REMARK VINA RESULT:    -7.518      0.000      0.000
REMARK INTER + INTRA:         -10.831
REMARK INTER:                 -10.375
REMARK INTRA:                  -0.455
REMARK UNBOUND:                -0.455
REMARK  Name = 
REMARK  7 active torsions:
REMARK  status: ('A' for Active; 'I' for Inactive)
REMARK    1  A    between atoms: N_1  and  C_2
REMARK    2  A    between atoms: C_2  and  C_3
REMARK    3  A    between atoms: C_6  and  C_7
REMARK    4  A    between atoms: C_7  and  N_8
REMARK    5  A    between atoms: C_13  and  O_14
REMARK    6  A    between atoms: O_14  and  C_15
REMARK    7  A    between atoms: C_15  and  C_16
REMARK                            x       y       z     vdW  Elec       q    Type
REMARK                         _______ _______ _______ _____ _____    ______ ____
ROOT
ATOM      1  N   UNL     1      44.432   5.702  10.478  0.00  0.00    +0.000 N 
ATOM      2  C   UNL     1      45.273   5.909  11.589  0.00  0.00    +0.000 A 
ATOM      3  C   UNL     1      45.730   7.191  11.877  0.00  0.00    +0.000 A 
ATOM      4  C   UNL     1      46.556   7.388  12.985  0.00  0.00    +0.000 A 
ATOM      5  C   UNL     1      46.901   6.303  13.784  0.00  0.00    +0.000 A 
ATOM      6  C   UNL     1      46.428   5.063  13.411  0.00  0.00    +0.000 A 
ATOM      7  N   UNL     1      45.634   4.857  12.345  0.00  0.00    +0.000 NA
ATOM      8  H   UNL     1      43.612   6.295  10.575  0.00  0.00    +0.000 HD
ENDROOT
BRANCH   1   9
ATOM      9  C   UNL     1      44.055   4.297  10.330  0.00  0.00    +0.000 C 
BRANCH   9  13
ATOM     10  C   UNL     1      46.634   2.310   7.469  0.00  0.00    +0.000 A 
ATOM     11  C   UNL     1      46.466   3.703   7.433  0.00  0.00    +0.000 A 
ATOM     12  C   UNL     1      45.619   4.346   8.338  0.00  0.00    +0.000 A 
ATOM     13  C   UNL     1      44.910   3.607   9.292  0.00  0.00    +0.000 A 
ATOM     14  C   UNL     1      45.064   2.213   9.320  0.00  0.00    +0.000 A 
ATOM     15  C   UNL     1      45.916   1.572   8.417  0.00  0.00    +0.000 A 
BRANCH  10  16
ATOM     16  C   UNL     1      47.572   1.632   6.505  0.00  0.00    +0.000 C 
BRANCH  16  17
ATOM     17  N   UNL     1      48.742   2.460   6.232  0.00  0.00    +0.000 NA
ATOM     18  H   UNL     1      49.456   1.895   5.780  0.00  0.00    +0.000 HD
ATOM     19  H   UNL     1      49.133   2.777   7.118  0.00  0.00    +0.000 HD
ENDBRANCH  16  17
ENDBRANCH  10  16
ENDBRANCH   9  13
ENDBRANCH   1   9
BRANCH   6  20
ATOM     20  O   UNL     1      46.733   3.977  14.209  0.00  0.00    +0.000 OA
BRANCH  20  21
ATOM     21  C   UNL     1      47.125   4.393  15.528  0.00  0.00    +0.000 C 
BRANCH  21  22
ATOM     22  C   UNL     1      47.789   3.239  16.257  0.00  0.00    +0.000 C 
ATOM     23  F   UNL     1      47.012   2.847  17.304  0.00  0.00    +0.000 F 
ENDBRANCH  21  22
ENDBRANCH  20  21
ENDBRANCH   6  20
TORSDOF 7
ENDMDL
MODEL 2
REMARK VINA RESULT:    -7.255      2.720      3.667
REMARK INTER + INTRA:         -10.467
REMARK INTER:                 -10.012
REMARK INTRA:                  -0.455
REMARK UNBOUND:                -0.455
REMARK  Name = 
REMARK  7 active torsions:
REMARK  status: ('A' for Active; 'I' for Inactive)
REMARK    1  A    between atoms: N_1  and  C_2
REMARK    2  A    between atoms: C_2  and  C_3
REMARK    3  A    between atoms: C_6  and  C_7
REMARK    4  A    between atoms: C_7  and  N_8
REMARK    5  A    between atoms: C_13  and  O_14
REMARK    6  A    between atoms: O_14  and  C_15
REMARK    7  A    between atoms: C_15  and  C_16
REMARK                            x       y       z     vdW  Elec       q    Type
REMARK                         _______ _______ _______ _____ _____    ______ ____
ROOT
ATOM      1  N   UNL     1      45.037   2.708  11.581  0.00  0.00    +0.000 N 
ATOM      2  C   UNL     1      45.428   3.936  12.153  0.00  0.00    +0.000 A 
ATOM      3  C   UNL     1      46.252   3.940  13.275  0.00  0.00    +0.000 A 
ATOM      4  C   UNL     1      46.643   5.160  13.828  0.00  0.00    +0.000 A 
ATOM      5  C   UNL     1      46.208   6.347  13.247  0.00  0.00    +0.000 A 
ATOM      6  C   UNL     1      45.371   6.252  12.156  0.00  0.00    +0.000 A 
ATOM      7  N   UNL     1      44.984   5.083  11.612  0.00  0.00    +0.000 NA
ATOM      8  H   UNL     1      45.871   2.180  11.340  0.00  0.00    +0.000 HD
ENDROOT
BRANCH   1   9
ATOM      9  C   UNL     1      44.173   2.897  10.417  0.00  0.00    +0.000 C 
BRANCH   9  13
ATOM     10  C   UNL     1      46.584   2.740   6.820  0.00  0.00    +0.000 A 
ATOM     11  C   UNL     1      45.917   3.921   7.181  0.00  0.00    +0.000 A 
ATOM     12  C   UNL     1      45.121   3.970   8.327  0.00  0.00    +0.000 A 
ATOM     13  C   UNL     1      44.964   2.835   9.131  0.00  0.00    +0.000 A 
ATOM     14  C   UNL     1      45.617   1.649   8.763  0.00  0.00    +0.000 A 
ATOM     15  C   UNL     1      46.418   1.603   7.618  0.00  0.00    +0.000 A 
BRANCH  10  16
ATOM     16  C   UNL     1      47.463   2.707   5.596  0.00  0.00    +0.000 C 
BRANCH  16  17
ATOM     17  N   UNL     1      48.536   1.728   5.741  0.00  0.00    +0.000 NA
ATOM     18  H   UNL     1      48.635   1.207   4.873  0.00  0.00    +0.000 HD
ATOM     19  H   UNL     1      48.272   1.056   6.460  0.00  0.00    +0.000 HD
ENDBRANCH  16  17
ENDBRANCH  10  16
ENDBRANCH   9  13
ENDBRANCH   1   9
BRANCH   6  20
ATOM     20  O   UNL     1      44.954   7.418  11.545  0.00  0.00    +0.000 OA
BRANCH  20  21
ATOM     21  C   UNL     1      45.585   8.569  12.131  0.00  0.00    +0.000 C 
BRANCH  21  22
ATOM     22  C   UNL     1      44.792   9.819  11.796  0.00  0.00    +0.000 C 
ATOM     23  F   UNL     1      43.795   9.512  10.921  0.00  0.00    +0.000 F 
ENDBRANCH  21  22
ENDBRANCH  20  21
ENDBRANCH   6  20
TORSDOF 7
ENDMDL
MODEL 3
REMARK VINA RESULT:    -6.558      1.662      2.073
REMARK INTER + INTRA:          -9.505
REMARK INTER:                  -9.099
REMARK INTRA:                  -0.406
REMARK UNBOUND:                -0.455
REMARK  Name = 
REMARK  7 active torsions:
REMARK  status: ('A' for Active; 'I' for Inactive)
REMARK    1  A    between atoms: N_1  and  C_2
REMARK    2  A    between atoms: C_2  and  C_3
REMARK    3  A    between atoms: C_6  and  C_7
REMARK    4  A    between atoms: C_7  and  N_8
REMARK    5  A    between atoms: C_13  and  O_14
REMARK    6  A    between atoms: O_14  and  C_15
REMARK    7  A    between atoms: C_15  and  C_16
REMARK                            x       y       z     vdW  Elec       q    Type
REMARK                         _______ _______ _______ _____ _____    ______ ____
ROOT
ATOM      1  N   UNL     1      43.931   5.840  10.639  0.00  0.00    +0.000 N 
ATOM      2  C   UNL     1      44.764   6.629  11.458  0.00  0.00    +0.000 A 
ATOM      3  C   UNL     1      44.663   8.016  11.407  0.00  0.00    +0.000 A 
ATOM      4  C   UNL     1      45.485   8.789  12.229  0.00  0.00    +0.000 A 
ATOM      5  C   UNL     1      46.382   8.161  13.086  0.00  0.00    +0.000 A 
ATOM      6  C   UNL     1      46.437   6.785  13.052  0.00  0.00    +0.000 A 
ATOM      7  N   UNL     1      45.654   6.025  12.264  0.00  0.00    +0.000 NA
ATOM      8  H   UNL     1      42.963   6.075  10.835  0.00  0.00    +0.000 HD
ENDROOT
BRANCH   1   9
ATOM      9  C   UNL     1      44.178   4.410  10.823  0.00  0.00    +0.000 C 
BRANCH   9  13
ATOM     10  C   UNL     1      46.346   2.804   7.432  0.00  0.00    +0.000 A 
ATOM     11  C   UNL     1      45.731   1.947   8.357  0.00  0.00    +0.000 A 
ATOM     12  C   UNL     1      45.050   2.458   9.464  0.00  0.00    +0.000 A 
ATOM     13  C   UNL     1      44.980   3.840   9.677  0.00  0.00    +0.000 A 
ATOM     14  C   UNL     1      45.608   4.698   8.762  0.00  0.00    +0.000 A 
ATOM     15  C   UNL     1      46.285   4.185   7.652  0.00  0.00    +0.000 A 
BRANCH  10  16
ATOM     16  C   UNL     1      47.054   2.241   6.227  0.00  0.00    +0.000 C 
BRANCH  16  17
ATOM     17  N   UNL     1      48.194   1.419   6.618  0.00  0.00    +0.000 NA
ATOM     18  H   UNL     1      48.511   1.700   7.542  0.00  0.00    +0.000 HD
ATOM     19  H   UNL     1      48.964   1.600   5.976  0.00  0.00    +0.000 HD
ENDBRANCH  16  17
ENDBRANCH  10  16
ENDBRANCH   9  13
ENDBRANCH   1   9
BRANCH   6  20
ATOM     20  O   UNL     1      47.299   6.141  13.919  0.00  0.00    +0.000 OA
BRANCH  20  21
ATOM     21  C   UNL     1      48.573   6.805  13.978  0.00  0.00    +0.000 C 
BRANCH  21  22
ATOM     22  C   UNL     1      49.059   6.860  15.414  0.00  0.00    +0.000 C 
ATOM     23  F   UNL     1      48.661   5.742  16.080  0.00  0.00    +0.000 F 
ENDBRANCH  21  22
ENDBRANCH  20  21
ENDBRANCH   6  20
TORSDOF 7
ENDMDL
MODEL 4
REMARK VINA RESULT:    -6.260      3.375      6.978
REMARK INTER + INTRA:          -9.094
REMARK INTER:                  -8.550
REMARK INTRA:                  -0.544
REMARK UNBOUND:                -0.455
REMARK  Name = 
REMARK  7 active torsions:
REMARK  status: ('A' for Active; 'I' for Inactive)
REMARK    1  A    between atoms: N_1  and  C_2
REMARK    2  A    between atoms: C_2  and  C_3
REMARK    3  A    between atoms: C_6  and  C_7
REMARK    4  A    between atoms: C_7  and  N_8
REMARK    5  A    between atoms: C_13  and  O_14
REMARK    6  A    between atoms: O_14  and  C_15
REMARK    7  A    between atoms: C_15  and  C_16
REMARK                            x       y       z     vdW  Elec       q    Type
REMARK                         _______ _______ _______ _____ _____    ______ ____
ROOT
ATOM      1  N   UNL     1      44.641   5.376  11.423  0.00  0.00    +0.000 N 
ATOM      2  C   UNL     1      44.785   4.428  10.390  0.00  0.00    +0.000 A 
ATOM      3  C   UNL     1      44.164   3.187  10.505  0.00  0.00    +0.000 A 
ATOM      4  C   UNL     1      44.304   2.258   9.473  0.00  0.00    +0.000 A 
ATOM      5  C   UNL     1      45.054   2.590   8.349  0.00  0.00    +0.000 A 
ATOM      6  C   UNL     1      45.657   3.828   8.329  0.00  0.00    +0.000 A 
ATOM      7  N   UNL     1      45.534   4.734   9.317  0.00  0.00    +0.000 NA
ATOM      8  H   UNL     1      43.650   5.550  11.570  0.00  0.00    +0.000 HD
ENDROOT
BRANCH   1   9
ATOM      9  C   UNL     1      45.362   6.615  11.133  0.00  0.00    +0.000 C 
BRANCH   9  13
ATOM     10  C   UNL     1      48.695   7.178  13.844  0.00  0.00    +0.000 A 
ATOM     11  C   UNL     1      47.791   6.120  14.033  0.00  0.00    +0.000 A 
ATOM     12  C   UNL     1      46.703   5.947  13.175  0.00  0.00    +0.000 A 
ATOM     13  C   UNL     1      46.487   6.838  12.117  0.00  0.00    +0.000 A 
ATOM     14  C   UNL     1      47.380   7.904  11.936  0.00  0.00    +0.000 A 
ATOM     15  C   UNL     1      48.472   8.072  12.792  0.00  0.00    +0.000 A 
BRANCH  10  16
ATOM     16  C   UNL     1      49.881   7.337  14.759  0.00  0.00    +0.000 C 
BRANCH  16  17
ATOM     17  N   UNL     1      51.086   7.679  14.011  0.00  0.00    +0.000 NA
ATOM     18  H   UNL     1      51.177   8.691  13.963  0.00  0.00    +0.000 HD
ATOM     19  H   UNL     1      50.982   7.348  13.053  0.00  0.00    +0.000 HD
ENDBRANCH  16  17
ENDBRANCH  10  16
ENDBRANCH   9  13
ENDBRANCH   1   9
BRANCH   6  20
ATOM     20  O   UNL     1      46.379   4.189   7.208  0.00  0.00    +0.000 OA
BRANCH  20  21
ATOM     21  C   UNL     1      46.610   3.060   6.350  0.00  0.00    +0.000 C 
BRANCH  21  22
ATOM     22  C   UNL     1      48.025   2.548   6.539  0.00  0.00    +0.000 C 
ATOM     23  F   UNL     1      48.010   1.419   7.299  0.00  0.00    +0.000 F 
ENDBRANCH  21  22
ENDBRANCH  20  21
ENDBRANCH   6  20
TORSDOF 7
ENDMDL
MODEL 5
REMARK VINA RESULT:    -6.111      3.967      7.635
REMARK INTER + INTRA:          -8.888
REMARK INTER:                  -8.293
REMARK INTRA:                  -0.595
REMARK UNBOUND:                -0.455
REMARK  Name = 
REMARK  7 active torsions:
REMARK  status: ('A' for Active; 'I' for Inactive)
REMARK    1  A    between atoms: N_1  and  C_2
REMARK    2  A    between atoms: C_2  and  C_3
REMARK    3  A    between atoms: C_6  and  C_7
REMARK    4  A    between atoms: C_7  and  N_8
REMARK    5  A    between atoms: C_13  and  O_14
REMARK    6  A    between atoms: O_14  and  C_15
REMARK    7  A    between atoms: C_15  and  C_16
REMARK                            x       y       z     vdW  Elec       q    Type
REMARK                         _______ _______ _______ _____ _____    ______ ____
ROOT
ATOM      1  N   UNL     1      47.898   5.745  15.741  0.00  0.00    +0.000 N 
ATOM      2  C   UNL     1      47.253   5.564  14.502  0.00  0.00    +0.000 A 
ATOM      3  C   UNL     1      47.437   6.500  13.488  0.00  0.00    +0.000 A 
ATOM      4  C   UNL     1      46.802   6.308  12.260  0.00  0.00    +0.000 A 
ATOM      5  C   UNL     1      46.003   5.185  12.070  0.00  0.00    +0.000 A 
ATOM      6  C   UNL     1      45.852   4.325  13.135  0.00  0.00    +0.000 A 
ATOM      7  N   UNL     1      46.456   4.496  14.326  0.00  0.00    +0.000 NA
ATOM      8  H   UNL     1      48.899   5.816  15.581  0.00  0.00    +0.000 HD
ENDROOT
BRANCH   1   9
ATOM      9  C   UNL     1      47.586   4.669  16.683  0.00  0.00    +0.000 C 
BRANCH   9  13
ATOM     10  C   UNL     1      51.192   2.419  17.526  0.00  0.00    +0.000 A 
ATOM     11  C   UNL     1      50.033   1.768  17.078  0.00  0.00    +0.000 A 
ATOM     12  C   UNL     1      48.861   2.485  16.826  0.00  0.00    +0.000 A 
ATOM     13  C   UNL     1      48.821   3.870  17.030  0.00  0.00    +0.000 A 
ATOM     14  C   UNL     1      49.974   4.520  17.492  0.00  0.00    +0.000 A 
ATOM     15  C   UNL     1      51.147   3.801  17.738  0.00  0.00    +0.000 A 
BRANCH  10  16
ATOM     16  C   UNL     1      52.458   1.638  17.768  0.00  0.00    +0.000 C 
BRANCH  16  17
ATOM     17  N   UNL     1      52.166   0.266  18.170  0.00  0.00    +0.000 NA
ATOM     18  H   UNL     1      52.381   0.152  19.157  0.00  0.00    +0.000 HD
ATOM     19  H   UNL     1      52.783  -0.364  17.659  0.00  0.00    +0.000 HD
ENDBRANCH  16  17
ENDBRANCH  10  16
ENDBRANCH   9  13
ENDBRANCH   1   9
BRANCH   6  20
ATOM     20  O   UNL     1      45.089   3.187  12.956  0.00  0.00    +0.000 OA
BRANCH  20  21
ATOM     21  C   UNL     1      43.737   3.516  12.596  0.00  0.00    +0.000 C 
BRANCH  21  22
ATOM     22  C   UNL     1      43.309   2.697  11.393  0.00  0.00    +0.000 C 
ATOM     23  F   UNL     1      44.281   2.735  10.440  0.00  0.00    +0.000 F 
ENDBRANCH  21  22
ENDBRANCH  20  21
ENDBRANCH   6  20
TORSDOF 7
ENDMDL
MODEL 6
REMARK VINA RESULT:    -6.088      3.415      7.799
REMARK INTER + INTRA:          -8.857
REMARK INTER:                  -8.478
REMARK INTRA:                  -0.379
REMARK UNBOUND:                -0.455
REMARK  Name = 
REMARK  7 active torsions:
REMARK  status: ('A' for Active; 'I' for Inactive)
REMARK    1  A    between atoms: N_1  and  C_2
REMARK    2  A    between atoms: C_2  and  C_3
REMARK    3  A    between atoms: C_6  and  C_7
REMARK    4  A    between atoms: C_7  and  N_8
REMARK    5  A    between atoms: C_13  and  O_14
REMARK    6  A    between atoms: O_14  and  C_15
REMARK    7  A    between atoms: C_15  and  C_16
REMARK                            x       y       z     vdW  Elec       q    Type
REMARK                         _______ _______ _______ _____ _____    ______ ____
ROOT
ATOM      1  N   UNL     1      46.013   5.476  13.988  0.00  0.00    +0.000 N 
ATOM      2  C   UNL     1      45.154   5.120  12.930  0.00  0.00    +0.000 A 
ATOM      3  C   UNL     1      44.086   5.950  12.603  0.00  0.00    +0.000 A 
ATOM      4  C   UNL     1      43.245   5.594  11.547  0.00  0.00    +0.000 A 
ATOM      5  C   UNL     1      43.492   4.422  10.839  0.00  0.00    +0.000 A 
ATOM      6  C   UNL     1      44.553   3.644  11.248  0.00  0.00    +0.000 A 
ATOM      7  N   UNL     1      45.372   3.973  12.265  0.00  0.00    +0.000 NA
ATOM      8  H   UNL     1      46.399   6.397  13.799  0.00  0.00    +0.000 HD
ENDROOT
BRANCH   1   9
ATOM      9  C   UNL     1      47.072   4.488  14.190  0.00  0.00    +0.000 C 
BRANCH   9  13
ATOM     10  C   UNL     1      48.431   4.662  18.302  0.00  0.00    +0.000 A 
ATOM     11  C   UNL     1      48.698   5.717  17.416  0.00  0.00    +0.000 A 
ATOM     12  C   UNL     1      48.282   5.656  16.084  0.00  0.00    +0.000 A 
ATOM     13  C   UNL     1      47.600   4.532  15.606  0.00  0.00    +0.000 A 
ATOM     14  C   UNL     1      47.346   3.469  16.485  0.00  0.00    +0.000 A 
ATOM     15  C   UNL     1      47.758   3.534  17.819  0.00  0.00    +0.000 A 
BRANCH  10  16
ATOM     16  C   UNL     1      48.860   4.751  19.743  0.00  0.00    +0.000 C 
BRANCH  16  17
ATOM     17  N   UNL     1      48.353   3.624  20.518  0.00  0.00    +0.000 NA
ATOM     18  H   UNL     1      47.379   3.791  20.758  0.00  0.00    +0.000 HD
ATOM     19  H   UNL     1      48.867   3.572  21.396  0.00  0.00    +0.000 HD
ENDBRANCH  16  17
ENDBRANCH  10  16
ENDBRANCH   9  13
ENDBRANCH   1   9
BRANCH   6  20
ATOM     20  O   UNL     1      44.835   2.493  10.538  0.00  0.00    +0.000 OA
BRANCH  20  21
ATOM     21  C   UNL     1      44.711   2.710   9.122  0.00  0.00    +0.000 C 
BRANCH  21  22
ATOM     22  C   UNL     1      45.866   2.046   8.395  0.00  0.00    +0.000 C 
ATOM     23  F   UNL     1      45.699   0.695   8.402  0.00  0.00    +0.000 F 
ENDBRANCH  21  22
ENDBRANCH  20  21
ENDBRANCH   6  20
TORSDOF 7
ENDMDL
MODEL 7
REMARK VINA RESULT:    -5.900      3.441      6.494
REMARK INTER + INTRA:          -8.597
REMARK INTER:                  -8.008
REMARK INTRA:                  -0.590
REMARK UNBOUND:                -0.455
REMARK  Name = 
REMARK  7 active torsions:
REMARK  status: ('A' for Active; 'I' for Inactive)
REMARK    1  A    between atoms: N_1  and  C_2
REMARK    2  A    between atoms: C_2  and  C_3
REMARK    3  A    between atoms: C_6  and  C_7
REMARK    4  A    between atoms: C_7  and  N_8
REMARK    5  A    between atoms: C_13  and  O_14
REMARK    6  A    between atoms: O_14  and  C_15
REMARK    7  A    between atoms: C_15  and  C_16
REMARK                            x       y       z     vdW  Elec       q    Type
REMARK                         _______ _______ _______ _____ _____    ______ ____
ROOT
ATOM      1  N   UNL     1      44.537   6.506  12.838  0.00  0.00    +0.000 N 
ATOM      2  C   UNL     1      44.257   5.292  12.180  0.00  0.00    +0.000 A 
ATOM      3  C   UNL     1      43.846   4.188  12.922  0.00  0.00    +0.000 A 
ATOM      4  C   UNL     1      43.562   2.991  12.262  0.00  0.00    +0.000 A 
ATOM      5  C   UNL     1      43.687   2.926  10.877  0.00  0.00    +0.000 A 
ATOM      6  C   UNL     1      44.127   4.056  10.225  0.00  0.00    +0.000 A 
ATOM      7  N   UNL     1      44.407   5.217  10.847  0.00  0.00    +0.000 NA
ATOM      8  H   UNL     1      43.715   6.790  13.364  0.00  0.00    +0.000 HD
ENDROOT
BRANCH   1   9
ATOM      9  C   UNL     1      44.956   7.551  11.903  0.00  0.00    +0.000 C 
BRANCH   9  13
ATOM     10  C   UNL     1      49.151   8.575  12.265  0.00  0.00    +0.000 A 
ATOM     11  C   UNL     1      48.745   7.232  12.227  0.00  0.00    +0.000 A 
ATOM     12  C   UNL     1      47.392   6.896  12.133  0.00  0.00    +0.000 A 
ATOM     13  C   UNL     1      46.415   7.898  12.088  0.00  0.00    +0.000 A 
ATOM     14  C   UNL     1      46.819   9.240  12.142  0.00  0.00    +0.000 A 
ATOM     15  C   UNL     1      48.173   9.574  12.230  0.00  0.00    +0.000 A 
BRANCH  10  16
ATOM     16  C   UNL     1      50.615   8.925  12.338  0.00  0.00    +0.000 C 
BRANCH  16  17
ATOM     17  N   UNL     1      51.345   7.976  13.172  0.00  0.00    +0.000 NA
ATOM     18  H   UNL     1      52.229   7.745  12.726  0.00  0.00    +0.000 HD
ATOM     19  H   UNL     1      50.810   7.111  13.231  0.00  0.00    +0.000 HD
ENDBRANCH  16  17
ENDBRANCH  10  16
ENDBRANCH   9  13
ENDBRANCH   1   9
BRANCH   6  20
ATOM     20  O   UNL     1      44.227   4.022   8.847  0.00  0.00    +0.000 OA
BRANCH  20  21
ATOM     21  C   UNL     1      45.593   4.151   8.420  0.00  0.00    +0.000 C 
BRANCH  21  22
ATOM     22  C   UNL     1      46.042   2.875   7.733  0.00  0.00    +0.000 C 
ATOM     23  F   UNL     1      46.068   1.852   8.631  0.00  0.00    +0.000 F 
ENDBRANCH  21  22
ENDBRANCH  20  21
ENDBRANCH   6  20
TORSDOF 7
ENDMDL
MODEL 8
REMARK VINA RESULT:    -5.686      3.044      5.022
REMARK INTER + INTRA:          -8.303
REMARK INTER:                  -7.796
REMARK INTRA:                  -0.507
REMARK UNBOUND:                -0.455
REMARK  Name = 
REMARK  7 active torsions:
REMARK  status: ('A' for Active; 'I' for Inactive)
REMARK    1  A    between atoms: N_1  and  C_2
REMARK    2  A    between atoms: C_2  and  C_3
REMARK    3  A    between atoms: C_6  and  C_7
REMARK    4  A    between atoms: C_7  and  N_8
REMARK    5  A    between atoms: C_13  and  O_14
REMARK    6  A    between atoms: O_14  and  C_15
REMARK    7  A    between atoms: C_15  and  C_16
REMARK                            x       y       z     vdW  Elec       q    Type
REMARK                         _______ _______ _______ _____ _____    ______ ____
ROOT
ATOM      1  N   UNL     1      46.768   3.941  15.068  0.00  0.00    +0.000 N 
ATOM      2  C   UNL     1      47.562   4.059  16.226  0.00  0.00    +0.000 A 
ATOM      3  C   UNL     1      47.505   3.069  17.203  0.00  0.00    +0.000 A 
ATOM      4  C   UNL     1      48.303   3.189  18.342  0.00  0.00    +0.000 A 
ATOM      5  C   UNL     1      49.142   4.290  18.477  0.00  0.00    +0.000 A 
ATOM      6  C   UNL     1      49.115   5.238  17.478  0.00  0.00    +0.000 A 
ATOM      7  N   UNL     1      48.351   5.138  16.374  0.00  0.00    +0.000 NA
ATOM      8  H   UNL     1      46.986   3.060  14.611  0.00  0.00    +0.000 HD
ENDROOT
BRANCH   1   9
ATOM      9  C   UNL     1      46.954   5.071  14.158  0.00  0.00    +0.000 C 
BRANCH   9  13
ATOM     10  C   UNL     1      44.945   4.384  10.381  0.00  0.00    +0.000 A 
ATOM     11  C   UNL     1      45.547   5.622  10.655  0.00  0.00    +0.000 A 
ATOM     12  C   UNL     1      46.176   5.857  11.880  0.00  0.00    +0.000 A 
ATOM     13  C   UNL     1      46.206   4.861  12.862  0.00  0.00    +0.000 A 
ATOM     14  C   UNL     1      45.592   3.628  12.596  0.00  0.00    +0.000 A 
ATOM     15  C   UNL     1      44.968   3.393  11.368  0.00  0.00    +0.000 A 
BRANCH  10  16
ATOM     16  C   UNL     1      44.294   4.134   9.045  0.00  0.00    +0.000 C 
BRANCH  16  17
ATOM     17  N   UNL     1      44.341   2.720   8.689  0.00  0.00    +0.000 NA
ATOM     18  H   UNL     1      43.395   2.378   8.540  0.00  0.00    +0.000 HD
ATOM     19  H   UNL     1      44.723   2.197   9.475  0.00  0.00    +0.000 HD
ENDBRANCH  16  17
ENDBRANCH  10  16
ENDBRANCH   9  13
ENDBRANCH   1   9
BRANCH   6  20
ATOM     20  O   UNL     1      49.965   6.323  17.578  0.00  0.00    +0.000 OA
BRANCH  20  21
ATOM     21  C   UNL     1      51.054   6.221  16.645  0.00  0.00    +0.000 C 
BRANCH  21  22
ATOM     22  C   UNL     1      52.307   5.757  17.363  0.00  0.00    +0.000 C 
ATOM     23  F   UNL     1      52.502   4.429  17.141  0.00  0.00    +0.000 F 
ENDBRANCH  21  22
ENDBRANCH  20  21
ENDBRANCH   6  20
TORSDOF 7
ENDMDL
MODEL 9
REMARK VINA RESULT:    -5.581      3.632      4.942
REMARK INTER + INTRA:          -8.158
REMARK INTER:                  -7.569
REMARK INTRA:                  -0.589
REMARK UNBOUND:                -0.455
REMARK  Name = 
REMARK  7 active torsions:
REMARK  status: ('A' for Active; 'I' for Inactive)
REMARK    1  A    between atoms: N_1  and  C_2
REMARK    2  A    between atoms: C_2  and  C_3
REMARK    3  A    between atoms: C_6  and  C_7
REMARK    4  A    between atoms: C_7  and  N_8
REMARK    5  A    between atoms: C_13  and  O_14
REMARK    6  A    between atoms: O_14  and  C_15
REMARK    7  A    between atoms: C_15  and  C_16
REMARK                            x       y       z     vdW  Elec       q    Type
REMARK                         _______ _______ _______ _____ _____    ______ ____
ROOT
ATOM      1  N   UNL     1      48.190   7.592  13.840  0.00  0.00    +0.000 N 
ATOM      2  C   UNL     1      48.665   7.328  15.140  0.00  0.00    +0.000 A 
ATOM      3  C   UNL     1      48.679   8.348  16.087  0.00  0.00    +0.000 A 
ATOM      4  C   UNL     1      49.142   8.075  17.376  0.00  0.00    +0.000 A 
ATOM      5  C   UNL     1      49.573   6.790  17.691  0.00  0.00    +0.000 A 
ATOM      6  C   UNL     1      49.551   5.848  16.686  0.00  0.00    +0.000 A 
ATOM      7  N   UNL     1      49.111   6.096  15.439  0.00  0.00    +0.000 NA
ATOM      8  H   UNL     1      47.242   7.951  13.905  0.00  0.00    +0.000 HD
ENDROOT
BRANCH   1   9
ATOM      9  C   UNL     1      48.252   6.408  12.983  0.00  0.00    +0.000 C 
BRANCH   9  13
ATOM     10  C   UNL     1      44.354   4.880  11.865  0.00  0.00    +0.000 A 
ATOM     11  C   UNL     1      45.017   5.810  11.050  0.00  0.00    +0.000 A 
ATOM     12  C   UNL     1      46.264   6.323  11.416  0.00  0.00    +0.000 A 
ATOM     13  C   UNL     1      46.869   5.925  12.614  0.00  0.00    +0.000 A 
ATOM     14  C   UNL     1      46.200   5.008  13.438  0.00  0.00    +0.000 A 
ATOM     15  C   UNL     1      44.956   4.491  13.068  0.00  0.00    +0.000 A 
BRANCH  10  16
ATOM     16  C   UNL     1      43.023   4.313  11.445  0.00  0.00    +0.000 C 
BRANCH  16  17
ATOM     17  N   UNL     1      43.027   2.855  11.497  0.00  0.00    +0.000 NA
ATOM     18  H   UNL     1      43.985   2.524  11.573  0.00  0.00    +0.000 HD
ATOM     19  H   UNL     1      42.661   2.495  10.617  0.00  0.00    +0.000 HD
ENDBRANCH  16  17
ENDBRANCH  10  16
ENDBRANCH   9  13
ENDBRANCH   1   9
BRANCH   6  20
ATOM     20  O   UNL     1      49.945   4.558  16.987  0.00  0.00    +0.000 OA
BRANCH  20  21
ATOM     21  C   UNL     1      48.987   3.905  17.838  0.00  0.00    +0.000 C 
BRANCH  21  22
ATOM     22  C   UNL     1      48.175   2.910  17.031  0.00  0.00    +0.000 C 
ATOM     23  F   UNL     1      46.896   2.874  17.494  0.00  0.00    +0.000 F 
ENDBRANCH  21  22
ENDBRANCH  20  21
ENDBRANCH   6  20
TORSDOF 7
ENDMDL
