MODEL 1
REMARK VINA RESULT:    -6.545      0.000      0.000
REMARK INTER + INTRA:          -8.815
REMARK INTER:                  -8.267
REMARK INTRA:                  -0.548
REMARK UNBOUND:                -0.548
REMARK  Name = 
REMARK  7 active torsions:
REMARK  status: ('A' for Active; 'I' for Inactive)
REMARK    1  A    between atoms: C_1  and  N_2
REMARK    2  A    between atoms: N_2  and  C_3
REMARK    3  A    between atoms: N_2  and  C_4
REMARK    4  A    between atoms: C_4  and  C_5
REMARK    5  A    between atoms: C_8  and  C_9
REMARK    6  A    between atoms: C_9  and  N_10
REMARK    7  A    between atoms: C_16  and  O_17
REMARK                            x       y       z     vdW  Elec       q    Type
REMARK                         _______ _______ _______ _____ _____    ______ ____
ROOT
ATOM      1  C   UNL     1      45.334   5.377  12.070  0.00  0.00    +0.000 C 
ENDROOT
BRANCH   1   2
ATOM      2  N   UNL     1      44.412   4.986  10.996  0.00  0.00    +0.000 N 
ATOM      3  C   UNL     1      43.248   4.288  11.306  0.00  0.00    +0.000 A 
ATOM      4  C   UNL     1      43.562   2.956  11.088  0.00  0.00    +0.000 A 
ATOM      5  C   UNL     1      44.460   3.012   9.990  0.00  0.00    +0.000 A 
ATOM      6  C   UNL     1      44.901   2.092   9.036  0.00  0.00    +0.000 A 
ATOM      7  C   UNL     1      45.649   2.594   7.974  0.00  0.00    +0.000 A 
ATOM      8  C   UNL     1      46.008   3.927   7.970  0.00  0.00    +0.000 A 
ATOM      9  N   UNL     1      45.709   4.841   8.933  0.00  0.00    +0.000 NA
ATOM     10  C   UNL     1      44.908   4.330   9.886  0.00  0.00    +0.000 A 
BRANCH   8  11
ATOM     11  O   UNL     1      46.712   4.449   6.921  0.00  0.00    +0.000 OA
ATOM     12  H   UNL     1      46.688   3.803   6.205  0.00  0.00    +0.000 HD
ENDBRANCH   8  11
ENDBRANCH   1   2
BRANCH   1  16
ATOM     13  C   UNL     1      47.126   9.237  12.136  0.00  0.00    +0.000 A 
ATOM     14  C   UNL     1      47.931   8.144  11.833  0.00  0.00    +0.000 A 
ATOM     15  C   UNL     1      47.362   6.870  11.737  0.00  0.00    +0.000 A 
ATOM     16  C   UNL     1      45.988   6.722  11.953  0.00  0.00    +0.000 A 
ATOM     17  C   UNL     1      45.263   7.875  12.228  0.00  0.00    +0.000 A 
ATOM     18  N   UNL     1      45.779   9.110  12.320  0.00  0.00    +0.000 NA
BRANCH  13  19
ATOM     19  C   UNL     1      47.707  10.633  12.246  0.00  0.00    +0.000 C 
BRANCH  19  21
ATOM     20  C   UNL     1      49.093  11.516  10.462  0.00  0.00    +0.000 C 
ATOM     21  N   UNL     1      49.083  10.746  11.712  0.00  0.00    +0.000 NA
ATOM     22  C   UNL     1      49.947  11.396  12.696  0.00  0.00    +0.000 C 
ENDBRANCH  19  21
ENDBRANCH  13  19
ENDBRANCH   1  16
TORSDOF 5
ENDMDL
MODEL 2
REMARK VINA RESULT:    -5.869      4.773      7.746
REMARK INTER + INTRA:          -7.961
REMARK INTER:                  -8.381
REMARK INTRA:                   0.420
REMARK UNBOUND:                -0.548
REMARK  Name = 
REMARK  7 active torsions:
REMARK  status: ('A' for Active; 'I' for Inactive)
REMARK    1  A    between atoms: C_1  and  N_2
REMARK    2  A    between atoms: N_2  and  C_3
REMARK    3  A    between atoms: N_2  and  C_4
REMARK    4  A    between atoms: C_4  and  C_5
REMARK    5  A    between atoms: C_8  and  C_9
REMARK    6  A    between atoms: C_9  and  N_10
REMARK    7  A    between atoms: C_16  and  O_17
REMARK                            x       y       z     vdW  Elec       q    Type
REMARK                         _______ _______ _______ _____ _____    ______ ____
ROOT
ATOM      1  C   UNL     1      48.328   6.220  14.188  0.00  0.00    +0.000 C 
ENDROOT
BRANCH   1   2
ATOM      2  N   UNL     1      48.337   6.411  15.644  0.00  0.00    +0.000 N 
ATOM      3  C   UNL     1      49.288   7.245  16.225  0.00  0.00    +0.000 A 
ATOM      4  C   UNL     1      50.297   6.395  16.649  0.00  0.00    +0.000 A 
ATOM      5  C   UNL     1      49.592   5.225  17.033  0.00  0.00    +0.000 A 
ATOM      6  C   UNL     1      49.883   4.127  17.846  0.00  0.00    +0.000 A 
ATOM      7  C   UNL     1      48.831   3.263  18.141  0.00  0.00    +0.000 A 
ATOM      8  C   UNL     1      47.604   3.462  17.540  0.00  0.00    +0.000 A 
ATOM      9  N   UNL     1      47.298   4.442  16.647  0.00  0.00    +0.000 NA
ATOM     10  C   UNL     1      48.317   5.304  16.470  0.00  0.00    +0.000 A 
BRANCH   8  11
ATOM     11  O   UNL     1      46.548   2.648  17.841  0.00  0.00    +0.000 OA
ATOM     12  H   UNL     1      45.746   3.182  17.790  0.00  0.00    +0.000 HD
ENDBRANCH   8  11
ENDBRANCH   1   2
BRANCH   1  16
ATOM     13  C   UNL     1      44.425   5.346  12.733  0.00  0.00    +0.000 A 
ATOM     14  C   UNL     1      44.917   6.636  12.561  0.00  0.00    +0.000 A 
ATOM     15  C   UNL     1      46.219   6.940  12.968  0.00  0.00    +0.000 A 
ATOM     16  C   UNL     1      47.003   5.936  13.544  0.00  0.00    +0.000 A 
ATOM     17  C   UNL     1      46.434   4.673  13.653  0.00  0.00    +0.000 A 
ATOM     18  N   UNL     1      45.190   4.349  13.267  0.00  0.00    +0.000 NA
BRANCH  13  19
ATOM     19  C   UNL     1      43.018   4.979  12.303  0.00  0.00    +0.000 C 
BRANCH  19  21
ATOM     20  C   UNL     1      43.908   4.480  10.102  0.00  0.00    +0.000 C 
ATOM     21  N   UNL     1      42.974   4.051  11.150  0.00  0.00    +0.000 NA
ATOM     22  C   UNL     1      43.315   2.697  11.587  0.00  0.00    +0.000 C 
ENDBRANCH  19  21
ENDBRANCH  13  19
ENDBRANCH   1  16
TORSDOF 5
ENDMDL
MODEL 3
REMARK VINA RESULT:    -5.800      5.438      6.503
REMARK INTER + INTRA:          -7.874
REMARK INTER:                  -7.477
REMARK INTRA:                  -0.397
REMARK UNBOUND:                -0.548
REMARK  Name = 
REMARK  7 active torsions:
REMARK  status: ('A' for Active; 'I' for Inactive)
REMARK    1  A    between atoms: C_1  and  N_2
REMARK    2  A    between atoms: N_2  and  C_3
REMARK    3  A    between atoms: N_2  and  C_4
REMARK    4  A    between atoms: C_4  and  C_5
REMARK    5  A    between atoms: C_8  and  C_9
REMARK    6  A    between atoms: C_9  and  N_10
REMARK    7  A    between atoms: C_16  and  O_17
REMARK                            x       y       z     vdW  Elec       q    Type
REMARK                         _______ _______ _______ _____ _____    ______ ____
ROOT
ATOM      1  C   UNL     1      46.371   4.652  14.977  0.00  0.00    +0.000 C 
ENDROOT
BRANCH   1   2
ATOM      2  N   UNL     1      46.462   4.605  13.513  0.00  0.00    +0.000 N 
ATOM      3  C   UNL     1      47.068   5.652  12.825  0.00  0.00    +0.000 A 
ATOM      4  C   UNL     1      46.023   6.464  12.417  0.00  0.00    +0.000 A 
ATOM      5  C   UNL     1      44.978   5.540  12.157  0.00  0.00    +0.000 A 
ATOM      6  C   UNL     1      43.796   5.579  11.415  0.00  0.00    +0.000 A 
ATOM      7  C   UNL     1      43.120   4.373  11.238  0.00  0.00    +0.000 A 
ATOM      8  C   UNL     1      43.579   3.241  11.882  0.00  0.00    +0.000 A 
ATOM      9  N   UNL     1      44.655   3.171  12.713  0.00  0.00    +0.000 NA
ATOM     10  C   UNL     1      45.325   4.336  12.774  0.00  0.00    +0.000 A 
BRANCH   8  11
ATOM     11  O   UNL     1      42.954   2.040  11.695  0.00  0.00    +0.000 OA
ATOM     12  H   UNL     1      42.705   1.704  12.564  0.00  0.00    +0.000 HD
ENDBRANCH   8  11
ENDBRANCH   1   2
BRANCH   1  16
ATOM     13  C   UNL     1      49.769   4.027  17.464  0.00  0.00    +0.000 A 
ATOM     14  C   UNL     1      48.955   2.936  17.176  0.00  0.00    +0.000 A 
ATOM     15  C   UNL     1      47.868   3.092  16.310  0.00  0.00    +0.000 A 
ATOM     16  C   UNL     1      47.621   4.349  15.750  0.00  0.00    +0.000 A 
ATOM     17  C   UNL     1      48.501   5.372  16.078  0.00  0.00    +0.000 A 
ATOM     18  N   UNL     1      49.555   5.253  16.901  0.00  0.00    +0.000 NA
BRANCH  13  19
ATOM     19  C   UNL     1      50.957   3.896  18.397  0.00  0.00    +0.000 C 
BRANCH  19  21
ATOM     20  C   UNL     1      53.167   4.737  17.858  0.00  0.00    +0.000 C 
ATOM     21  N   UNL     1      52.231   3.618  17.698  0.00  0.00    +0.000 NA
ATOM     22  C   UNL     1      52.833   2.395  18.228  0.00  0.00    +0.000 C 
ENDBRANCH  19  21
ENDBRANCH  13  19
ENDBRANCH   1  16
TORSDOF 5
ENDMDL
MODEL 4
REMARK VINA RESULT:    -5.600      6.184      8.681
REMARK INTER + INTRA:          -7.620
REMARK INTER:                  -7.234
REMARK INTRA:                  -0.387
REMARK UNBOUND:                -0.548
REMARK  Name = 
REMARK  7 active torsions:
REMARK  status: ('A' for Active; 'I' for Inactive)
REMARK    1  A    between atoms: C_1  and  N_2
REMARK    2  A    between atoms: N_2  and  C_3
REMARK    3  A    between atoms: N_2  and  C_4
REMARK    4  A    between atoms: C_4  and  C_5
REMARK    5  A    between atoms: C_8  and  C_9
REMARK    6  A    between atoms: C_9  and  N_10
REMARK    7  A    between atoms: C_16  and  O_17
REMARK                            x       y       z     vdW  Elec       q    Type
REMARK                         _______ _______ _______ _____ _____    ______ ____
ROOT
ATOM      1  C   UNL     1      48.741   6.144  16.472  0.00  0.00    +0.000 C 
ENDROOT
BRANCH   1   2
ATOM      2  N   UNL     1      48.835   5.305  17.673  0.00  0.00    +0.000 N 
ATOM      3  C   UNL     1      48.821   5.897  18.933  0.00  0.00    +0.000 A 
ATOM      4  C   UNL     1      50.155   6.005  19.291  0.00  0.00    +0.000 A 
ATOM      5  C   UNL     1      50.739   4.849  18.711  0.00  0.00    +0.000 A 
ATOM      6  C   UNL     1      51.916   4.129  18.931  0.00  0.00    +0.000 A 
ATOM      7  C   UNL     1      52.039   2.905  18.277  0.00  0.00    +0.000 A 
ATOM      8  C   UNL     1      51.067   2.518  17.376  0.00  0.00    +0.000 A 
ATOM      9  N   UNL     1      49.961   3.235  17.033  0.00  0.00    +0.000 NA
ATOM     10  C   UNL     1      49.840   4.361  17.760  0.00  0.00    +0.000 A 
BRANCH   8  11
ATOM     11  O   UNL     1      51.148   1.307  16.750  0.00  0.00    +0.000 OA
ATOM     12  H   UNL     1      51.546   1.454  15.884  0.00  0.00    +0.000 HD
ENDBRANCH   8  11
ENDBRANCH   1   2
BRANCH   1  16
ATOM     13  C   UNL     1      46.282   4.628  13.346  0.00  0.00    +0.000 A 
ATOM     14  C   UNL     1      47.057   5.754  13.086  0.00  0.00    +0.000 A 
ATOM     15  C   UNL     1      47.925   6.240  14.068  0.00  0.00    +0.000 A 
ATOM     16  C   UNL     1      47.995   5.580  15.300  0.00  0.00    +0.000 A 
ATOM     17  C   UNL     1      47.201   4.452  15.458  0.00  0.00    +0.000 A 
ATOM     18  N   UNL     1      46.363   3.958  14.533  0.00  0.00    +0.000 NA
BRANCH  13  19
ATOM     19  C   UNL     1      45.331   4.072  12.305  0.00  0.00    +0.000 C 
BRANCH  19  21
ATOM     20  C   UNL     1      43.157   4.856  13.041  0.00  0.00    +0.000 C 
ATOM     21  N   UNL     1      44.014   3.679  12.855  0.00  0.00    +0.000 NA
ATOM     22  C   UNL     1      43.360   2.732  11.952  0.00  0.00    +0.000 C 
ENDBRANCH  19  21
ENDBRANCH  13  19
ENDBRANCH   1  16
TORSDOF 5
ENDMDL
MODEL 5
REMARK VINA RESULT:    -5.253      4.517      7.911
REMARK INTER + INTRA:          -7.183
REMARK INTER:                  -7.160
REMARK INTRA:                  -0.023
REMARK UNBOUND:                -0.548
REMARK  Name = 
REMARK  7 active torsions:
REMARK  status: ('A' for Active; 'I' for Inactive)
REMARK    1  A    between atoms: C_1  and  N_2
REMARK    2  A    between atoms: N_2  and  C_3
REMARK    3  A    between atoms: N_2  and  C_4
REMARK    4  A    between atoms: C_4  and  C_5
REMARK    5  A    between atoms: C_8  and  C_9
REMARK    6  A    between atoms: C_9  and  N_10
REMARK    7  A    between atoms: C_16  and  O_17
REMARK                            x       y       z     vdW  Elec       q    Type
REMARK                         _______ _______ _______ _____ _____    ______ ____
ROOT
ATOM      1  C   UNL     1      48.487   6.742  13.577  0.00  0.00    +0.000 C 
ENDROOT
BRANCH   1   2
ATOM      2  N   UNL     1      48.682   7.184  14.964  0.00  0.00    +0.000 N 
ATOM      3  C   UNL     1      49.294   8.408  15.218  0.00  0.00    +0.000 A 
ATOM      4  C   UNL     1      50.621   8.099  15.464  0.00  0.00    +0.000 A 
ATOM      5  C   UNL     1      50.545   6.840  16.115  0.00  0.00    +0.000 A 
ATOM      6  C   UNL     1      51.405   6.105  16.933  0.00  0.00    +0.000 A 
ATOM      7  C   UNL     1      50.875   4.974  17.552  0.00  0.00    +0.000 A 
ATOM      8  C   UNL     1      49.587   4.578  17.248  0.00  0.00    +0.000 A 
ATOM      9  N   UNL     1      48.747   5.187  16.367  0.00  0.00    +0.000 NA
ATOM     10  C   UNL     1      49.270   6.323  15.870  0.00  0.00    +0.000 A 
BRANCH   8  11
ATOM     11  O   UNL     1      49.034   3.493  17.869  0.00  0.00    +0.000 OA
ATOM     12  H   UNL     1      48.539   2.999  17.205  0.00  0.00    +0.000 HD
ENDBRANCH   8  11
ENDBRANCH   1   2
BRANCH   1  16
ATOM     13  C   UNL     1      44.527   5.335  12.902  0.00  0.00    +0.000 A 
ATOM     14  C   UNL     1      44.832   6.641  12.533  0.00  0.00    +0.000 A 
ATOM     15  C   UNL     1      46.140   7.115  12.679  0.00  0.00    +0.000 A 
ATOM     16  C   UNL     1      47.117   6.260  13.199  0.00  0.00    +0.000 A 
ATOM     17  C   UNL     1      46.722   4.967  13.518  0.00  0.00    +0.000 A 
ATOM     18  N   UNL     1      45.478   4.482  13.383  0.00  0.00    +0.000 NA
BRANCH  13  19
ATOM     19  C   UNL     1      43.121   4.787  12.755  0.00  0.00    +0.000 C 
BRANCH  19  21
ATOM     20  C   UNL     1      43.693   4.588  10.407  0.00  0.00    +0.000 C 
ATOM     21  N   UNL     1      42.913   4.015  11.510  0.00  0.00    +0.000 NA
ATOM     22  C   UNL     1      43.305   2.621  11.716  0.00  0.00    +0.000 C 
ENDBRANCH  19  21
ENDBRANCH  13  19
ENDBRANCH   1  16
TORSDOF 5
ENDMDL
MODEL 6
REMARK VINA RESULT:    -5.237      5.382      6.913
REMARK INTER + INTRA:          -7.162
REMARK INTER:                  -6.956
REMARK INTRA:                  -0.206
REMARK UNBOUND:                -0.548
REMARK  Name = 
REMARK  7 active torsions:
REMARK  status: ('A' for Active; 'I' for Inactive)
REMARK    1  A    between atoms: C_1  and  N_2
REMARK    2  A    between atoms: N_2  and  C_3
REMARK    3  A    between atoms: N_2  and  C_4
REMARK    4  A    between atoms: C_4  and  C_5
REMARK    5  A    between atoms: C_8  and  C_9
REMARK    6  A    between atoms: C_9  and  N_10
REMARK    7  A    between atoms: C_16  and  O_17
REMARK                            x       y       z     vdW  Elec       q    Type
REMARK                         _______ _______ _______ _____ _____    ______ ____
ROOT
ATOM      1  C   UNL     1      47.412   3.337  14.580  0.00  0.00    +0.000 C 
ENDROOT
BRANCH   1   2
ATOM      2  N   UNL     1      47.575   3.311  16.039  0.00  0.00    +0.000 N 
ATOM      3  C   UNL     1      47.093   4.368  16.806  0.00  0.00    +0.000 A 
ATOM      4  C   UNL     1      48.190   5.187  17.016  0.00  0.00    +0.000 A 
ATOM      5  C   UNL     1      49.267   4.266  17.105  0.00  0.00    +0.000 A 
ATOM      6  C   UNL     1      50.560   4.317  17.631  0.00  0.00    +0.000 A 
ATOM      7  C   UNL     1      51.259   3.114  17.707  0.00  0.00    +0.000 A 
ATOM      8  C   UNL     1      50.699   1.972  17.168  0.00  0.00    +0.000 A 
ATOM      9  N   UNL     1      49.496   1.889  16.536  0.00  0.00    +0.000 NA
ATOM     10  C   UNL     1      48.822   3.054  16.574  0.00  0.00    +0.000 A 
BRANCH   8  11
ATOM     11  O   UNL     1      51.350   0.775  17.262  0.00  0.00    +0.000 OA
ATOM     12  H   UNL     1      51.027   0.329  18.054  0.00  0.00    +0.000 HD
ENDBRANCH   8  11
ENDBRANCH   1   2
BRANCH   1  16
ATOM     13  C   UNL     1      45.903   6.747  12.528  0.00  0.00    +0.000 A 
ATOM     14  C   UNL     1      44.992   5.812  13.007  0.00  0.00    +0.000 A 
ATOM     15  C   UNL     1      45.448   4.714  13.743  0.00  0.00    +0.000 A 
ATOM     16  C   UNL     1      46.819   4.578  13.980  0.00  0.00    +0.000 A 
ATOM     17  C   UNL     1      47.649   5.574  13.481  0.00  0.00    +0.000 A 
ATOM     18  N   UNL     1      47.242   6.641  12.777  0.00  0.00    +0.000 NA
BRANCH  13  19
ATOM     19  C   UNL     1      45.446   7.951  11.728  0.00  0.00    +0.000 C 
BRANCH  19  21
ATOM     20  C   UNL     1      46.854   9.878  12.160  0.00  0.00    +0.000 C 
ATOM     21  N   UNL     1      45.571   9.232  12.460  0.00  0.00    +0.000 NA
ATOM     22  C   UNL     1      44.472  10.125  12.094  0.00  0.00    +0.000 C 
ENDBRANCH  19  21
ENDBRANCH  13  19
ENDBRANCH   1  16
TORSDOF 5
ENDMDL
MODEL 7
REMARK VINA RESULT:    -4.871      2.915      3.966
REMARK INTER + INTRA:          -6.701
REMARK INTER:                  -6.165
REMARK INTRA:                  -0.536
REMARK UNBOUND:                -0.548
REMARK  Name = 
REMARK  7 active torsions:
REMARK  status: ('A' for Active; 'I' for Inactive)
REMARK    1  A    between atoms: C_1  and  N_2
REMARK    2  A    between atoms: N_2  and  C_3
REMARK    3  A    between atoms: N_2  and  C_4
REMARK    4  A    between atoms: C_4  and  C_5
REMARK    5  A    between atoms: C_8  and  C_9
REMARK    6  A    between atoms: C_9  and  N_10
REMARK    7  A    between atoms: C_16  and  O_17
REMARK                            x       y       z     vdW  Elec       q    Type
REMARK                         _______ _______ _______ _____ _____    ______ ____
ROOT
ATOM      1  C   UNL     1      47.029   6.860  11.813  0.00  0.00    +0.000 C 
ENDROOT
BRANCH   1   2
ATOM      2  N   UNL     1      46.247   6.224  12.881  0.00  0.00    +0.000 N 
ATOM      3  C   UNL     1      46.887   5.419  13.819  0.00  0.00    +0.000 A 
ATOM      4  C   UNL     1      46.713   4.125  13.356  0.00  0.00    +0.000 A 
ATOM      5  C   UNL     1      45.430   4.168  12.751  0.00  0.00    +0.000 A 
ATOM      6  C   UNL     1      44.479   3.208  12.399  0.00  0.00    +0.000 A 
ATOM      7  C   UNL     1      43.228   3.675  12.000  0.00  0.00    +0.000 A 
ATOM      8  C   UNL     1      43.024   5.034  11.866  0.00  0.00    +0.000 A 
ATOM      9  N   UNL     1      43.951   6.008  12.079  0.00  0.00    +0.000 NA
ATOM     10  C   UNL     1      45.109   5.513  12.553  0.00  0.00    +0.000 A 
BRANCH   8  11
ATOM     11  O   UNL     1      41.797   5.516  11.510  0.00  0.00    +0.000 OA
ATOM     12  H   UNL     1      41.348   4.827  11.007  0.00  0.00    +0.000 HD
ENDBRANCH   8  11
ENDBRANCH   1   2
BRANCH   1  16
ATOM     13  C   UNL     1      50.070   9.389  13.384  0.00  0.00    +0.000 A 
ATOM     14  C   UNL     1      50.456   8.299  12.611  0.00  0.00    +0.000 A 
ATOM     15  C   UNL     1      49.482   7.485  12.025  0.00  0.00    +0.000 A 
ATOM     16  C   UNL     1      48.132   7.786  12.232  0.00  0.00    +0.000 A 
ATOM     17  C   UNL     1      47.844   8.908  12.998  0.00  0.00    +0.000 A 
ATOM     18  N   UNL     1      48.756   9.711  13.568  0.00  0.00    +0.000 NA
BRANCH  13  19
ATOM     19  C   UNL     1      51.099  10.295  14.033  0.00  0.00    +0.000 C 
BRANCH  19  21
ATOM     20  C   UNL     1      52.287   9.374  15.936  0.00  0.00    +0.000 C 
ATOM     21  N   UNL     1      51.139  10.183  15.508  0.00  0.00    +0.000 NA
ATOM     22  C   UNL     1      51.226  11.515  16.107  0.00  0.00    +0.000 C 
ENDBRANCH  19  21
ENDBRANCH  13  19
ENDBRANCH   1  16
TORSDOF 5
ENDMDL
MODEL 8
REMARK VINA RESULT:    -4.708      5.898      8.748
REMARK INTER + INTRA:          -6.494
REMARK INTER:                  -6.272
REMARK INTRA:                  -0.223
REMARK UNBOUND:                -0.548
REMARK  Name = 
REMARK  7 active torsions:
REMARK  status: ('A' for Active; 'I' for Inactive)
REMARK    1  A    between atoms: C_1  and  N_2
REMARK    2  A    between atoms: N_2  and  C_3
REMARK    3  A    between atoms: N_2  and  C_4
REMARK    4  A    between atoms: C_4  and  C_5
REMARK    5  A    between atoms: C_8  and  C_9
REMARK    6  A    between atoms: C_9  and  N_10
REMARK    7  A    between atoms: C_16  and  O_17
REMARK                            x       y       z     vdW  Elec       q    Type
REMARK                         _______ _______ _______ _____ _____    ______ ____
ROOT
ATOM      1  C   UNL     1      47.849   4.439  15.902  0.00  0.00    +0.000 C 
ENDROOT
BRANCH   1   2
ATOM      2  N   UNL     1      48.244   5.686  16.569  0.00  0.00    +0.000 N 
ATOM      3  C   UNL     1      49.364   6.382  16.124  0.00  0.00    +0.000 A 
ATOM      4  C   UNL     1      50.390   5.980  16.963  0.00  0.00    +0.000 A 
ATOM      5  C   UNL     1      49.734   5.788  18.206  0.00  0.00    +0.000 A 
ATOM      6  C   UNL     1      50.153   5.727  19.537  0.00  0.00    +0.000 A 
ATOM      7  C   UNL     1      49.158   5.724  20.513  0.00  0.00    +0.000 A 
ATOM      8  C   UNL     1      47.832   5.670  20.127  0.00  0.00    +0.000 A 
ATOM      9  N   UNL     1      47.372   5.605  18.848  0.00  0.00    +0.000 NA
ATOM     10  C   UNL     1      48.365   5.706  17.945  0.00  0.00    +0.000 A 
BRANCH   8  11
ATOM     11  O   UNL     1      46.839   5.703  21.065  0.00  0.00    +0.000 OA
ATOM     12  H   UNL     1      47.259   5.708  21.933  0.00  0.00    +0.000 HD
ENDBRANCH   8  11
ENDBRANCH   1   2
BRANCH   1  16
ATOM     13  C   UNL     1      45.614   4.655  12.286  0.00  0.00    +0.000 A 
ATOM     14  C   UNL     1      46.095   5.840  12.832  0.00  0.00    +0.000 A 
ATOM     15  C   UNL     1      46.889   5.800  13.983  0.00  0.00    +0.000 A 
ATOM     16  C   UNL     1      47.180   4.561  14.564  0.00  0.00    +0.000 A 
ATOM     17  C   UNL     1      46.674   3.432  13.934  0.00  0.00    +0.000 A 
ATOM     18  N   UNL     1      45.915   3.438  12.827  0.00  0.00    +0.000 NA
BRANCH  13  19
ATOM     19  C   UNL     1      44.752   4.659  11.038  0.00  0.00    +0.000 C 
BRANCH  19  21
ATOM     20  C   UNL     1      44.242   2.570   9.915  0.00  0.00    +0.000 C 
ATOM     21  N   UNL     1      45.190   3.686  10.012  0.00  0.00    +0.000 NA
ATOM     22  C   UNL     1      45.303   4.349   8.713  0.00  0.00    +0.000 C 
ENDBRANCH  19  21
ENDBRANCH  13  19
ENDBRANCH   1  16
TORSDOF 5
ENDMDL
MODEL 9
REMARK VINA RESULT:    -4.450      1.687      2.777
REMARK INTER + INTRA:          -6.168
REMARK INTER:                  -6.176
REMARK INTRA:                   0.008
REMARK UNBOUND:                -0.548
REMARK  Name = 
REMARK  7 active torsions:
REMARK  status: ('A' for Active; 'I' for Inactive)
REMARK    1  A    between atoms: C_1  and  N_2
REMARK    2  A    between atoms: N_2  and  C_3
REMARK    3  A    between atoms: N_2  and  C_4
REMARK    4  A    between atoms: C_4  and  C_5
REMARK    5  A    between atoms: C_8  and  C_9
REMARK    6  A    between atoms: C_9  and  N_10
REMARK    7  A    between atoms: C_16  and  O_17
REMARK                            x       y       z     vdW  Elec       q    Type
REMARK                         _______ _______ _______ _____ _____    ______ ____
ROOT
ATOM      1  C   UNL     1      47.416   6.553  12.363  0.00  0.00    +0.000 C 
ENDROOT
BRANCH   1   2
ATOM      2  N   UNL     1      46.098   6.782  11.759  0.00  0.00    +0.000 N 
ATOM      3  C   UNL     1      45.013   7.103  12.570  0.00  0.00    +0.000 A 
ATOM      4  C   UNL     1      44.356   5.903  12.781  0.00  0.00    +0.000 A 
ATOM      5  C   UNL     1      44.547   5.211  11.557  0.00  0.00    +0.000 A 
ATOM      6  C   UNL     1      43.909   4.141  10.925  0.00  0.00    +0.000 A 
ATOM      7  C   UNL     1      44.275   3.877   9.607  0.00  0.00    +0.000 A 
ATOM      8  C   UNL     1      45.305   4.597   9.033  0.00  0.00    +0.000 A 
ATOM      9  N   UNL     1      46.041   5.567   9.642  0.00  0.00    +0.000 NA
ATOM     10  C   UNL     1      45.588   5.848  10.877  0.00  0.00    +0.000 A 
BRANCH   8  11
ATOM     11  O   UNL     1      45.657   4.380   7.731  0.00  0.00    +0.000 OA
ATOM     12  H   UNL     1      45.265   5.086   7.203  0.00  0.00    +0.000 HD
ENDBRANCH   8  11
ENDBRANCH   1   2
BRANCH   1  16
ATOM     13  C   UNL     1      50.451   9.533  12.204  0.00  0.00    +0.000 A 
ATOM     14  C   UNL     1      50.620   8.382  11.442  0.00  0.00    +0.000 A 
ATOM     15  C   UNL     1      49.613   7.412  11.419  0.00  0.00    +0.000 A 
ATOM     16  C   UNL     1      48.452   7.621  12.170  0.00  0.00    +0.000 A 
ATOM     17  C   UNL     1      48.364   8.811  12.881  0.00  0.00    +0.000 A 
ATOM     18  N   UNL     1      49.310   9.762  12.918  0.00  0.00    +0.000 NA
BRANCH  13  19
ATOM     19  C   UNL     1      51.521  10.606  12.252  0.00  0.00    +0.000 C 
BRANCH  19  21
ATOM     20  C   UNL     1      52.511  11.088  10.091  0.00  0.00    +0.000 C 
ATOM     21  N   UNL     1      51.509  11.507  11.078  0.00  0.00    +0.000 NA
ATOM     22  C   UNL     1      50.183  11.505  10.462  0.00  0.00    +0.000 C 
ENDBRANCH  19  21
ENDBRANCH  13  19
ENDBRANCH   1  16
TORSDOF 5
ENDMDL
