MODEL 1
REMARK VINA RESULT:    -9.128      0.000      0.000
REMARK INTER + INTRA:         -12.788
REMARK INTER:                 -11.796
REMARK INTRA:                  -0.992
REMARK UNBOUND:                -0.992
REMARK  Name = 
REMARK  5 active torsions:
REMARK  status: ('A' for Active; 'I' for Inactive)
REMARK    1  A    between atoms: C_2  and  C_4
REMARK    2  A    between atoms: N_8  and  C_9
REMARK    3  A    between atoms: C_9  and  C_10
REMARK    4  A    between atoms: C_10  and  C_11
REMARK    5  A    between atoms: C_15  and  C_16
REMARK                            x       y       z     vdW  Elec       q    Type
REMARK                         _______ _______ _______ _____ _____    ______ ____
ROOT
ATOM      1  C   UNL     1      43.282   4.390  11.085  0.00  0.00    +0.000 C 
ENDROOT
BRANCH   1   6
ATOM      2  C   UNL     1      46.512   2.560   7.648  0.00  0.00    +0.000 A 
ATOM      3  C   UNL     1      45.612   1.887   8.467  0.00  0.00    +0.000 A 
ATOM      4  C   UNL     1      44.681   2.622   9.199  0.00  0.00    +0.000 A 
ATOM      5  C   UNL     1      44.680   4.012   9.122  0.00  0.00    +0.000 A 
ATOM      6  N   UNL     1      43.735   4.800   9.763  0.00  0.00    +0.000 N 
ATOM      7  N   UNL     1      45.568   4.676   8.358  0.00  0.00    +0.000 NA
ATOM      8  C   UNL     1      46.465   3.944   7.642  0.00  0.00    +0.000 A 
ATOM      9  H   UNL     1      44.051   5.766   9.678  0.00  0.00    +0.000 HD
BRANCH   2  11
ATOM     10  N   UNL     1      48.606   2.571   6.421  0.00  0.00    +0.000 N 
ATOM     11  C   UNL     1      47.499   1.859   6.803  0.00  0.00    +0.000 C 
ATOM     12  O   UNL     1      47.360   0.686   6.490  0.00  0.00    +0.000 OA
ATOM     13  H   UNL     1      49.326   2.053   5.933  0.00  0.00    +0.000 HD
ATOM     14  H   UNL     1      48.876   3.437   6.862  0.00  0.00    +0.000 HD
ENDBRANCH   2  11
ENDBRANCH   1   6
BRANCH   1  15
ATOM     15  C   UNL     1      43.442   5.526  12.098  0.00  0.00    +0.000 C 
BRANCH  15  16
ATOM     16  C   UNL     1      44.877   5.619  12.559  0.00  0.00    +0.000 A 
ATOM     17  C   UNL     1      45.462   4.577  13.283  0.00  0.00    +0.000 A 
ATOM     18  C   UNL     1      46.801   4.652  13.654  0.00  0.00    +0.000 A 
ATOM     19  C   UNL     1      47.567   5.763  13.295  0.00  0.00    +0.000 A 
ATOM     20  C   UNL     1      47.025   6.820  12.542  0.00  0.00    +0.000 A 
ATOM     21  C   UNL     1      45.665   6.724  12.192  0.00  0.00    +0.000 A 
BRANCH  20  22
ATOM     22  C   UNL     1      47.853   7.976  12.119  0.00  0.00    +0.000 A 
ATOM     23  C   UNL     1      47.340   9.287  12.104  0.00  0.00    +0.000 A 
ATOM     24  C   UNL     1      48.119  10.377  11.699  0.00  0.00    +0.000 A 
ATOM     25  C   UNL     1      49.441  10.183  11.310  0.00  0.00    +0.000 A 
ATOM     26  C   UNL     1      49.970   8.898  11.317  0.00  0.00    +0.000 A 
ATOM     27 CL   UNL     1      51.607   8.647  10.847  0.00  0.00    +0.000 Cl
ATOM     28  C   UNL     1      49.188   7.807  11.705  0.00  0.00    +0.000 A 
ENDBRANCH  20  22
ENDBRANCH  15  16
ENDBRANCH   1  15
TORSDOF 5
ENDMDL
MODEL 2
REMARK VINA RESULT:    -9.020      2.333      3.946
REMARK INTER + INTRA:         -12.647
REMARK INTER:                 -11.833
REMARK INTRA:                  -0.815
REMARK UNBOUND:                -0.992
REMARK  Name = 
REMARK  5 active torsions:
REMARK  status: ('A' for Active; 'I' for Inactive)
REMARK    1  A    between atoms: C_2  and  C_4
REMARK    2  A    between atoms: N_8  and  C_9
REMARK    3  A    between atoms: C_9  and  C_10
REMARK    4  A    between atoms: C_10  and  C_11
REMARK    5  A    between atoms: C_15  and  C_16
REMARK                            x       y       z     vdW  Elec       q    Type
REMARK                         _______ _______ _______ _____ _____    ______ ____
ROOT
ATOM      1  C   UNL     1      43.445   4.470  11.242  0.00  0.00    +0.000 C 
ENDROOT
BRANCH   1   6
ATOM      2  C   UNL     1      46.463   2.447   7.722  0.00  0.00    +0.000 A 
ATOM      3  C   UNL     1      45.689   1.821   8.692  0.00  0.00    +0.000 A 
ATOM      4  C   UNL     1      44.782   2.582   9.429  0.00  0.00    +0.000 A 
ATOM      5  C   UNL     1      44.681   3.952   9.203  0.00  0.00    +0.000 A 
ATOM      6  N   UNL     1      43.748   4.753   9.846  0.00  0.00    +0.000 N 
ATOM      7  N   UNL     1      45.450   4.574   8.289  0.00  0.00    +0.000 NA
ATOM      8  C   UNL     1      46.324   3.817   7.572  0.00  0.00    +0.000 A 
ATOM      9  H   UNL     1      43.990   5.719   9.627  0.00  0.00    +0.000 HD
BRANCH   2  11
ATOM     10  N   UNL     1      48.527   2.391   6.446  0.00  0.00    +0.000 N 
ATOM     11  C   UNL     1      47.414   1.711   6.864  0.00  0.00    +0.000 C 
ATOM     12  O   UNL     1      47.241   0.537   6.572  0.00  0.00    +0.000 OA
ATOM     13  H   UNL     1      49.223   1.851   5.949  0.00  0.00    +0.000 HD
ATOM     14  H   UNL     1      48.827   3.258   6.867  0.00  0.00    +0.000 HD
ENDBRANCH   2  11
ENDBRANCH   1   6
BRANCH   1  15
ATOM     15  C   UNL     1      43.690   5.701  12.118  0.00  0.00    +0.000 C 
BRANCH  15  16
ATOM     16  C   UNL     1      45.164   5.846  12.418  0.00  0.00    +0.000 A 
ATOM     17  C   UNL     1      45.989   6.605  11.584  0.00  0.00    +0.000 A 
ATOM     18  C   UNL     1      47.333   6.776  11.901  0.00  0.00    +0.000 A 
ATOM     19  C   UNL     1      47.859   6.198  13.059  0.00  0.00    +0.000 A 
ATOM     20  C   UNL     1      47.056   5.451  13.941  0.00  0.00    +0.000 A 
ATOM     21  C   UNL     1      45.703   5.284  13.588  0.00  0.00    +0.000 A 
BRANCH  20  22
ATOM     22  C   UNL     1      47.605   4.881  15.195  0.00  0.00    +0.000 A 
ATOM     23  C   UNL     1      47.388   3.536  15.553  0.00  0.00    +0.000 A 
ATOM     24  C   UNL     1      47.900   3.000  16.740  0.00  0.00    +0.000 A 
ATOM     25  C   UNL     1      48.657   3.795  17.595  0.00  0.00    +0.000 A 
ATOM     26  C   UNL     1      48.886   5.125  17.262  0.00  0.00    +0.000 A 
ATOM     27 CL   UNL     1      49.830   6.115  18.308  0.00  0.00    +0.000 Cl
ATOM     28  C   UNL     1      48.360   5.666  16.086  0.00  0.00    +0.000 A 
ENDBRANCH  20  22
ENDBRANCH  15  16
ENDBRANCH   1  15
TORSDOF 5
ENDMDL
MODEL 3
REMARK VINA RESULT:    -8.019      4.559      7.704
REMARK INTER + INTRA:         -11.354
REMARK INTER:                 -10.771
REMARK INTRA:                  -0.583
REMARK UNBOUND:                -0.992
REMARK  Name = 
REMARK  5 active torsions:
REMARK  status: ('A' for Active; 'I' for Inactive)
REMARK    1  A    between atoms: C_2  and  C_4
REMARK    2  A    between atoms: N_8  and  C_9
REMARK    3  A    between atoms: C_9  and  C_10
REMARK    4  A    between atoms: C_10  and  C_11
REMARK    5  A    between atoms: C_15  and  C_16
REMARK                            x       y       z     vdW  Elec       q    Type
REMARK                         _______ _______ _______ _____ _____    ______ ____
ROOT
ATOM      1  C   UNL     1      47.095   6.716  12.903  0.00  0.00    +0.000 C 
ENDROOT
BRANCH   1   6
ATOM      2  C   UNL     1      48.593   3.978  16.885  0.00  0.00    +0.000 A 
ATOM      3  C   UNL     1      48.782   5.329  16.615  0.00  0.00    +0.000 A 
ATOM      4  C   UNL     1      48.106   5.907  15.542  0.00  0.00    +0.000 A 
ATOM      5  C   UNL     1      47.276   5.125  14.744  0.00  0.00    +0.000 A 
ATOM      6  N   UNL     1      46.515   5.651  13.709  0.00  0.00    +0.000 N 
ATOM      7  N   UNL     1      47.111   3.809  14.975  0.00  0.00    +0.000 NA
ATOM      8  C   UNL     1      47.770   3.261  16.032  0.00  0.00    +0.000 A 
ATOM      9  H   UNL     1      46.132   4.858  13.194  0.00  0.00    +0.000 HD
BRANCH   2  11
ATOM     10  N   UNL     1      48.504   3.210  19.185  0.00  0.00    +0.000 N 
ATOM     11  C   UNL     1      49.232   3.296  18.028  0.00  0.00    +0.000 C 
ATOM     12  O   UNL     1      50.343   2.794  17.938  0.00  0.00    +0.000 OA
ATOM     13  H   UNL     1      48.905   2.650  19.927  0.00  0.00    +0.000 HD
ATOM     14  H   UNL     1      47.510   3.379  19.218  0.00  0.00    +0.000 HD
ENDBRANCH   2  11
ENDBRANCH   1   6
BRANCH   1  15
ATOM     15  C   UNL     1      46.061   7.302  11.939  0.00  0.00    +0.000 C 
BRANCH  15  16
ATOM     16  C   UNL     1      45.277   6.195  11.274  0.00  0.00    +0.000 A 
ATOM     17  C   UNL     1      43.931   5.990  11.584  0.00  0.00    +0.000 A 
ATOM     18  C   UNL     1      43.206   5.002  10.925  0.00  0.00    +0.000 A 
ATOM     19  C   UNL     1      43.819   4.219   9.945  0.00  0.00    +0.000 A 
ATOM     20  C   UNL     1      45.165   4.412   9.582  0.00  0.00    +0.000 A 
ATOM     21  C   UNL     1      45.877   5.409  10.275  0.00  0.00    +0.000 A 
BRANCH  20  22
ATOM     22  C   UNL     1      45.800   3.613   8.506  0.00  0.00    +0.000 A 
ATOM     23  C   UNL     1      46.310   4.217   7.340  0.00  0.00    +0.000 A 
ATOM     24  C   UNL     1      46.903   3.463   6.321  0.00  0.00    +0.000 A 
ATOM     25  C   UNL     1      47.015   2.082   6.450  0.00  0.00    +0.000 A 
ATOM     26  C   UNL     1      46.520   1.464   7.592  0.00  0.00    +0.000 A 
ATOM     27 CL   UNL     1      46.661  -0.243   7.767  0.00  0.00    +0.000 Cl
ATOM     28  C   UNL     1      45.911   2.213   8.602  0.00  0.00    +0.000 A 
ENDBRANCH  20  22
ENDBRANCH  15  16
ENDBRANCH   1  15
TORSDOF 5
ENDMDL
MODEL 4
REMARK VINA RESULT:    -8.007      1.509      2.184
REMARK INTER + INTRA:         -11.338
REMARK INTER:                 -10.843
REMARK INTRA:                  -0.495
REMARK UNBOUND:                -0.992
REMARK  Name = 
REMARK  5 active torsions:
REMARK  status: ('A' for Active; 'I' for Inactive)
REMARK    1  A    between atoms: C_2  and  C_4
REMARK    2  A    between atoms: N_8  and  C_9
REMARK    3  A    between atoms: C_9  and  C_10
REMARK    4  A    between atoms: C_10  and  C_11
REMARK    5  A    between atoms: C_15  and  C_16
REMARK                            x       y       z     vdW  Elec       q    Type
REMARK                         _______ _______ _______ _____ _____    ______ ____
ROOT
ATOM      1  C   UNL     1      43.601   4.693  11.221  0.00  0.00    +0.000 C 
ENDROOT
BRANCH   1   6
ATOM      2  C   UNL     1      46.415   2.353   7.728  0.00  0.00    +0.000 A 
ATOM      3  C   UNL     1      45.576   1.815   8.698  0.00  0.00    +0.000 A 
ATOM      4  C   UNL     1      44.748   2.668   9.425  0.00  0.00    +0.000 A 
ATOM      5  C   UNL     1      44.788   4.040   9.192  0.00  0.00    +0.000 A 
ATOM      6  N   UNL     1      43.938   4.936   9.826  0.00  0.00    +0.000 N 
ATOM      7  N   UNL     1      45.621   4.576   8.279  0.00  0.00    +0.000 NA
ATOM      8  C   UNL     1      46.417   3.730   7.571  0.00  0.00    +0.000 A 
ATOM      9  H   UNL     1      44.278   5.871   9.603  0.00  0.00    +0.000 HD
BRANCH   2  11
ATOM     10  N   UNL     1      48.321   2.155   6.239  0.00  0.00    +0.000 N 
ATOM     11  C   UNL     1      47.290   1.520   6.880  0.00  0.00    +0.000 C 
ATOM     12  O   UNL     1      47.131   0.312   6.783  0.00  0.00    +0.000 OA
ATOM     13  H   UNL     1      48.976   1.562   5.746  0.00  0.00    +0.000 HD
ATOM     14  H   UNL     1      48.633   3.081   6.492  0.00  0.00    +0.000 HD
ENDBRANCH   2  11
ENDBRANCH   1   6
BRANCH   1  15
ATOM     15  C   UNL     1      44.833   4.841  12.118  0.00  0.00    +0.000 C 
BRANCH  15  16
ATOM     16  C   UNL     1      45.389   6.242  12.020  0.00  0.00    +0.000 A 
ATOM     17  C   UNL     1      44.552   7.321  11.724  0.00  0.00    +0.000 A 
ATOM     18  C   UNL     1      45.066   8.613  11.691  0.00  0.00    +0.000 A 
ATOM     19  C   UNL     1      46.418   8.837  11.962  0.00  0.00    +0.000 A 
ATOM     20  C   UNL     1      47.288   7.783  12.292  0.00  0.00    +0.000 A 
ATOM     21  C   UNL     1      46.744   6.484  12.305  0.00  0.00    +0.000 A 
BRANCH  20  22
ATOM     22  C   UNL     1      48.712   8.028  12.629  0.00  0.00    +0.000 A 
ATOM     23  C   UNL     1      49.565   8.736  11.760  0.00  0.00    +0.000 A 
ATOM     24  C   UNL     1      50.911   8.962  12.075  0.00  0.00    +0.000 A 
ATOM     25  C   UNL     1      51.433   8.497  13.278  0.00  0.00    +0.000 A 
ATOM     26  C   UNL     1      50.609   7.798  14.152  0.00  0.00    +0.000 A 
ATOM     27 CL   UNL     1      51.243   7.226  15.647  0.00  0.00    +0.000 Cl
ATOM     28  C   UNL     1      49.271   7.555  13.830  0.00  0.00    +0.000 A 
ENDBRANCH  20  22
ENDBRANCH  15  16
ENDBRANCH   1  15
TORSDOF 5
ENDMDL
MODEL 5
REMARK VINA RESULT:    -7.732      4.249      7.208
REMARK INTER + INTRA:         -10.984
REMARK INTER:                 -10.592
REMARK INTRA:                  -0.392
REMARK UNBOUND:                -0.992
REMARK  Name = 
REMARK  5 active torsions:
REMARK  status: ('A' for Active; 'I' for Inactive)
REMARK    1  A    between atoms: C_2  and  C_4
REMARK    2  A    between atoms: N_8  and  C_9
REMARK    3  A    between atoms: C_9  and  C_10
REMARK    4  A    between atoms: C_10  and  C_11
REMARK    5  A    between atoms: C_15  and  C_16
REMARK                            x       y       z     vdW  Elec       q    Type
REMARK                         _______ _______ _______ _____ _____    ______ ____
ROOT
ATOM      1  C   UNL     1      47.060   7.267  11.781  0.00  0.00    +0.000 C 
ENDROOT
BRANCH   1   6
ATOM      2  C   UNL     1      47.579   4.254  15.812  0.00  0.00    +0.000 A 
ATOM      3  C   UNL     1      47.193   3.940  14.513  0.00  0.00    +0.000 A 
ATOM      4  C   UNL     1      47.313   4.909  13.519  0.00  0.00    +0.000 A 
ATOM      5  C   UNL     1      47.787   6.178  13.839  0.00  0.00    +0.000 A 
ATOM      6  N   UNL     1      48.002   7.164  12.886  0.00  0.00    +0.000 N 
ATOM      7  N   UNL     1      48.132   6.504  15.100  0.00  0.00    +0.000 NA
ATOM      8  C   UNL     1      48.019   5.544  16.058  0.00  0.00    +0.000 A 
ATOM      9  H   UNL     1      48.192   8.027  13.395  0.00  0.00    +0.000 HD
BRANCH   2  11
ATOM     10  N   UNL     1      48.724   2.739  17.322  0.00  0.00    +0.000 N 
ATOM     11  C   UNL     1      47.531   3.275  16.916  0.00  0.00    +0.000 C 
ATOM     12  O   UNL     1      46.482   2.985  17.473  0.00  0.00    +0.000 OA
ATOM     13  H   UNL     1      48.695   2.152  18.147  0.00  0.00    +0.000 HD
ATOM     14  H   UNL     1      49.616   3.136  17.068  0.00  0.00    +0.000 HD
ENDBRANCH   2  11
ENDBRANCH   1   6
BRANCH   1  15
ATOM     15  C   UNL     1      45.617   7.132  12.273  0.00  0.00    +0.000 C 
BRANCH  15  16
ATOM     16  C   UNL     1      44.953   5.937  11.631  0.00  0.00    +0.000 A 
ATOM     17  C   UNL     1      43.671   5.539  12.020  0.00  0.00    +0.000 A 
ATOM     18  C   UNL     1      43.049   4.471  11.382  0.00  0.00    +0.000 A 
ATOM     19  C   UNL     1      43.700   3.799  10.344  0.00  0.00    +0.000 A 
ATOM     20  C   UNL     1      44.978   4.185   9.902  0.00  0.00    +0.000 A 
ATOM     21  C   UNL     1      45.588   5.261  10.574  0.00  0.00    +0.000 A 
BRANCH  20  22
ATOM     22  C   UNL     1      45.645   3.503   8.767  0.00  0.00    +0.000 A 
ATOM     23  C   UNL     1      46.130   4.220   7.655  0.00  0.00    +0.000 A 
ATOM     24  C   UNL     1      46.754   3.575   6.581  0.00  0.00    +0.000 A 
ATOM     25  C   UNL     1      46.922   2.194   6.598  0.00  0.00    +0.000 A 
ATOM     26  C   UNL     1      46.452   1.466   7.685  0.00  0.00    +0.000 A 
ATOM     27 CL   UNL     1      46.663  -0.243   7.721  0.00  0.00    +0.000 Cl
ATOM     28  C   UNL     1      45.813   2.106   8.750  0.00  0.00    +0.000 A 
ENDBRANCH  20  22
ENDBRANCH  15  16
ENDBRANCH   1  15
TORSDOF 5
ENDMDL
MODEL 6
REMARK VINA RESULT:    -7.325      5.471      8.483
REMARK INTER + INTRA:         -10.458
REMARK INTER:                 -10.182
REMARK INTRA:                  -0.275
REMARK UNBOUND:                -0.992
REMARK  Name = 
REMARK  5 active torsions:
REMARK  status: ('A' for Active; 'I' for Inactive)
REMARK    1  A    between atoms: C_2  and  C_4
REMARK    2  A    between atoms: N_8  and  C_9
REMARK    3  A    between atoms: C_9  and  C_10
REMARK    4  A    between atoms: C_10  and  C_11
REMARK    5  A    between atoms: C_15  and  C_16
REMARK                            x       y       z     vdW  Elec       q    Type
REMARK                         _______ _______ _______ _____ _____    ______ ____
ROOT
ATOM      1  C   UNL     1      47.057   3.859  13.776  0.00  0.00    +0.000 C 
ENDROOT
BRANCH   1   6
ATOM      2  C   UNL     1      48.540   4.308  18.592  0.00  0.00    +0.000 A 
ATOM      3  C   UNL     1      47.583   5.029  17.888  0.00  0.00    +0.000 A 
ATOM      4  C   UNL     1      47.205   4.594  16.618  0.00  0.00    +0.000 A 
ATOM      5  C   UNL     1      47.804   3.467  16.065  0.00  0.00    +0.000 A 
ATOM      6  N   UNL     1      47.422   2.936  14.841  0.00  0.00    +0.000 N 
ATOM      7  N   UNL     1      48.756   2.779  16.724  0.00  0.00    +0.000 NA
ATOM      8  C   UNL     1      49.108   3.211  17.966  0.00  0.00    +0.000 A 
ATOM      9  H   UNL     1      48.113   2.226  14.600  0.00  0.00    +0.000 HD
BRANCH   2  11
ATOM     10  N   UNL     1      49.830   5.724  20.082  0.00  0.00    +0.000 N 
ATOM     11  C   UNL     1      48.964   4.669  19.959  0.00  0.00    +0.000 C 
ATOM     12  O   UNL     1      48.534   4.084  20.942  0.00  0.00    +0.000 OA
ATOM     13  H   UNL     1      50.032   6.031  21.025  0.00  0.00    +0.000 HD
ATOM     14  H   UNL     1      50.001   6.380  19.334  0.00  0.00    +0.000 HD
ENDBRANCH   2  11
ENDBRANCH   1   6
BRANCH   1  15
ATOM     15  C   UNL     1      45.629   4.378  13.963  0.00  0.00    +0.000 C 
BRANCH  15  16
ATOM     16  C   UNL     1      44.905   4.411  12.638  0.00  0.00    +0.000 A 
ATOM     17  C   UNL     1      43.676   5.063  12.513  0.00  0.00    +0.000 A 
ATOM     18  C   UNL     1      43.046   5.134  11.275  0.00  0.00    +0.000 A 
ATOM     19  C   UNL     1      43.645   4.561  10.150  0.00  0.00    +0.000 A 
ATOM     20  C   UNL     1      44.895   3.920  10.226  0.00  0.00    +0.000 A 
ATOM     21  C   UNL     1      45.503   3.853  11.494  0.00  0.00    +0.000 A 
BRANCH  20  22
ATOM     22  C   UNL     1      45.552   3.358   9.022  0.00  0.00    +0.000 A 
ATOM     23  C   UNL     1      45.985   4.180   7.963  0.00  0.00    +0.000 A 
ATOM     24  C   UNL     1      46.599   3.649   6.823  0.00  0.00    +0.000 A 
ATOM     25  C   UNL     1      46.811   2.277   6.721  0.00  0.00    +0.000 A 
ATOM     26  C   UNL     1      46.394   1.445   7.753  0.00  0.00    +0.000 A 
ATOM     27 CL   UNL     1      46.658  -0.252   7.641  0.00  0.00    +0.000 Cl
ATOM     28  C   UNL     1      45.764   1.973   8.883  0.00  0.00    +0.000 A 
ENDBRANCH  20  22
ENDBRANCH  15  16
ENDBRANCH   1  15
TORSDOF 5
ENDMDL
MODEL 7
REMARK VINA RESULT:    -7.222      4.671      7.632
REMARK INTER + INTRA:         -10.325
REMARK INTER:                  -9.385
REMARK INTRA:                  -0.940
REMARK UNBOUND:                -0.992
REMARK  Name = 
REMARK  5 active torsions:
REMARK  status: ('A' for Active; 'I' for Inactive)
REMARK    1  A    between atoms: C_2  and  C_4
REMARK    2  A    between atoms: N_8  and  C_9
REMARK    3  A    between atoms: C_9  and  C_10
REMARK    4  A    between atoms: C_10  and  C_11
REMARK    5  A    between atoms: C_15  and  C_16
REMARK                            x       y       z     vdW  Elec       q    Type
REMARK                         _______ _______ _______ _____ _____    ______ ____
ROOT
ATOM      1  C   UNL     1      49.121   8.577  13.903  0.00  0.00    +0.000 C 
ENDROOT
BRANCH   1   6
ATOM      2  C   UNL     1      48.210   4.533  16.804  0.00  0.00    +0.000 A 
ATOM      3  C   UNL     1      47.516   5.004  15.695  0.00  0.00    +0.000 A 
ATOM      4  C   UNL     1      48.072   6.033  14.935  0.00  0.00    +0.000 A 
ATOM      5  C   UNL     1      49.292   6.589  15.307  0.00  0.00    +0.000 A 
ATOM      6  N   UNL     1      49.936   7.561  14.554  0.00  0.00    +0.000 N 
ATOM      7  N   UNL     1      49.957   6.164  16.398  0.00  0.00    +0.000 NA
ATOM      8  C   UNL     1      49.407   5.153  17.125  0.00  0.00    +0.000 A 
ATOM      9  H   UNL     1      50.712   7.905  15.120  0.00  0.00    +0.000 HD
BRANCH   2  11
ATOM     10  N   UNL     1      48.561   2.956  18.614  0.00  0.00    +0.000 N 
ATOM     11  C   UNL     1      47.720   3.417  17.636  0.00  0.00    +0.000 C 
ATOM     12  O   UNL     1      46.600   2.950  17.490  0.00  0.00    +0.000 OA
ATOM     13  H   UNL     1      48.178   2.265  19.247  0.00  0.00    +0.000 HD
ATOM     14  H   UNL     1      49.369   3.473  18.927  0.00  0.00    +0.000 HD
ENDBRANCH   2  11
ENDBRANCH   1   6
BRANCH   1  15
ATOM     15  C   UNL     1      48.915   8.251  12.422  0.00  0.00    +0.000 C 
BRANCH  15  16
ATOM     16  C   UNL     1      47.456   7.976  12.143  0.00  0.00    +0.000 A 
ATOM     17  C   UNL     1      46.483   8.936  12.431  0.00  0.00    +0.000 A 
ATOM     18  C   UNL     1      45.149   8.692  12.119  0.00  0.00    +0.000 A 
ATOM     19  C   UNL     1      44.780   7.491  11.509  0.00  0.00    +0.000 A 
ATOM     20  C   UNL     1      45.732   6.510  11.176  0.00  0.00    +0.000 A 
ATOM     21  C   UNL     1      47.072   6.779  11.515  0.00  0.00    +0.000 A 
BRANCH  20  22
ATOM     22  C   UNL     1      45.345   5.258  10.482  0.00  0.00    +0.000 A 
ATOM     23  C   UNL     1      44.505   4.305  11.091  0.00  0.00    +0.000 A 
ATOM     24  C   UNL     1      44.145   3.120  10.439  0.00  0.00    +0.000 A 
ATOM     25  C   UNL     1      44.607   2.864   9.152  0.00  0.00    +0.000 A 
ATOM     26  C   UNL     1      45.436   3.790   8.530  0.00  0.00    +0.000 A 
ATOM     27 CL   UNL     1      46.006   3.488   6.934  0.00  0.00    +0.000 Cl
ATOM     28  C   UNL     1      45.811   4.965   9.187  0.00  0.00    +0.000 A 
ENDBRANCH  20  22
ENDBRANCH  15  16
ENDBRANCH   1  15
TORSDOF 5
ENDMDL
MODEL 8
REMARK VINA RESULT:    -6.997      4.055      7.018
REMARK INTER + INTRA:         -10.033
REMARK INTER:                  -9.121
REMARK INTRA:                  -0.912
REMARK UNBOUND:                -0.992
REMARK  Name = 
REMARK  5 active torsions:
REMARK  status: ('A' for Active; 'I' for Inactive)
REMARK    1  A    between atoms: C_2  and  C_4
REMARK    2  A    between atoms: N_8  and  C_9
REMARK    3  A    between atoms: C_9  and  C_10
REMARK    4  A    between atoms: C_10  and  C_11
REMARK    5  A    between atoms: C_15  and  C_16
REMARK                            x       y       z     vdW  Elec       q    Type
REMARK                         _______ _______ _______ _____ _____    ______ ____
ROOT
ATOM      1  C   UNL     1      44.502   7.371  12.648  0.00  0.00    +0.000 C 
ENDROOT
BRANCH   1   6
ATOM      2  C   UNL     1      49.483   8.238  12.471  0.00  0.00    +0.000 A 
ATOM      3  C   UNL     1      48.754   7.152  12.000  0.00  0.00    +0.000 A 
ATOM      4  C   UNL     1      47.362   7.225  11.987  0.00  0.00    +0.000 A 
ATOM      5  C   UNL     1      46.722   8.364  12.466  0.00  0.00    +0.000 A 
ATOM      6  N   UNL     1      45.346   8.533  12.411  0.00  0.00    +0.000 N 
ATOM      7  N   UNL     1      47.417   9.409  12.955  0.00  0.00    +0.000 NA
ATOM      8  C   UNL     1      48.775   9.327  12.953  0.00  0.00    +0.000 A 
ATOM      9  H   UNL     1      45.130   9.363  12.963  0.00  0.00    +0.000 HD
BRANCH   2  11
ATOM     10  N   UNL     1      51.593   7.804  11.355  0.00  0.00    +0.000 N 
ATOM     11  C   UNL     1      50.959   8.266  12.477  0.00  0.00    +0.000 C 
ATOM     12  O   UNL     1      51.590   8.717  13.422  0.00  0.00    +0.000 OA
ATOM     13  H   UNL     1      52.598   7.925  11.325  0.00  0.00    +0.000 HD
ATOM     14  H   UNL     1      51.117   7.669  10.475  0.00  0.00    +0.000 HD
ENDBRANCH   2  11
ENDBRANCH   1   6
BRANCH   1  15
ATOM     15  C   UNL     1      43.789   6.937  11.365  0.00  0.00    +0.000 C 
BRANCH  15  16
ATOM     16  C   UNL     1      43.891   5.440  11.189  0.00  0.00    +0.000 A 
ATOM     17  C   UNL     1      43.159   4.575  12.005  0.00  0.00    +0.000 A 
ATOM     18  C   UNL     1      43.219   3.201  11.796  0.00  0.00    +0.000 A 
ATOM     19  C   UNL     1      44.005   2.683  10.764  0.00  0.00    +0.000 A 
ATOM     20  C   UNL     1      44.735   3.520   9.901  0.00  0.00    +0.000 A 
ATOM     21  C   UNL     1      44.665   4.906  10.144  0.00  0.00    +0.000 A 
BRANCH  20  22
ATOM     22  C   UNL     1      45.529   2.971   8.775  0.00  0.00    +0.000 A 
ATOM     23  C   UNL     1      46.109   3.809   7.802  0.00  0.00    +0.000 A 
ATOM     24  C   UNL     1      46.852   3.290   6.735  0.00  0.00    +0.000 A 
ATOM     25  C   UNL     1      47.046   1.917   6.623  0.00  0.00    +0.000 A 
ATOM     26  C   UNL     1      46.484   1.071   7.571  0.00  0.00    +0.000 A 
ATOM     27 CL   UNL     1      46.725  -0.629   7.446  0.00  0.00    +0.000 Cl
ATOM     28  C   UNL     1      45.727   1.586   8.626  0.00  0.00    +0.000 A 
ENDBRANCH  20  22
ENDBRANCH  15  16
ENDBRANCH   1  15
TORSDOF 5
ENDMDL
MODEL 9
REMARK VINA RESULT:    -6.912      5.257      7.160
REMARK INTER + INTRA:          -9.924
REMARK INTER:                  -8.960
REMARK INTRA:                  -0.964
REMARK UNBOUND:                -0.992
REMARK  Name = 
REMARK  5 active torsions:
REMARK  status: ('A' for Active; 'I' for Inactive)
REMARK    1  A    between atoms: C_2  and  C_4
REMARK    2  A    between atoms: N_8  and  C_9
REMARK    3  A    between atoms: C_9  and  C_10
REMARK    4  A    between atoms: C_10  and  C_11
REMARK    5  A    between atoms: C_15  and  C_16
REMARK                            x       y       z     vdW  Elec       q    Type
REMARK                         _______ _______ _______ _____ _____    ______ ____
ROOT
ATOM      1  C   UNL     1      48.536   6.584  14.532  0.00  0.00    +0.000 C 
ENDROOT
BRANCH   1   6
ATOM      2  C   UNL     1      45.128   4.004  11.825  0.00  0.00    +0.000 A 
ATOM      3  C   UNL     1      45.943   3.575  12.867  0.00  0.00    +0.000 A 
ATOM      4  C   UNL     1      46.666   4.519  13.595  0.00  0.00    +0.000 A 
ATOM      5  C   UNL     1      46.584   5.866  13.256  0.00  0.00    +0.000 A 
ATOM      6  N   UNL     1      47.216   6.864  13.985  0.00  0.00    +0.000 N 
ATOM      7  N   UNL     1      45.825   6.290  12.228  0.00  0.00    +0.000 NA
ATOM      8  C   UNL     1      45.118   5.358  11.533  0.00  0.00    +0.000 A 
ATOM      9  H   UNL     1      47.130   7.723  13.442  0.00  0.00    +0.000 HD
BRANCH   2  11
ATOM     10  N   UNL     1      44.921   2.365  10.048  0.00  0.00    +0.000 N 
ATOM     11  C   UNL     1      44.293   3.080  11.033  0.00  0.00    +0.000 C 
ATOM     12  O   UNL     1      43.103   2.926  11.269  0.00  0.00    +0.000 OA
ATOM     13  H   UNL     1      44.365   1.658   9.582  0.00  0.00    +0.000 HD
ATOM     14  H   UNL     1      45.924   2.274   9.995  0.00  0.00    +0.000 HD
ENDBRANCH   2  11
ENDBRANCH   1   6
BRANCH   1  15
ATOM     15  C   UNL     1      48.541   6.727  16.056  0.00  0.00    +0.000 C 
BRANCH  15  16
ATOM     16  C   UNL     1      48.584   5.366  16.711  0.00  0.00    +0.000 A 
ATOM     17  C   UNL     1      47.404   4.671  16.987  0.00  0.00    +0.000 A 
ATOM     18  C   UNL     1      47.460   3.395  17.540  0.00  0.00    +0.000 A 
ATOM     19  C   UNL     1      48.695   2.802  17.811  0.00  0.00    +0.000 A 
ATOM     20  C   UNL     1      49.906   3.456  17.522  0.00  0.00    +0.000 A 
ATOM     21  C   UNL     1      49.820   4.750  16.975  0.00  0.00    +0.000 A 
BRANCH  20  22
ATOM     22  C   UNL     1      51.217   2.804  17.763  0.00  0.00    +0.000 A 
ATOM     23  C   UNL     1      51.441   1.452  17.437  0.00  0.00    +0.000 A 
ATOM     24  C   UNL     1      52.675   0.834  17.672  0.00  0.00    +0.000 A 
ATOM     25  C   UNL     1      53.724   1.561  18.226  0.00  0.00    +0.000 A 
ATOM     26  C   UNL     1      53.527   2.897  18.555  0.00  0.00    +0.000 A 
ATOM     27 CL   UNL     1      54.821   3.808  19.233  0.00  0.00    +0.000 Cl
ATOM     28  C   UNL     1      52.290   3.510  18.338  0.00  0.00    +0.000 A 
ENDBRANCH  20  22
ENDBRANCH  15  16
ENDBRANCH   1  15
TORSDOF 5
ENDMDL
