MODEL 1
REMARK VINA RESULT:    -8.130      0.000      0.000
REMARK INTER + INTRA:         -10.153
REMARK INTER:                  -9.556
REMARK INTRA:                  -0.597
REMARK UNBOUND:                -0.597
REMARK  Name = 
REMARK  4 active torsions:
REMARK  status: ('A' for Active; 'I' for Inactive)
REMARK    1  A    between atoms: C_1  and  C_2
REMARK    2  A    between atoms: N_6  and  C_7
REMARK    3  A    between atoms: C_7  and  C_8
REMARK    4  A    between atoms: C_12  and  C_13
REMARK                            x       y       z     vdW  Elec       q    Type
REMARK                         _______ _______ _______ _____ _____    ______ ____
ROOT
ATOM      1  C   UNL     1      44.939   4.161  11.480  0.00  0.00    +0.000 A 
ATOM      2  C   UNL     1      45.444   3.306  12.464  0.00  0.00    +0.000 A 
ATOM      3  C   UNL     1      46.434   3.753  13.336  0.00  0.00    +0.000 A 
ATOM      4  C   UNL     1      46.932   5.056  13.230  0.00  0.00    +0.000 A 
ATOM      5  C   UNL     1      46.455   5.946  12.250  0.00  0.00    +0.000 A 
ATOM      6  C   UNL     1      45.438   5.475  11.399  0.00  0.00    +0.000 A 
ENDROOT
BRANCH   5   7
ATOM      7  C   UNL     1      47.024   7.302  12.092  0.00  0.00    +0.000 A 
ATOM      8  C   UNL     1      48.386   7.523  11.839  0.00  0.00    +0.000 A 
ATOM      9  C   UNL     1      48.891   8.820  11.727  0.00  0.00    +0.000 A 
ATOM     10  C   UNL     1      48.014   9.881  11.863  0.00  0.00    +0.000 A 
ATOM     11  N   UNL     1      46.696   9.730  12.103  0.00  0.00    +0.000 NA
ATOM     12  C   UNL     1      46.243   8.455  12.216  0.00  0.00    +0.000 A 
ENDBRANCH   5   7
BRANCH   1  13
ATOM     13  C   UNL     1      43.916   3.681  10.474  0.00  0.00    +0.000 C 
BRANCH  13  19
ATOM     14  C   UNL     1      47.681   2.456   5.566  0.00  0.00    +0.000 C 
ATOM     15  C   UNL     1      46.752   2.401   6.727  0.00  0.00    +0.000 A 
ATOM     16  C   UNL     1      46.752   1.395   7.666  0.00  0.00    +0.000 A 
ATOM     17  N   UNL     1      45.934   1.365   8.742  0.00  0.00    +0.000 NA
ATOM     18  C   UNL     1      45.066   2.377   8.873  0.00  0.00    +0.000 A 
ATOM     19  N   UNL     1      44.238   2.353   9.994  0.00  0.00    +0.000 N 
ATOM     20  N   UNL     1      44.977   3.393   8.005  0.00  0.00    +0.000 NA
ATOM     21  C   UNL     1      45.820   3.386   6.954  0.00  0.00    +0.000 A 
ATOM     22  H   UNL     1      44.677   1.738  10.668  0.00  0.00    +0.000 HD
ENDBRANCH  13  19
ENDBRANCH   1  13
TORSDOF 3
ENDMDL
MODEL 2
REMARK VINA RESULT:    -7.395      3.509      7.442
REMARK INTER + INTRA:          -9.288
REMARK INTER:                  -8.882
REMARK INTRA:                  -0.407
REMARK UNBOUND:                -0.597
REMARK  Name = 
REMARK  4 active torsions:
REMARK  status: ('A' for Active; 'I' for Inactive)
REMARK    1  A    between atoms: C_1  and  C_2
REMARK    2  A    between atoms: N_6  and  C_7
REMARK    3  A    between atoms: C_7  and  C_8
REMARK    4  A    between atoms: C_12  and  C_13
REMARK                            x       y       z     vdW  Elec       q    Type
REMARK                         _______ _______ _______ _____ _____    ______ ____
ROOT
ATOM      1  C   UNL     1      45.091   4.926  12.853  0.00  0.00    +0.000 A 
ATOM      2  C   UNL     1      43.752   5.322  12.905  0.00  0.00    +0.000 A 
ATOM      3  C   UNL     1      42.923   5.130  11.802  0.00  0.00    +0.000 A 
ATOM      4  C   UNL     1      43.426   4.545  10.635  0.00  0.00    +0.000 A 
ATOM      5  C   UNL     1      44.769   4.137  10.539  0.00  0.00    +0.000 A 
ATOM      6  C   UNL     1      45.577   4.321  11.677  0.00  0.00    +0.000 A 
ENDROOT
BRANCH   5   7
ATOM      7  C   UNL     1      45.322   3.578   9.287  0.00  0.00    +0.000 A 
ATOM      8  C   UNL     1      45.505   2.200   9.092  0.00  0.00    +0.000 A 
ATOM      9  C   UNL     1      46.059   1.713   7.908  0.00  0.00    +0.000 A 
ATOM     10  C   UNL     1      46.415   2.620   6.926  0.00  0.00    +0.000 A 
ATOM     11  N   UNL     1      46.260   3.952   7.054  0.00  0.00    +0.000 NA
ATOM     12  C   UNL     1      45.728   4.391   8.224  0.00  0.00    +0.000 A 
ENDBRANCH   5   7
BRANCH   1  13
ATOM     13  C   UNL     1      46.032   5.187  14.008  0.00  0.00    +0.000 C 
BRANCH  13  19
ATOM     14  C   UNL     1      49.705   4.817  19.121  0.00  0.00    +0.000 C 
ATOM     15  C   UNL     1      48.855   4.559  17.926  0.00  0.00    +0.000 A 
ATOM     16  C   UNL     1      47.980   3.502  17.818  0.00  0.00    +0.000 A 
ATOM     17  N   UNL     1      47.180   3.289  16.749  0.00  0.00    +0.000 NA
ATOM     18  C   UNL     1      47.274   4.162  15.737  0.00  0.00    +0.000 A 
ATOM     19  N   UNL     1      46.434   3.951  14.645  0.00  0.00    +0.000 N 
ATOM     20  N   UNL     1      48.107   5.212  15.739  0.00  0.00    +0.000 NA
ATOM     21  C   UNL     1      48.876   5.390  16.831  0.00  0.00    +0.000 A 
ATOM     22  H   UNL     1      45.679   3.358  14.968  0.00  0.00    +0.000 HD
ENDBRANCH  13  19
ENDBRANCH   1  13
TORSDOF 3
ENDMDL
MODEL 3
REMARK VINA RESULT:    -7.248      1.811      2.247
REMARK INTER + INTRA:          -9.116
REMARK INTER:                  -8.533
REMARK INTRA:                  -0.583
REMARK UNBOUND:                -0.597
REMARK  Name = 
REMARK  4 active torsions:
REMARK  status: ('A' for Active; 'I' for Inactive)
REMARK    1  A    between atoms: C_1  and  C_2
REMARK    2  A    between atoms: N_6  and  C_7
REMARK    3  A    between atoms: C_7  and  C_8
REMARK    4  A    between atoms: C_12  and  C_13
REMARK                            x       y       z     vdW  Elec       q    Type
REMARK                         _______ _______ _______ _____ _____    ______ ____
ROOT
ATOM      1  C   UNL     1      45.622   5.804  11.758  0.00  0.00    +0.000 A 
ATOM      2  C   UNL     1      45.312   4.914  12.791  0.00  0.00    +0.000 A 
ATOM      3  C   UNL     1      46.180   4.767  13.870  0.00  0.00    +0.000 A 
ATOM      4  C   UNL     1      47.369   5.503  13.924  0.00  0.00    +0.000 A 
ATOM      5  C   UNL     1      47.721   6.404  12.904  0.00  0.00    +0.000 A 
ATOM      6  C   UNL     1      46.813   6.550  11.838  0.00  0.00    +0.000 A 
ENDROOT
BRANCH   5   7
ATOM      7  C   UNL     1      49.006   7.136  12.925  0.00  0.00    +0.000 A 
ATOM      8  C   UNL     1      49.679   7.444  14.117  0.00  0.00    +0.000 A 
ATOM      9  C   UNL     1      50.874   8.164  14.098  0.00  0.00    +0.000 A 
ATOM     10  C   UNL     1      51.385   8.558  12.874  0.00  0.00    +0.000 A 
ATOM     11  N   UNL     1      50.787   8.288  11.697  0.00  0.00    +0.000 NA
ATOM     12  C   UNL     1      49.620   7.595  11.755  0.00  0.00    +0.000 A 
ENDBRANCH   5   7
BRANCH   1  13
ATOM     13  C   UNL     1      44.734   5.931  10.539  0.00  0.00    +0.000 C 
BRANCH  13  19
ATOM     14  C   UNL     1      47.265   1.600   6.718  0.00  0.00    +0.000 C 
ATOM     15  C   UNL     1      46.401   2.401   7.628  0.00  0.00    +0.000 A 
ATOM     16  C   UNL     1      45.574   1.854   8.583  0.00  0.00    +0.000 A 
ATOM     17  N   UNL     1      44.819   2.583   9.436  0.00  0.00    +0.000 NA
ATOM     18  C   UNL     1      44.881   3.915   9.314  0.00  0.00    +0.000 A 
ATOM     19  N   UNL     1      44.117   4.664  10.208  0.00  0.00    +0.000 N 
ATOM     20  N   UNL     1      45.641   4.542   8.406  0.00  0.00    +0.000 NA
ATOM     21  C   UNL     1      46.385   3.775   7.585  0.00  0.00    +0.000 A 
ATOM     22  H   UNL     1      43.909   4.059  10.993  0.00  0.00    +0.000 HD
ENDBRANCH  13  19
ENDBRANCH   1  13
TORSDOF 3
ENDMDL
MODEL 4
REMARK VINA RESULT:    -7.199      1.882      6.770
REMARK INTER + INTRA:          -9.058
REMARK INTER:                  -8.664
REMARK INTRA:                  -0.394
REMARK UNBOUND:                -0.597
REMARK  Name = 
REMARK  4 active torsions:
REMARK  status: ('A' for Active; 'I' for Inactive)
REMARK    1  A    between atoms: C_1  and  C_2
REMARK    2  A    between atoms: N_6  and  C_7
REMARK    3  A    between atoms: C_7  and  C_8
REMARK    4  A    between atoms: C_12  and  C_13
REMARK                            x       y       z     vdW  Elec       q    Type
REMARK                         _______ _______ _______ _____ _____    ______ ____
ROOT
ATOM      1  C   UNL     1      44.359   5.354  11.005  0.00  0.00    +0.000 A 
ATOM      2  C   UNL     1      43.490   4.534  11.732  0.00  0.00    +0.000 A 
ATOM      3  C   UNL     1      43.373   3.184  11.412  0.00  0.00    +0.000 A 
ATOM      4  C   UNL     1      44.119   2.640  10.360  0.00  0.00    +0.000 A 
ATOM      5  C   UNL     1      45.000   3.431   9.601  0.00  0.00    +0.000 A 
ATOM      6  C   UNL     1      45.116   4.787   9.962  0.00  0.00    +0.000 A 
ENDROOT
BRANCH   5   7
ATOM      7  C   UNL     1      45.741   2.877   8.447  0.00  0.00    +0.000 A 
ATOM      8  C   UNL     1      46.101   3.656   7.337  0.00  0.00    +0.000 A 
ATOM      9  C   UNL     1      46.774   3.089   6.254  0.00  0.00    +0.000 A 
ATOM     10  C   UNL     1      47.085   1.742   6.305  0.00  0.00    +0.000 A 
ATOM     11  N   UNL     1      46.769   0.945   7.344  0.00  0.00    +0.000 NA
ATOM     12  C   UNL     1      46.106   1.528   8.376  0.00  0.00    +0.000 A 
ENDBRANCH   5   7
BRANCH   1  13
ATOM     13  C   UNL     1      44.453   6.838  11.282  0.00  0.00    +0.000 C 
BRANCH  13  19
ATOM     14  C   UNL     1      50.265   8.828  12.704  0.00  0.00    +0.000 C 
ATOM     15  C   UNL     1      48.856   8.350  12.713  0.00  0.00    +0.000 A 
ATOM     16  C   UNL     1      47.913   8.747  13.634  0.00  0.00    +0.000 A 
ATOM     17  N   UNL     1      46.623   8.343  13.618  0.00  0.00    +0.000 NA
ATOM     18  C   UNL     1      46.267   7.489  12.650  0.00  0.00    +0.000 A 
ATOM     19  N   UNL     1      44.931   7.090  12.626  0.00  0.00    +0.000 N 
ATOM     20  N   UNL     1      47.113   7.029  11.718  0.00  0.00    +0.000 NA
ATOM     21  C   UNL     1      48.385   7.469  11.767  0.00  0.00    +0.000 A 
ATOM     22  H   UNL     1      44.411   7.778  13.154  0.00  0.00    +0.000 HD
ENDBRANCH  13  19
ENDBRANCH   1  13
TORSDOF 3
ENDMDL
MODEL 5
REMARK VINA RESULT:    -7.082      2.282      3.650
REMARK INTER + INTRA:          -8.921
REMARK INTER:                  -8.499
REMARK INTRA:                  -0.421
REMARK UNBOUND:                -0.597
REMARK  Name = 
REMARK  4 active torsions:
REMARK  status: ('A' for Active; 'I' for Inactive)
REMARK    1  A    between atoms: C_1  and  C_2
REMARK    2  A    between atoms: N_6  and  C_7
REMARK    3  A    between atoms: C_7  and  C_8
REMARK    4  A    between atoms: C_12  and  C_13
REMARK                            x       y       z     vdW  Elec       q    Type
REMARK                         _______ _______ _______ _____ _____    ______ ____
ROOT
ATOM      1  C   UNL     1      45.179   4.637  11.847  0.00  0.00    +0.000 A 
ATOM      2  C   UNL     1      45.686   5.750  11.170  0.00  0.00    +0.000 A 
ATOM      3  C   UNL     1      46.767   6.454  11.696  0.00  0.00    +0.000 A 
ATOM      4  C   UNL     1      47.349   6.055  12.905  0.00  0.00    +0.000 A 
ATOM      5  C   UNL     1      46.865   4.945  13.619  0.00  0.00    +0.000 A 
ATOM      6  C   UNL     1      45.787   4.239  13.053  0.00  0.00    +0.000 A 
ENDROOT
BRANCH   5   7
ATOM      7  C   UNL     1      47.434   4.558  14.929  0.00  0.00    +0.000 A 
ATOM      8  C   UNL     1      47.497   3.224  15.359  0.00  0.00    +0.000 A 
ATOM      9  C   UNL     1      48.012   2.902  16.616  0.00  0.00    +0.000 A 
ATOM     10  C   UNL     1      48.468   3.929  17.422  0.00  0.00    +0.000 A 
ATOM     11  N   UNL     1      48.436   5.227  17.063  0.00  0.00    +0.000 NA
ATOM     12  C   UNL     1      47.918   5.504  15.838  0.00  0.00    +0.000 A 
ENDBRANCH   5   7
BRANCH   1  13
ATOM     13  C   UNL     1      43.961   3.898  11.338  0.00  0.00    +0.000 C 
BRANCH  13  19
ATOM     14  C   UNL     1      46.700   2.964   5.736  0.00  0.00    +0.000 C 
ATOM     15  C   UNL     1      46.054   2.838   7.071  0.00  0.00    +0.000 A 
ATOM     16  C   UNL     1      46.370   1.864   7.990  0.00  0.00    +0.000 A 
ATOM     17  N   UNL     1      45.811   1.774   9.218  0.00  0.00    +0.000 NA
ATOM     18  C   UNL     1      44.882   2.686   9.531  0.00  0.00    +0.000 A 
ATOM     19  N   UNL     1      44.322   2.601  10.804  0.00  0.00    +0.000 N 
ATOM     20  N   UNL     1      44.493   3.663   8.699  0.00  0.00    +0.000 NA
ATOM     21  C   UNL     1      45.086   3.720   7.491  0.00  0.00    +0.000 A 
ATOM     22  H   UNL     1      44.962   2.058  11.369  0.00  0.00    +0.000 HD
ENDBRANCH  13  19
ENDBRANCH   1  13
TORSDOF 3
ENDMDL
MODEL 6
REMARK VINA RESULT:    -6.790      1.917      6.898
REMARK INTER + INTRA:          -8.577
REMARK INTER:                  -8.056
REMARK INTRA:                  -0.522
REMARK UNBOUND:                -0.597
REMARK  Name = 
REMARK  4 active torsions:
REMARK  status: ('A' for Active; 'I' for Inactive)
REMARK    1  A    between atoms: C_1  and  C_2
REMARK    2  A    between atoms: N_6  and  C_7
REMARK    3  A    between atoms: C_7  and  C_8
REMARK    4  A    between atoms: C_12  and  C_13
REMARK                            x       y       z     vdW  Elec       q    Type
REMARK                         _______ _______ _______ _____ _____    ______ ____
ROOT
ATOM      1  C   UNL     1      44.804   6.056  11.324  0.00  0.00    +0.000 A 
ATOM      2  C   UNL     1      43.600   5.580  11.852  0.00  0.00    +0.000 A 
ATOM      3  C   UNL     1      43.076   4.367  11.410  0.00  0.00    +0.000 A 
ATOM      4  C   UNL     1      43.747   3.621  10.434  0.00  0.00    +0.000 A 
ATOM      5  C   UNL     1      44.957   4.068   9.875  0.00  0.00    +0.000 A 
ATOM      6  C   UNL     1      45.475   5.285  10.357  0.00  0.00    +0.000 A 
ENDROOT
BRANCH   5   7
ATOM      7  C   UNL     1      45.636   3.316   8.797  0.00  0.00    +0.000 A 
ATOM      8  C   UNL     1      46.173   3.944   7.663  0.00  0.00    +0.000 A 
ATOM      9  C   UNL     1      46.779   3.196   6.652  0.00  0.00    +0.000 A 
ATOM     10  C   UNL     1      46.847   1.823   6.800  0.00  0.00    +0.000 A 
ATOM     11  N   UNL     1      46.353   1.165   7.867  0.00  0.00    +0.000 NA
ATOM     12  C   UNL     1      45.761   1.923   8.826  0.00  0.00    +0.000 A 
ENDBRANCH   5   7
BRANCH   1  13
ATOM     13  C   UNL     1      45.359   7.403  11.731  0.00  0.00    +0.000 C 
BRANCH  13  19
ATOM     14  C   UNL     1      51.391   8.523  13.192  0.00  0.00    +0.000 C 
ATOM     15  C   UNL     1      49.939   8.192  13.186  0.00  0.00    +0.000 A 
ATOM     16  C   UNL     1      49.073   8.509  14.208  0.00  0.00    +0.000 A 
ATOM     17  N   UNL     1      47.748   8.243  14.185  0.00  0.00    +0.000 NA
ATOM     18  C   UNL     1      47.273   7.616  13.101  0.00  0.00    +0.000 A 
ATOM     19  N   UNL     1      45.903   7.361  13.072  0.00  0.00    +0.000 N 
ATOM     20  N   UNL     1      48.037   7.250  12.062  0.00  0.00    +0.000 NA
ATOM     21  C   UNL     1      49.350   7.547  12.125  0.00  0.00    +0.000 A 
ATOM     22  H   UNL     1      45.475   7.991  13.739  0.00  0.00    +0.000 HD
ENDBRANCH  13  19
ENDBRANCH   1  13
TORSDOF 3
ENDMDL
MODEL 7
REMARK VINA RESULT:    -6.565      3.960      7.976
REMARK INTER + INTRA:          -8.314
REMARK INTER:                  -7.896
REMARK INTRA:                  -0.417
REMARK UNBOUND:                -0.597
REMARK  Name = 
REMARK  4 active torsions:
REMARK  status: ('A' for Active; 'I' for Inactive)
REMARK    1  A    between atoms: C_1  and  C_2
REMARK    2  A    between atoms: N_6  and  C_7
REMARK    3  A    between atoms: C_7  and  C_8
REMARK    4  A    between atoms: C_12  and  C_13
REMARK                            x       y       z     vdW  Elec       q    Type
REMARK                         _______ _______ _______ _____ _____    ______ ____
ROOT
ATOM      1  C   UNL     1      46.917   6.535  13.389  0.00  0.00    +0.000 A 
ATOM      2  C   UNL     1      46.425   7.835  13.233  0.00  0.00    +0.000 A 
ATOM      3  C   UNL     1      45.529   8.124  12.207  0.00  0.00    +0.000 A 
ATOM      4  C   UNL     1      45.119   7.119  11.324  0.00  0.00    +0.000 A 
ATOM      5  C   UNL     1      45.594   5.801  11.442  0.00  0.00    +0.000 A 
ATOM      6  C   UNL     1      46.480   5.532  12.503  0.00  0.00    +0.000 A 
ENDROOT
BRANCH   5   7
ATOM      7  C   UNL     1      45.215   4.750  10.472  0.00  0.00    +0.000 A 
ATOM      8  C   UNL     1      45.558   4.819   9.113  0.00  0.00    +0.000 A 
ATOM      9  C   UNL     1      45.154   3.823   8.223  0.00  0.00    +0.000 A 
ATOM     10  C   UNL     1      44.416   2.761   8.714  0.00  0.00    +0.000 A 
ATOM     11  N   UNL     1      44.060   2.639  10.008  0.00  0.00    +0.000 NA
ATOM     12  C   UNL     1      44.461   3.632  10.843  0.00  0.00    +0.000 A 
ENDBRANCH   5   7
BRANCH   1  13
ATOM     13  C   UNL     1      47.946   6.208  14.448  0.00  0.00    +0.000 C 
BRANCH  13  19
ATOM     14  C   UNL     1      50.373   5.003  20.142  0.00  0.00    +0.000 C 
ATOM     15  C   UNL     1      49.597   5.017  18.872  0.00  0.00    +0.000 A 
ATOM     16  C   UNL     1      48.259   4.709  18.784  0.00  0.00    +0.000 A 
ATOM     17  N   UNL     1      47.545   4.759  17.637  0.00  0.00    +0.000 NA
ATOM     18  C   UNL     1      48.204   5.115  16.527  0.00  0.00    +0.000 A 
ATOM     19  N   UNL     1      47.460   5.185  15.350  0.00  0.00    +0.000 N 
ATOM     20  N   UNL     1      49.510   5.417  16.505  0.00  0.00    +0.000 NA
ATOM     21  C   UNL     1      50.177   5.364  17.674  0.00  0.00    +0.000 A 
ATOM     22  H   UNL     1      46.489   5.266  15.623  0.00  0.00    +0.000 HD
ENDBRANCH  13  19
ENDBRANCH   1  13
TORSDOF 3
ENDMDL
MODEL 8
REMARK VINA RESULT:    -6.216      3.028      7.726
REMARK INTER + INTRA:          -7.903
REMARK INTER:                  -7.353
REMARK INTRA:                  -0.549
REMARK UNBOUND:                -0.597
REMARK  Name = 
REMARK  4 active torsions:
REMARK  status: ('A' for Active; 'I' for Inactive)
REMARK    1  A    between atoms: C_1  and  C_2
REMARK    2  A    between atoms: N_6  and  C_7
REMARK    3  A    between atoms: C_7  and  C_8
REMARK    4  A    between atoms: C_12  and  C_13
REMARK                            x       y       z     vdW  Elec       q    Type
REMARK                         _______ _______ _______ _____ _____    ______ ____
ROOT
ATOM      1  C   UNL     1      47.528   7.833  12.138  0.00  0.00    +0.000 A 
ATOM      2  C   UNL     1      46.588   8.827  12.424  0.00  0.00    +0.000 A 
ATOM      3  C   UNL     1      45.245   8.628  12.116  0.00  0.00    +0.000 A 
ATOM      4  C   UNL     1      44.828   7.434  11.514  0.00  0.00    +0.000 A 
ATOM      5  C   UNL     1      45.743   6.412  11.205  0.00  0.00    +0.000 A 
ATOM      6  C   UNL     1      47.090   6.631  11.550  0.00  0.00    +0.000 A 
ENDROOT
BRANCH   5   7
ATOM      7  C   UNL     1      45.318   5.177  10.510  0.00  0.00    +0.000 A 
ATOM      8  C   UNL     1      45.526   4.974   9.137  0.00  0.00    +0.000 A 
ATOM      9  C   UNL     1      45.083   3.808   8.512  0.00  0.00    +0.000 A 
ATOM     10  C   UNL     1      44.442   2.853   9.280  0.00  0.00    +0.000 A 
ATOM     11  N   UNL     1      44.217   2.989  10.601  0.00  0.00    +0.000 NA
ATOM     12  C   UNL     1      44.653   4.141  11.174  0.00  0.00    +0.000 A 
ENDBRANCH   5   7
BRANCH   1  13
ATOM     13  C   UNL     1      49.003   8.050  12.395  0.00  0.00    +0.000 C 
BRANCH  13  19
ATOM     14  C   UNL     1      48.360   7.792  18.663  0.00  0.00    +0.000 C 
ATOM     15  C   UNL     1      48.705   7.570  17.232  0.00  0.00    +0.000 A 
ATOM     16  C   UNL     1      48.837   6.327  16.656  0.00  0.00    +0.000 A 
ATOM     17  N   UNL     1      49.112   6.126  15.347  0.00  0.00    +0.000 NA
ATOM     18  C   UNL     1      49.282   7.216  14.588  0.00  0.00    +0.000 A 
ATOM     19  N   UNL     1      49.547   7.005  13.236  0.00  0.00    +0.000 N 
ATOM     20  N   UNL     1      49.193   8.468  15.059  0.00  0.00    +0.000 NA
ATOM     21  C   UNL     1      48.905   8.619  16.366  0.00  0.00    +0.000 A 
ATOM     22  H   UNL     1      49.238   6.065  13.022  0.00  0.00    +0.000 HD
ENDBRANCH  13  19
ENDBRANCH   1  13
TORSDOF 3
ENDMDL
MODEL 9
REMARK VINA RESULT:    -6.029      2.969      4.877
REMARK INTER + INTRA:          -7.683
REMARK INTER:                  -7.138
REMARK INTRA:                  -0.544
REMARK UNBOUND:                -0.597
REMARK  Name = 
REMARK  4 active torsions:
REMARK  status: ('A' for Active; 'I' for Inactive)
REMARK    1  A    between atoms: C_1  and  C_2
REMARK    2  A    between atoms: N_6  and  C_7
REMARK    3  A    between atoms: C_7  and  C_8
REMARK    4  A    between atoms: C_12  and  C_13
REMARK                            x       y       z     vdW  Elec       q    Type
REMARK                         _______ _______ _______ _____ _____    ______ ____
ROOT
ATOM      1  C   UNL     1      47.086   7.192  12.487  0.00  0.00    +0.000 A 
ATOM      2  C   UNL     1      48.248   7.942  12.283  0.00  0.00    +0.000 A 
ATOM      3  C   UNL     1      49.317   7.828  13.169  0.00  0.00    +0.000 A 
ATOM      4  C   UNL     1      49.232   6.969  14.271  0.00  0.00    +0.000 A 
ATOM      5  C   UNL     1      48.078   6.202  14.515  0.00  0.00    +0.000 A 
ATOM      6  C   UNL     1      47.024   6.319  13.590  0.00  0.00    +0.000 A 
ENDROOT
BRANCH   5   7
ATOM      7  C   UNL     1      47.959   5.342  15.712  0.00  0.00    +0.000 A 
ATOM      8  C   UNL     1      48.646   5.611  16.906  0.00  0.00    +0.000 A 
ATOM      9  C   UNL     1      48.532   4.758  18.004  0.00  0.00    +0.000 A 
ATOM     10  C   UNL     1      47.717   3.646  17.892  0.00  0.00    +0.000 A 
ATOM     11  N   UNL     1      47.030   3.338  16.774  0.00  0.00    +0.000 NA
ATOM     12  C   UNL     1      47.174   4.185  15.722  0.00  0.00    +0.000 A 
ENDBRANCH   5   7
BRANCH   1  13
ATOM     13  C   UNL     1      45.883   7.349  11.583  0.00  0.00    +0.000 C 
BRANCH  13  19
ATOM     14  C   UNL     1      44.996   1.791   8.740  0.00  0.00    +0.000 C 
ATOM     15  C   UNL     1      44.920   3.013   9.587  0.00  0.00    +0.000 A 
ATOM     16  C   UNL     1      44.502   3.016  10.898  0.00  0.00    +0.000 A 
ATOM     17  N   UNL     1      44.471   4.120  11.678  0.00  0.00    +0.000 NA
ATOM     18  C   UNL     1      44.857   5.272  11.116  0.00  0.00    +0.000 A 
ATOM     19  N   UNL     1      44.842   6.404  11.929  0.00  0.00    +0.000 N 
ATOM     20  N   UNL     1      45.264   5.376   9.843  0.00  0.00    +0.000 NA
ATOM     21  C   UNL     1      45.289   4.248   9.107  0.00  0.00    +0.000 A 
ATOM     22  H   UNL     1      44.849   6.075  12.887  0.00  0.00    +0.000 HD
ENDBRANCH  13  19
ENDBRANCH   1  13
TORSDOF 3
ENDMDL
