MODEL 1
REMARK VINA RESULT:    -7.430      0.000      0.000
REMARK INTER + INTRA:         -10.343
REMARK INTER:                  -9.819
REMARK INTRA:                  -0.523
REMARK UNBOUND:                -0.523
REMARK  Name = 
REMARK  8 active torsions:
REMARK  status: ('A' for Active; 'I' for Inactive)
REMARK    1  A    between atoms: C_1  and  C_2
REMARK    2  A    between atoms: C_2  and  C_3
REMARK    3  A    between atoms: C_2  and  N_4
REMARK    4  A    between atoms: C_2  and  C_5
REMARK    5  A    between atoms: C_5  and  C_6
REMARK    6  A    between atoms: C_9  and  C_10
REMARK    7  A    between atoms: C_10  and  N_11
REMARK    8  A    between atoms: C_17  and  C_18
REMARK                            x       y       z     vdW  Elec       q    Type
REMARK                         _______ _______ _______ _____ _____    ______ ____
ROOT
ATOM      1  C   UNL     1      44.327   4.507  11.978  0.00  0.00    +0.000 C 
ENDROOT
BRANCH   1   2
ATOM      2  N   UNL     1      45.402   5.080  12.783  0.00  0.00    +0.000 N 
ATOM      3  C   UNL     1      46.372   4.347  13.424  0.00  0.00    +0.000 A 
ATOM      4  C   UNL     1      47.314   5.222  13.929  0.00  0.00    +0.000 A 
ATOM      5  C   UNL     1      46.906   6.526  13.568  0.00  0.00    +0.000 A 
ATOM      6  N   UNL     1      47.534   7.701  13.802  0.00  0.00    +0.000 NA
ATOM      7  C   UNL     1      46.909   8.791  13.290  0.00  0.00    +0.000 A 
ATOM      8  C   UNL     1      45.705   8.789  12.590  0.00  0.00    +0.000 A 
ATOM      9  C   UNL     1      45.058   7.569  12.382  0.00  0.00    +0.000 A 
ATOM     10  C   UNL     1      45.702   6.425  12.871  0.00  0.00    +0.000 A 
BRANCH   8  11
ATOM     11  C   UNL     1      45.189  10.081  12.072  0.00  0.00    +0.000 C 
ATOM     12  N   UNL     1      43.852  10.344  12.185  0.00  0.00    +0.000 N 
ATOM     13  O   UNL     1      45.931  10.895  11.537  0.00  0.00    +0.000 OA
ATOM     14  H   UNL     1      43.158   9.713  12.549  0.00  0.00    +0.000 HD
ATOM     15  H   UNL     1      43.528  11.217  11.788  0.00  0.00    +0.000 HD
ENDBRANCH   8  11
ENDBRANCH   1   2
BRANCH   1  19
ATOM     16  C   UNL     1      45.605   3.465   7.978  0.00  0.00    +0.000 A 
ATOM     17  C   UNL     1      44.954   2.521   8.781  0.00  0.00    +0.000 A 
ATOM     18  C   UNL     1      44.536   2.852  10.070  0.00  0.00    +0.000 A 
ATOM     19  C   UNL     1      44.778   4.131  10.593  0.00  0.00    +0.000 A 
ATOM     20  C   UNL     1      45.445   5.069   9.792  0.00  0.00    +0.000 A 
ATOM     21  C   UNL     1      45.856   4.739   8.501  0.00  0.00    +0.000 A 
BRANCH  16  22
ATOM     22  C   UNL     1      45.971   3.120   6.550  0.00  0.00    +0.000 C 
BRANCH  22  24
ATOM     23  C   UNL     1      47.555   2.089   4.886  0.00  0.00    +0.000 C 
ATOM     24  C   UNL     1      47.328   2.373   6.380  0.00  0.00    +0.000 C 
ATOM     25  C   UNL     1      47.341   1.042   7.152  0.00  0.00    +0.000 C 
BRANCH  24  26
ATOM     26  N   UNL     1      48.458   3.199   6.840  0.00  0.00    +0.000 NA
ATOM     27  H   UNL     1      48.990   2.691   7.546  0.00  0.00    +0.000 HD
ATOM     28  H   UNL     1      48.092   4.027   7.312  0.00  0.00    +0.000 HD
ENDBRANCH  24  26
ENDBRANCH  22  24
ENDBRANCH  16  22
ENDBRANCH   1  19
TORSDOF 6
ENDMDL
MODEL 2
REMARK VINA RESULT:    -7.401      2.796      4.082
REMARK INTER + INTRA:         -10.304
REMARK INTER:                 -10.189
REMARK INTRA:                  -0.116
REMARK UNBOUND:                -0.523
REMARK  Name = 
REMARK  8 active torsions:
REMARK  status: ('A' for Active; 'I' for Inactive)
REMARK    1  A    between atoms: C_1  and  C_2
REMARK    2  A    between atoms: C_2  and  C_3
REMARK    3  A    between atoms: C_2  and  N_4
REMARK    4  A    between atoms: C_2  and  C_5
REMARK    5  A    between atoms: C_5  and  C_6
REMARK    6  A    between atoms: C_9  and  C_10
REMARK    7  A    between atoms: C_10  and  N_11
REMARK    8  A    between atoms: C_17  and  C_18
REMARK                            x       y       z     vdW  Elec       q    Type
REMARK                         _______ _______ _______ _____ _____    ______ ____
ROOT
ATOM      1  C   UNL     1      45.063   5.417  12.519  0.00  0.00    +0.000 C 
ENDROOT
BRANCH   1   2
ATOM      2  N   UNL     1      46.329   5.975  12.987  0.00  0.00    +0.000 N 
ATOM      3  C   UNL     1      46.915   7.111  12.480  0.00  0.00    +0.000 A 
ATOM      4  C   UNL     1      47.994   7.435  13.278  0.00  0.00    +0.000 A 
ATOM      5  C   UNL     1      48.053   6.470  14.310  0.00  0.00    +0.000 A 
ATOM      6  N   UNL     1      48.913   6.401  15.352  0.00  0.00    +0.000 NA
ATOM      7  C   UNL     1      48.689   5.373  16.207  0.00  0.00    +0.000 A 
ATOM      8  C   UNL     1      47.692   4.408  16.080  0.00  0.00    +0.000 A 
ATOM      9  C   UNL     1      46.831   4.480  14.983  0.00  0.00    +0.000 A 
ATOM     10  C   UNL     1      47.021   5.555  14.105  0.00  0.00    +0.000 A 
BRANCH   8  11
ATOM     11  C   UNL     1      47.576   3.373  17.137  0.00  0.00    +0.000 C 
ATOM     12  N   UNL     1      48.717   2.931  17.749  0.00  0.00    +0.000 N 
ATOM     13  O   UNL     1      46.491   2.902  17.453  0.00  0.00    +0.000 OA
ATOM     14  H   UNL     1      49.655   3.209  17.512  0.00  0.00    +0.000 HD
ATOM     15  H   UNL     1      48.606   2.197  18.437  0.00  0.00    +0.000 HD
ENDBRANCH   8  11
ENDBRANCH   1   2
BRANCH   1  19
ATOM     16  C   UNL     1      45.369   3.625   8.593  0.00  0.00    +0.000 A 
ATOM     17  C   UNL     1      44.935   2.864   9.686  0.00  0.00    +0.000 A 
ATOM     18  C   UNL     1      44.830   3.438  10.953  0.00  0.00    +0.000 A 
ATOM     19  C   UNL     1      45.178   4.781  11.160  0.00  0.00    +0.000 A 
ATOM     20  C   UNL     1      45.628   5.535  10.067  0.00  0.00    +0.000 A 
ATOM     21  C   UNL     1      45.725   4.963   8.799  0.00  0.00    +0.000 A 
BRANCH  16  22
ATOM     22  C   UNL     1      45.390   3.014   7.208  0.00  0.00    +0.000 C 
BRANCH  22  24
ATOM     23  C   UNL     1      46.759   2.520   5.153  0.00  0.00    +0.000 C 
ATOM     24  C   UNL     1      46.802   2.612   6.687  0.00  0.00    +0.000 C 
ATOM     25  C   UNL     1      47.251   1.256   7.259  0.00  0.00    +0.000 C 
BRANCH  24  26
ATOM     26  N   UNL     1      47.812   3.630   7.031  0.00  0.00    +0.000 NA
ATOM     27  H   UNL     1      47.513   4.144   7.858  0.00  0.00    +0.000 HD
ATOM     28  H   UNL     1      47.858   4.317   6.277  0.00  0.00    +0.000 HD
ENDBRANCH  24  26
ENDBRANCH  22  24
ENDBRANCH  16  22
ENDBRANCH   1  19
TORSDOF 6
ENDMDL
MODEL 3
REMARK VINA RESULT:    -7.030      2.782      7.458
REMARK INTER + INTRA:          -9.814
REMARK INTER:                  -9.201
REMARK INTRA:                  -0.613
REMARK UNBOUND:                -0.523
REMARK  Name = 
REMARK  8 active torsions:
REMARK  status: ('A' for Active; 'I' for Inactive)
REMARK    1  A    between atoms: C_1  and  C_2
REMARK    2  A    between atoms: C_2  and  C_3
REMARK    3  A    between atoms: C_2  and  N_4
REMARK    4  A    between atoms: C_2  and  C_5
REMARK    5  A    between atoms: C_5  and  C_6
REMARK    6  A    between atoms: C_9  and  C_10
REMARK    7  A    between atoms: C_10  and  N_11
REMARK    8  A    between atoms: C_17  and  C_18
REMARK                            x       y       z     vdW  Elec       q    Type
REMARK                         _______ _______ _______ _____ _____    ______ ____
ROOT
ATOM      1  C   UNL     1      44.906   7.214  11.316  0.00  0.00    +0.000 C 
ENDROOT
BRANCH   1   2
ATOM      2  N   UNL     1      44.401   5.850  11.444  0.00  0.00    +0.000 N 
ATOM      3  C   UNL     1      43.457   5.451  12.361  0.00  0.00    +0.000 A 
ATOM      4  C   UNL     1      43.094   4.150  12.071  0.00  0.00    +0.000 A 
ATOM      5  C   UNL     1      43.833   3.756  10.932  0.00  0.00    +0.000 A 
ATOM      6  N   UNL     1      43.780   2.585  10.256  0.00  0.00    +0.000 NA
ATOM      7  C   UNL     1      44.587   2.520   9.168  0.00  0.00    +0.000 A 
ATOM      8  C   UNL     1      45.448   3.523   8.729  0.00  0.00    +0.000 A 
ATOM      9  C   UNL     1      45.509   4.714   9.455  0.00  0.00    +0.000 A 
ATOM     10  C   UNL     1      44.657   4.818  10.563  0.00  0.00    +0.000 A 
BRANCH   8  11
ATOM     11  C   UNL     1      46.232   3.285   7.491  0.00  0.00    +0.000 C 
ATOM     12  N   UNL     1      46.783   2.049   7.293  0.00  0.00    +0.000 N 
ATOM     13  O   UNL     1      46.406   4.173   6.666  0.00  0.00    +0.000 OA
ATOM     14  H   UNL     1      46.750   1.281   7.942  0.00  0.00    +0.000 HD
ATOM     15  H   UNL     1      47.344   1.933   6.458  0.00  0.00    +0.000 HD
ENDBRANCH   8  11
ENDBRANCH   1   2
BRANCH   1  19
ATOM     16  C   UNL     1      48.495   7.839  13.651  0.00  0.00    +0.000 A 
ATOM     17  C   UNL     1      47.331   8.563  13.937  0.00  0.00    +0.000 A 
ATOM     18  C   UNL     1      46.169   8.363  13.190  0.00  0.00    +0.000 A 
ATOM     19  C   UNL     1      46.153   7.448  12.127  0.00  0.00    +0.000 A 
ATOM     20  C   UNL     1      47.325   6.737  11.833  0.00  0.00    +0.000 A 
ATOM     21  C   UNL     1      48.484   6.932  12.585  0.00  0.00    +0.000 A 
BRANCH  16  22
ATOM     22  C   UNL     1      49.719   8.001  14.527  0.00  0.00    +0.000 C 
BRANCH  22  24
ATOM     23  C   UNL     1      49.060   8.004  16.958  0.00  0.00    +0.000 C 
ATOM     24  C   UNL     1      49.704   7.165  15.842  0.00  0.00    +0.000 C 
ATOM     25  C   UNL     1      51.125   6.762  16.272  0.00  0.00    +0.000 C 
BRANCH  24  26
ATOM     26  N   UNL     1      48.889   5.945  15.694  0.00  0.00    +0.000 NA
ATOM     27  H   UNL     1      48.308   6.020  14.860  0.00  0.00    +0.000 HD
ATOM     28  H   UNL     1      48.240   5.884  16.480  0.00  0.00    +0.000 HD
ENDBRANCH  24  26
ENDBRANCH  22  24
ENDBRANCH  16  22
ENDBRANCH   1  19
TORSDOF 6
ENDMDL
MODEL 4
REMARK VINA RESULT:    -6.731      2.845      7.117
REMARK INTER + INTRA:          -9.418
REMARK INTER:                  -8.876
REMARK INTRA:                  -0.542
REMARK UNBOUND:                -0.523
REMARK  Name = 
REMARK  8 active torsions:
REMARK  status: ('A' for Active; 'I' for Inactive)
REMARK    1  A    between atoms: C_1  and  C_2
REMARK    2  A    between atoms: C_2  and  C_3
REMARK    3  A    between atoms: C_2  and  N_4
REMARK    4  A    between atoms: C_2  and  C_5
REMARK    5  A    between atoms: C_5  and  C_6
REMARK    6  A    between atoms: C_9  and  C_10
REMARK    7  A    between atoms: C_10  and  N_11
REMARK    8  A    between atoms: C_17  and  C_18
REMARK                            x       y       z     vdW  Elec       q    Type
REMARK                         _______ _______ _______ _____ _____    ______ ____
ROOT
ATOM      1  C   UNL     1      44.811   7.065  11.397  0.00  0.00    +0.000 C 
ENDROOT
BRANCH   1   2
ATOM      2  N   UNL     1      44.333   5.687  11.480  0.00  0.00    +0.000 N 
ATOM      3  C   UNL     1      43.389   5.242  12.374  0.00  0.00    +0.000 A 
ATOM      4  C   UNL     1      43.057   3.943  12.043  0.00  0.00    +0.000 A 
ATOM      5  C   UNL     1      43.816   3.598  10.901  0.00  0.00    +0.000 A 
ATOM      6  N   UNL     1      43.796   2.446  10.191  0.00  0.00    +0.000 NA
ATOM      7  C   UNL     1      44.615   2.430   9.111  0.00  0.00    +0.000 A 
ATOM      8  C   UNL     1      45.459   3.464   8.710  0.00  0.00    +0.000 A 
ATOM      9  C   UNL     1      45.487   4.634   9.472  0.00  0.00    +0.000 A 
ATOM     10  C   UNL     1      44.622   4.687  10.572  0.00  0.00    +0.000 A 
BRANCH   8  11
ATOM     11  C   UNL     1      46.261   3.279   7.475  0.00  0.00    +0.000 C 
ATOM     12  N   UNL     1      46.822   2.054   7.236  0.00  0.00    +0.000 N 
ATOM     13  O   UNL     1      46.441   4.199   6.688  0.00  0.00    +0.000 OA
ATOM     14  H   UNL     1      46.785   1.260   7.854  0.00  0.00    +0.000 HD
ATOM     15  H   UNL     1      47.394   1.974   6.405  0.00  0.00    +0.000 HD
ENDBRANCH   8  11
ENDBRANCH   1   2
BRANCH   1  19
ATOM     16  C   UNL     1      48.501   7.723  13.559  0.00  0.00    +0.000 A 
ATOM     17  C   UNL     1      48.212   6.464  13.021  0.00  0.00    +0.000 A 
ATOM     18  C   UNL     1      47.025   6.246  12.319  0.00  0.00    +0.000 A 
ATOM     19  C   UNL     1      46.092   7.280  12.158  0.00  0.00    +0.000 A 
ATOM     20  C   UNL     1      46.376   8.536  12.713  0.00  0.00    +0.000 A 
ATOM     21  C   UNL     1      47.566   8.754  13.407  0.00  0.00    +0.000 A 
BRANCH  16  22
ATOM     22  C   UNL     1      49.832   7.968  14.238  0.00  0.00    +0.000 C 
BRANCH  22  24
ATOM     23  C   UNL     1      51.019  10.063  13.501  0.00  0.00    +0.000 C 
ATOM     24  C   UNL     1      50.948   8.539  13.313  0.00  0.00    +0.000 C 
ATOM     25  C   UNL     1      50.669   8.228  11.833  0.00  0.00    +0.000 C 
BRANCH  24  26
ATOM     26  N   UNL     1      52.272   7.997  13.671  0.00  0.00    +0.000 NA
ATOM     27  H   UNL     1      52.170   7.300  14.407  0.00  0.00    +0.000 HD
ATOM     28  H   UNL     1      52.837   8.745  14.073  0.00  0.00    +0.000 HD
ENDBRANCH  24  26
ENDBRANCH  22  24
ENDBRANCH  16  22
ENDBRANCH   1  19
TORSDOF 6
ENDMDL
MODEL 5
REMARK VINA RESULT:    -6.581      3.692      8.309
REMARK INTER + INTRA:          -9.221
REMARK INTER:                  -8.681
REMARK INTRA:                  -0.540
REMARK UNBOUND:                -0.523
REMARK  Name = 
REMARK  8 active torsions:
REMARK  status: ('A' for Active; 'I' for Inactive)
REMARK    1  A    between atoms: C_1  and  C_2
REMARK    2  A    between atoms: C_2  and  C_3
REMARK    3  A    between atoms: C_2  and  N_4
REMARK    4  A    between atoms: C_2  and  C_5
REMARK    5  A    between atoms: C_5  and  C_6
REMARK    6  A    between atoms: C_9  and  C_10
REMARK    7  A    between atoms: C_10  and  N_11
REMARK    8  A    between atoms: C_17  and  C_18
REMARK                            x       y       z     vdW  Elec       q    Type
REMARK                         _______ _______ _______ _____ _____    ______ ____
ROOT
ATOM      1  C   UNL     1      47.887   6.380  12.657  0.00  0.00    +0.000 C 
ENDROOT
BRANCH   1   2
ATOM      2  N   UNL     1      46.537   6.875  12.400  0.00  0.00    +0.000 N 
ATOM      3  C   UNL     1      46.188   8.205  12.365  0.00  0.00    +0.000 A 
ATOM      4  C   UNL     1      44.884   8.298  11.920  0.00  0.00    +0.000 A 
ATOM      5  C   UNL     1      44.436   6.982  11.664  0.00  0.00    +0.000 A 
ATOM      6  N   UNL     1      43.242   6.578  11.173  0.00  0.00    +0.000 NA
ATOM      7  C   UNL     1      43.123   5.238  10.998  0.00  0.00    +0.000 A 
ATOM      8  C   UNL     1      44.095   4.286  11.298  0.00  0.00    +0.000 A 
ATOM      9  C   UNL     1      45.311   4.720  11.831  0.00  0.00    +0.000 A 
ATOM     10  C   UNL     1      45.470   6.104  11.987  0.00  0.00    +0.000 A 
BRANCH   8  11
ATOM     11  C   UNL     1      43.798   2.862  11.006  0.00  0.00    +0.000 C 
ATOM     12  N   UNL     1      44.474   2.248   9.987  0.00  0.00    +0.000 N 
ATOM     13  O   UNL     1      42.956   2.242  11.642  0.00  0.00    +0.000 OA
ATOM     14  H   UNL     1      45.133   2.692   9.369  0.00  0.00    +0.000 HD
ATOM     15  H   UNL     1      44.220   1.289   9.789  0.00  0.00    +0.000 HD
ENDBRANCH   8  11
ENDBRANCH   1   2
BRANCH   1  19
ATOM     16  C   UNL     1      48.596   5.703  16.871  0.00  0.00    +0.000 A 
ATOM     17  C   UNL     1      49.199   6.783  16.217  0.00  0.00    +0.000 A 
ATOM     18  C   UNL     1      48.971   7.010  14.859  0.00  0.00    +0.000 A 
ATOM     19  C   UNL     1      48.150   6.146  14.120  0.00  0.00    +0.000 A 
ATOM     20  C   UNL     1      47.560   5.055  14.774  0.00  0.00    +0.000 A 
ATOM     21  C   UNL     1      47.783   4.834  16.133  0.00  0.00    +0.000 A 
BRANCH  16  22
ATOM     22  C   UNL     1      48.780   5.523  18.363  0.00  0.00    +0.000 C 
BRANCH  22  24
ATOM     23  C   UNL     1      47.509   7.596  19.018  0.00  0.00    +0.000 C 
ATOM     24  C   UNL     1      47.619   6.079  19.241  0.00  0.00    +0.000 C 
ATOM     25  C   UNL     1      47.862   5.807  20.736  0.00  0.00    +0.000 C 
BRANCH  24  26
ATOM     26  N   UNL     1      46.324   5.490  18.856  0.00  0.00    +0.000 NA
ATOM     27  H   UNL     1      46.380   4.473  18.908  0.00  0.00    +0.000 HD
ATOM     28  H   UNL     1      46.140   5.708  17.876  0.00  0.00    +0.000 HD
ENDBRANCH  24  26
ENDBRANCH  22  24
ENDBRANCH  16  22
ENDBRANCH   1  19
TORSDOF 6
ENDMDL
MODEL 6
REMARK VINA RESULT:    -6.316      4.143      6.644
REMARK INTER + INTRA:          -8.870
REMARK INTER:                  -8.123
REMARK INTRA:                  -0.747
REMARK UNBOUND:                -0.523
REMARK  Name = 
REMARK  8 active torsions:
REMARK  status: ('A' for Active; 'I' for Inactive)
REMARK    1  A    between atoms: C_1  and  C_2
REMARK    2  A    between atoms: C_2  and  C_3
REMARK    3  A    between atoms: C_2  and  N_4
REMARK    4  A    between atoms: C_2  and  C_5
REMARK    5  A    between atoms: C_5  and  C_6
REMARK    6  A    between atoms: C_9  and  C_10
REMARK    7  A    between atoms: C_10  and  N_11
REMARK    8  A    between atoms: C_17  and  C_18
REMARK                            x       y       z     vdW  Elec       q    Type
REMARK                         _______ _______ _______ _____ _____    ______ ____
ROOT
ATOM      1  C   UNL     1      49.355   8.242  14.039  0.00  0.00    +0.000 C 
ENDROOT
BRANCH   1   2
ATOM      2  N   UNL     1      49.230   8.190  15.493  0.00  0.00    +0.000 N 
ATOM      3  C   UNL     1      49.302   9.286  16.321  0.00  0.00    +0.000 A 
ATOM      4  C   UNL     1      48.961   8.886  17.599  0.00  0.00    +0.000 A 
ATOM      5  C   UNL     1      48.660   7.507  17.537  0.00  0.00    +0.000 A 
ATOM      6  N   UNL     1      48.235   6.691  18.529  0.00  0.00    +0.000 NA
ATOM      7  C   UNL     1      47.987   5.413  18.147  0.00  0.00    +0.000 A 
ATOM      8  C   UNL     1      48.156   4.897  16.865  0.00  0.00    +0.000 A 
ATOM      9  C   UNL     1      48.623   5.747  15.860  0.00  0.00    +0.000 A 
ATOM     10  C   UNL     1      48.851   7.081  16.223  0.00  0.00    +0.000 A 
BRANCH   8  11
ATOM     11  C   UNL     1      47.799   3.476  16.626  0.00  0.00    +0.000 C 
ATOM     12  N   UNL     1      46.930   2.865  17.488  0.00  0.00    +0.000 N 
ATOM     13  O   UNL     1      48.280   2.847  15.692  0.00  0.00    +0.000 OA
ATOM     14  H   UNL     1      46.537   3.279  18.316  0.00  0.00    +0.000 HD
ATOM     15  H   UNL     1      46.739   1.886  17.318  0.00  0.00    +0.000 HD
ENDBRANCH   8  11
ENDBRANCH   1   2
BRANCH   1  19
ATOM     16  C   UNL     1      45.653   7.375  11.975  0.00  0.00    +0.000 A 
ATOM     17  C   UNL     1      45.713   8.412  12.913  0.00  0.00    +0.000 A 
ATOM     18  C   UNL     1      46.905   8.700  13.579  0.00  0.00    +0.000 A 
ATOM     19  C   UNL     1      48.059   7.940  13.336  0.00  0.00    +0.000 A 
ATOM     20  C   UNL     1      47.991   6.891  12.408  0.00  0.00    +0.000 A 
ATOM     21  C   UNL     1      46.801   6.610  11.738  0.00  0.00    +0.000 A 
BRANCH  16  22
ATOM     22  C   UNL     1      44.378   7.134  11.195  0.00  0.00    +0.000 C 
BRANCH  22  24
ATOM     23  C   UNL     1      44.091   5.374  12.972  0.00  0.00    +0.000 C 
ATOM     24  C   UNL     1      43.589   5.853  11.600  0.00  0.00    +0.000 C 
ATOM     25  C   UNL     1      43.779   4.724  10.573  0.00  0.00    +0.000 C 
BRANCH  24  26
ATOM     26  N   UNL     1      42.148   6.130  11.739  0.00  0.00    +0.000 NA
ATOM     27  H   UNL     1      41.866   6.000  12.709  0.00  0.00    +0.000 HD
ATOM     28  H   UNL     1      41.625   5.437  11.202  0.00  0.00    +0.000 HD
ENDBRANCH  24  26
ENDBRANCH  22  24
ENDBRANCH  16  22
ENDBRANCH   1  19
TORSDOF 6
ENDMDL
MODEL 7
REMARK VINA RESULT:    -6.201      3.525      5.647
REMARK INTER + INTRA:          -8.718
REMARK INTER:                  -7.996
REMARK INTRA:                  -0.722
REMARK UNBOUND:                -0.523
REMARK  Name = 
REMARK  8 active torsions:
REMARK  status: ('A' for Active; 'I' for Inactive)
REMARK    1  A    between atoms: C_1  and  C_2
REMARK    2  A    between atoms: C_2  and  C_3
REMARK    3  A    between atoms: C_2  and  N_4
REMARK    4  A    between atoms: C_2  and  C_5
REMARK    5  A    between atoms: C_5  and  C_6
REMARK    6  A    between atoms: C_9  and  C_10
REMARK    7  A    between atoms: C_10  and  N_11
REMARK    8  A    between atoms: C_17  and  C_18
REMARK                            x       y       z     vdW  Elec       q    Type
REMARK                         _______ _______ _______ _____ _____    ______ ____
ROOT
ATOM      1  C   UNL     1      47.234   8.540  13.738  0.00  0.00    +0.000 C 
ENDROOT
BRANCH   1   2
ATOM      2  N   UNL     1      48.525   8.022  14.185  0.00  0.00    +0.000 N 
ATOM      3  C   UNL     1      49.738   8.600  13.897  0.00  0.00    +0.000 A 
ATOM      4  C   UNL     1      50.712   7.948  14.629  0.00  0.00    +0.000 A 
ATOM      5  C   UNL     1      50.062   6.953  15.394  0.00  0.00    +0.000 A 
ATOM      6  N   UNL     1      50.599   6.096  16.293  0.00  0.00    +0.000 NA
ATOM      7  C   UNL     1      49.704   5.280  16.903  0.00  0.00    +0.000 A 
ATOM      8  C   UNL     1      48.333   5.246  16.663  0.00  0.00    +0.000 A 
ATOM      9  C   UNL     1      47.802   6.119  15.711  0.00  0.00    +0.000 A 
ATOM     10  C   UNL     1      48.702   6.997  15.093  0.00  0.00    +0.000 A 
BRANCH   8  11
ATOM     11  C   UNL     1      47.502   4.304  17.455  0.00  0.00    +0.000 C 
ATOM     12  N   UNL     1      47.727   4.207  18.801  0.00  0.00    +0.000 N 
ATOM     13  O   UNL     1      46.644   3.611  16.925  0.00  0.00    +0.000 OA
ATOM     14  H   UNL     1      48.450   4.686  19.312  0.00  0.00    +0.000 HD
ATOM     15  H   UNL     1      47.170   3.528  19.304  0.00  0.00    +0.000 HD
ENDBRANCH   8  11
ENDBRANCH   1   2
BRANCH   1  19
ATOM     16  C   UNL     1      45.218   5.857  11.008  0.00  0.00    +0.000 A 
ATOM     17  C   UNL     1      46.594   6.080  10.892  0.00  0.00    +0.000 A 
ATOM     18  C   UNL     1      47.251   6.941  11.772  0.00  0.00    +0.000 A 
ATOM     19  C   UNL     1      46.540   7.614  12.776  0.00  0.00    +0.000 A 
ATOM     20  C   UNL     1      45.158   7.401  12.879  0.00  0.00    +0.000 A 
ATOM     21  C   UNL     1      44.504   6.535  12.004  0.00  0.00    +0.000 A 
BRANCH  16  22
ATOM     22  C   UNL     1      44.536   4.851  10.105  0.00  0.00    +0.000 C 
BRANCH  22  24
ATOM     23  C   UNL     1      45.239   3.262  11.926  0.00  0.00    +0.000 C 
ATOM     24  C   UNL     1      44.266   3.460  10.753  0.00  0.00    +0.000 C 
ATOM     25  C   UNL     1      44.460   2.318   9.740  0.00  0.00    +0.000 C 
BRANCH  24  26
ATOM     26  N   UNL     1      42.901   3.379  11.303  0.00  0.00    +0.000 NA
ATOM     27  H   UNL     1      42.371   2.668  10.802  0.00  0.00    +0.000 HD
ATOM     28  H   UNL     1      42.419   4.261  11.124  0.00  0.00    +0.000 HD
ENDBRANCH  24  26
ENDBRANCH  22  24
ENDBRANCH  16  22
ENDBRANCH   1  19
TORSDOF 6
ENDMDL
MODEL 8
REMARK VINA RESULT:    -6.160      4.217      7.234
REMARK INTER + INTRA:          -8.664
REMARK INTER:                  -7.975
REMARK INTRA:                  -0.689
REMARK UNBOUND:                -0.523
REMARK  Name = 
REMARK  8 active torsions:
REMARK  status: ('A' for Active; 'I' for Inactive)
REMARK    1  A    between atoms: C_1  and  C_2
REMARK    2  A    between atoms: C_2  and  C_3
REMARK    3  A    between atoms: C_2  and  N_4
REMARK    4  A    between atoms: C_2  and  C_5
REMARK    5  A    between atoms: C_5  and  C_6
REMARK    6  A    between atoms: C_9  and  C_10
REMARK    7  A    between atoms: C_10  and  N_11
REMARK    8  A    between atoms: C_17  and  C_18
REMARK                            x       y       z     vdW  Elec       q    Type
REMARK                         _______ _______ _______ _____ _____    ______ ____
ROOT
ATOM      1  C   UNL     1      49.370   7.677  15.283  0.00  0.00    +0.000 C 
ENDROOT
BRANCH   1   2
ATOM      2  N   UNL     1      48.968   7.305  16.637  0.00  0.00    +0.000 N 
ATOM      3  C   UNL     1      48.300   8.135  17.507  0.00  0.00    +0.000 A 
ATOM      4  C   UNL     1      47.929   7.394  18.612  0.00  0.00    +0.000 A 
ATOM      5  C   UNL     1      48.375   6.070  18.395  0.00  0.00    +0.000 A 
ATOM      6  N   UNL     1      48.202   4.983  19.182  0.00  0.00    +0.000 NA
ATOM      7  C   UNL     1      48.713   3.832  18.679  0.00  0.00    +0.000 A 
ATOM      8  C   UNL     1      49.396   3.700  17.472  0.00  0.00    +0.000 A 
ATOM      9  C   UNL     1      49.588   4.839  16.688  0.00  0.00    +0.000 A 
ATOM     10  C   UNL     1      49.037   6.033  17.169  0.00  0.00    +0.000 A 
BRANCH   8  11
ATOM     11  C   UNL     1      49.855   2.347  17.067  0.00  0.00    +0.000 C 
ATOM     12  N   UNL     1      50.836   1.741  17.804  0.00  0.00    +0.000 N 
ATOM     13  O   UNL     1      49.387   1.782  16.087  0.00  0.00    +0.000 OA
ATOM     14  H   UNL     1      51.324   2.152  18.582  0.00  0.00    +0.000 HD
ATOM     15  H   UNL     1      51.152   0.837  17.477  0.00  0.00    +0.000 HD
ENDBRANCH   8  11
ENDBRANCH   1   2
BRANCH   1  19
ATOM     16  C   UNL     1      46.249   7.055  12.352  0.00  0.00    +0.000 A 
ATOM     17  C   UNL     1      46.309   8.251  13.078  0.00  0.00    +0.000 A 
ATOM     18  C   UNL     1      47.316   8.459  14.022  0.00  0.00    +0.000 A 
ATOM     19  C   UNL     1      48.273   7.466  14.275  0.00  0.00    +0.000 A 
ATOM     20  C   UNL     1      48.200   6.263  13.558  0.00  0.00    +0.000 A 
ATOM     21  C   UNL     1      47.198   6.059  12.609  0.00  0.00    +0.000 A 
BRANCH  16  22
ATOM     22  C   UNL     1      45.206   6.881  11.268  0.00  0.00    +0.000 C 
BRANCH  22  24
ATOM     23  C   UNL     1      43.936   5.534  12.975  0.00  0.00    +0.000 C 
ATOM     24  C   UNL     1      44.236   5.679  11.474  0.00  0.00    +0.000 C 
ATOM     25  C   UNL     1      44.845   4.366  10.954  0.00  0.00    +0.000 C 
BRANCH  24  26
ATOM     26  N   UNL     1      42.947   5.906  10.795  0.00  0.00    +0.000 NA
ATOM     27  H   UNL     1      43.105   6.387   9.911  0.00  0.00    +0.000 HD
ATOM     28  H   UNL     1      42.384   6.543  11.361  0.00  0.00    +0.000 HD
ENDBRANCH  24  26
ENDBRANCH  22  24
ENDBRANCH  16  22
ENDBRANCH   1  19
TORSDOF 6
ENDMDL
MODEL 9
REMARK VINA RESULT:    -5.557      4.544      6.888
REMARK INTER + INTRA:          -7.867
REMARK INTER:                  -7.409
REMARK INTRA:                  -0.458
REMARK UNBOUND:                -0.523
REMARK  Name = 
REMARK  8 active torsions:
REMARK  status: ('A' for Active; 'I' for Inactive)
REMARK    1  A    between atoms: C_1  and  C_2
REMARK    2  A    between atoms: C_2  and  C_3
REMARK    3  A    between atoms: C_2  and  N_4
REMARK    4  A    between atoms: C_2  and  C_5
REMARK    5  A    between atoms: C_5  and  C_6
REMARK    6  A    between atoms: C_9  and  C_10
REMARK    7  A    between atoms: C_10  and  N_11
REMARK    8  A    between atoms: C_17  and  C_18
REMARK                            x       y       z     vdW  Elec       q    Type
REMARK                         _______ _______ _______ _____ _____    ______ ____
ROOT
ATOM      1  C   UNL     1      47.535   8.285  12.154  0.00  0.00    +0.000 C 
ENDROOT
BRANCH   1   2
ATOM      2  N   UNL     1      47.470   7.021  12.884  0.00  0.00    +0.000 N 
ATOM      3  C   UNL     1      48.054   6.797  14.108  0.00  0.00    +0.000 A 
ATOM      4  C   UNL     1      47.633   5.565  14.569  0.00  0.00    +0.000 A 
ATOM      5  C   UNL     1      46.755   5.035  13.597  0.00  0.00    +0.000 A 
ATOM      6  N   UNL     1      46.062   3.873  13.631  0.00  0.00    +0.000 NA
ATOM      7  C   UNL     1      45.262   3.657  12.557  0.00  0.00    +0.000 A 
ATOM      8  C   UNL     1      45.126   4.501  11.457  0.00  0.00    +0.000 A 
ATOM      9  C   UNL     1      45.870   5.682  11.428  0.00  0.00    +0.000 A 
ATOM     10  C   UNL     1      46.677   5.944  12.543  0.00  0.00    +0.000 A 
BRANCH   8  11
ATOM     11  C   UNL     1      44.171   4.115  10.388  0.00  0.00    +0.000 C 
ATOM     12  N   UNL     1      44.282   4.715   9.164  0.00  0.00    +0.000 N 
ATOM     13  O   UNL     1      43.287   3.292  10.589  0.00  0.00    +0.000 OA
ATOM     14  H   UNL     1      44.932   5.445   8.925  0.00  0.00    +0.000 HD
ATOM     15  H   UNL     1      43.592   4.457   8.470  0.00  0.00    +0.000 HD
ENDBRANCH   8  11
ENDBRANCH   1   2
BRANCH   1  19
ATOM     16  C   UNL     1      51.575   9.249  10.939  0.00  0.00    +0.000 A 
ATOM     17  C   UNL     1      50.688  10.265  11.313  0.00  0.00    +0.000 A 
ATOM     18  C   UNL     1      49.385   9.960  11.710  0.00  0.00    +0.000 A 
ATOM     19  C   UNL     1      48.934   8.632  11.721  0.00  0.00    +0.000 A 
ATOM     20  C   UNL     1      49.820   7.618  11.330  0.00  0.00    +0.000 A 
ATOM     21  C   UNL     1      51.125   7.923  10.941  0.00  0.00    +0.000 A 
BRANCH  16  22
ATOM     22  C   UNL     1      53.011   9.586  10.599  0.00  0.00    +0.000 C 
BRANCH  22  24
ATOM     23  C   UNL     1      54.767  10.180   8.896  0.00  0.00    +0.000 C 
ATOM     24  C   UNL     1      53.317   9.705   9.076  0.00  0.00    +0.000 C 
ATOM     25  C   UNL     1      52.371  10.704   8.386  0.00  0.00    +0.000 C 
BRANCH  24  26
ATOM     26  N   UNL     1      53.202   8.400   8.400  0.00  0.00    +0.000 NA
ATOM     27  H   UNL     1      53.876   7.748   8.798  0.00  0.00    +0.000 HD
ATOM     28  H   UNL     1      53.467   8.510   7.421  0.00  0.00    +0.000 HD
ENDBRANCH  24  26
ENDBRANCH  22  24
ENDBRANCH  16  22
ENDBRANCH   1  19
TORSDOF 6
ENDMDL
