MODEL 1
REMARK VINA RESULT:    -7.854      0.000      0.000
REMARK INTER + INTRA:         -10.033
REMARK INTER:                  -9.690
REMARK INTRA:                  -0.344
REMARK UNBOUND:                -0.344
REMARK  Name = 
REMARK  4 active torsions:
REMARK  status: ('A' for Active; 'I' for Inactive)
REMARK    1  A    between atoms: C_2  and  C_3
REMARK    2  A    between atoms: C_8  and  C_9
REMARK    3  A    between atoms: C_9  and  N_10
REMARK    4  A    between atoms: C_14  and  C_15
REMARK                            x       y       z     vdW  Elec       q    Type
REMARK                         _______ _______ _______ _____ _____    ______ ____
ROOT
ATOM      1  N   UNL     1      44.529   3.734  11.311  0.00  0.00    +0.000 N 
ATOM      2  C   UNL     1      45.059   3.540  10.014  0.00  0.00    +0.000 A 
ATOM      3  C   UNL     1      45.146   2.236   9.538  0.00  0.00    +0.000 A 
ATOM      4  C   UNL     1      45.752   1.984   8.308  0.00  0.00    +0.000 A 
ATOM      5  C   UNL     1      46.263   3.058   7.607  0.00  0.00    +0.000 A 
ATOM      6  N   UNL     1      46.119   4.330   8.043  0.00  0.00    +0.000 NA
ATOM      7  N   UNL     1      45.487   4.560   9.242  0.00  0.00    +0.000 NA
ATOM      8  H   UNL     1      45.047   3.163  11.975  0.00  0.00    +0.000 HD
ENDROOT
BRANCH   5   9
ATOM      9  C   UNL     1      47.075   2.856   6.376  0.00  0.00    +0.000 C 
ATOM     10  N   UNL     1      48.419   2.677   6.563  0.00  0.00    +0.000 N 
ATOM     11  O   UNL     1      46.570   2.812   5.260  0.00  0.00    +0.000 OA
ATOM     12  H   UNL     1      48.809   2.632   7.497  0.00  0.00    +0.000 HD
ATOM     13  H   UNL     1      48.994   2.429   5.770  0.00  0.00    +0.000 HD
ENDBRANCH   5   9
BRANCH   1  14
ATOM     14  C   UNL     1      44.130   5.075  11.805  0.00  0.00    +0.000 C 
ATOM     15  C   UNL     1      42.800   5.635  11.331  0.00  0.00    +0.000 C 
ATOM     16  C   UNL     1      42.908   5.083  12.715  0.00  0.00    +0.000 C 
BRANCH  14  22
ATOM     17  C   UNL     1      46.486   5.669  12.722  0.00  0.00    +0.000 A 
ATOM     18  N   UNL     1      47.581   6.473  12.855  0.00  0.00    +0.000 NA
ATOM     19  C   UNL     1      47.494   7.716  12.348  0.00  0.00    +0.000 A 
ATOM     20  C   UNL     1      46.347   8.216  11.766  0.00  0.00    +0.000 A 
ATOM     21  C   UNL     1      45.240   7.377  11.666  0.00  0.00    +0.000 A 
ATOM     22  C   UNL     1      45.285   6.039  12.101  0.00  0.00    +0.000 A 
BRANCH  17  24
ATOM     23  N   UNL     1      46.801   3.286  13.712  0.00  0.00    +0.000 NA
ATOM     24  C   UNL     1      46.655   4.363  13.286  0.00  0.00    +0.000 C 
ENDBRANCH  17  24
ENDBRANCH  14  22
ENDBRANCH   1  14
TORSDOF 4
ENDMDL
MODEL 2
REMARK VINA RESULT:    -6.917      1.705      2.649
REMARK INTER + INTRA:          -8.877
REMARK INTER:                  -9.097
REMARK INTRA:                   0.220
REMARK UNBOUND:                -0.344
REMARK  Name = 
REMARK  4 active torsions:
REMARK  status: ('A' for Active; 'I' for Inactive)
REMARK    1  A    between atoms: C_2  and  C_3
REMARK    2  A    between atoms: C_8  and  C_9
REMARK    3  A    between atoms: C_9  and  N_10
REMARK    4  A    between atoms: C_14  and  C_15
REMARK                            x       y       z     vdW  Elec       q    Type
REMARK                         _______ _______ _______ _____ _____    ______ ____
ROOT
ATOM      1  N   UNL     1      44.321   5.059   9.882  0.00  0.00    +0.000 N 
ATOM      2  C   UNL     1      45.081   4.048   9.249  0.00  0.00    +0.000 A 
ATOM      3  C   UNL     1      45.560   4.303   7.968  0.00  0.00    +0.000 A 
ATOM      4  C   UNL     1      46.229   3.304   7.264  0.00  0.00    +0.000 A 
ATOM      5  C   UNL     1      46.379   2.074   7.873  0.00  0.00    +0.000 A 
ATOM      6  N   UNL     1      45.970   1.850   9.141  0.00  0.00    +0.000 NA
ATOM      7  N   UNL     1      45.343   2.861   9.832  0.00  0.00    +0.000 NA
ATOM      8  H   UNL     1      43.548   5.327   9.277  0.00  0.00    +0.000 HD
ENDROOT
BRANCH   5   9
ATOM      9  C   UNL     1      46.924   0.908   7.125  0.00  0.00    +0.000 C 
ATOM     10  N   UNL     1      46.659  -0.326   7.655  0.00  0.00    +0.000 N 
ATOM     11  O   UNL     1      47.542   1.036   6.074  0.00  0.00    +0.000 OA
ATOM     12  H   UNL     1      46.076  -0.419   8.479  0.00  0.00    +0.000 HD
ATOM     13  H   UNL     1      46.915  -1.149   7.128  0.00  0.00    +0.000 HD
ENDBRANCH   5   9
BRANCH   1  14
ATOM     14  C   UNL     1      44.005   5.013  11.331  0.00  0.00    +0.000 C 
ATOM     15  C   UNL     1      42.642   5.518  11.773  0.00  0.00    +0.000 C 
ATOM     16  C   UNL     1      42.892   4.046  11.712  0.00  0.00    +0.000 C 
BRANCH  14  22
ATOM     17  C   UNL     1      45.753   6.410  12.649  0.00  0.00    +0.000 A 
ATOM     18  N   UNL     1      46.718   6.582  13.600  0.00  0.00    +0.000 NA
ATOM     19  C   UNL     1      47.172   5.478  14.220  0.00  0.00    +0.000 A 
ATOM     20  C   UNL     1      46.753   4.204  13.896  0.00  0.00    +0.000 A 
ATOM     21  C   UNL     1      45.784   4.061  12.905  0.00  0.00    +0.000 A 
ATOM     22  C   UNL     1      45.205   5.176  12.272  0.00  0.00    +0.000 A 
BRANCH  17  24
ATOM     23  N   UNL     1      44.938   8.609  11.527  0.00  0.00    +0.000 NA
ATOM     24  C   UNL     1      45.323   7.630  12.034  0.00  0.00    +0.000 C 
ENDBRANCH  17  24
ENDBRANCH  14  22
ENDBRANCH   1  14
TORSDOF 4
ENDMDL
MODEL 3
REMARK VINA RESULT:    -6.631      3.306      6.345
REMARK INTER + INTRA:          -8.525
REMARK INTER:                  -8.813
REMARK INTRA:                   0.287
REMARK UNBOUND:                -0.344
REMARK  Name = 
REMARK  4 active torsions:
REMARK  status: ('A' for Active; 'I' for Inactive)
REMARK    1  A    between atoms: C_2  and  C_3
REMARK    2  A    between atoms: C_8  and  C_9
REMARK    3  A    between atoms: C_9  and  N_10
REMARK    4  A    between atoms: C_14  and  C_15
REMARK                            x       y       z     vdW  Elec       q    Type
REMARK                         _______ _______ _______ _____ _____    ______ ____
ROOT
ATOM      1  N   UNL     1      46.185   6.129  12.109  0.00  0.00    +0.000 N 
ATOM      2  C   UNL     1      46.594   5.618  13.364  0.00  0.00    +0.000 A 
ATOM      3  C   UNL     1      47.657   6.247  14.003  0.00  0.00    +0.000 A 
ATOM      4  C   UNL     1      48.163   5.722  15.191  0.00  0.00    +0.000 A 
ATOM      5  C   UNL     1      47.585   4.570  15.686  0.00  0.00    +0.000 A 
ATOM      6  N   UNL     1      46.511   3.999  15.096  0.00  0.00    +0.000 NA
ATOM      7  N   UNL     1      46.005   4.553  13.943  0.00  0.00    +0.000 NA
ATOM      8  H   UNL     1      46.986   6.165  11.483  0.00  0.00    +0.000 HD
ENDROOT
BRANCH   5   9
ATOM      9  C   UNL     1      48.175   3.852  16.849  0.00  0.00    +0.000 C 
ATOM     10  N   UNL     1      47.286   3.322  17.745  0.00  0.00    +0.000 N 
ATOM     11  O   UNL     1      49.385   3.708  16.983  0.00  0.00    +0.000 OA
ATOM     12  H   UNL     1      46.289   3.379  17.577  0.00  0.00    +0.000 HD
ATOM     13  H   UNL     1      47.634   2.736  18.491  0.00  0.00    +0.000 HD
ENDBRANCH   5   9
BRANCH   1  14
ATOM     14  C   UNL     1      44.904   5.727  11.478  0.00  0.00    +0.000 C 
ATOM     15  C   UNL     1      43.640   5.834  12.313  0.00  0.00    +0.000 C 
ATOM     16  C   UNL     1      43.912   6.864  11.266  0.00  0.00    +0.000 C 
BRANCH  14  22
ATOM     17  C   UNL     1      44.459   3.342  10.553  0.00  0.00    +0.000 A 
ATOM     18  N   UNL     1      44.409   2.401   9.564  0.00  0.00    +0.000 NA
ATOM     19  C   UNL     1      44.930   2.738   8.370  0.00  0.00    +0.000 A 
ATOM     20  C   UNL     1      45.550   3.947   8.131  0.00  0.00    +0.000 A 
ATOM     21  C   UNL     1      45.604   4.877   9.168  0.00  0.00    +0.000 A 
ATOM     22  C   UNL     1      45.009   4.624  10.418  0.00  0.00    +0.000 A 
BRANCH  17  24
ATOM     23  N   UNL     1      43.422   2.521  12.790  0.00  0.00    +0.000 NA
ATOM     24  C   UNL     1      43.887   2.909  11.793  0.00  0.00    +0.000 C 
ENDBRANCH  17  24
ENDBRANCH  14  22
ENDBRANCH   1  14
TORSDOF 4
ENDMDL
MODEL 4
REMARK VINA RESULT:    -5.278      4.551      6.914
REMARK INTER + INTRA:          -6.855
REMARK INTER:                  -7.133
REMARK INTRA:                   0.278
REMARK UNBOUND:                -0.344
REMARK  Name = 
REMARK  4 active torsions:
REMARK  status: ('A' for Active; 'I' for Inactive)
REMARK    1  A    between atoms: C_2  and  C_3
REMARK    2  A    between atoms: C_8  and  C_9
REMARK    3  A    between atoms: C_9  and  N_10
REMARK    4  A    between atoms: C_14  and  C_15
REMARK                            x       y       z     vdW  Elec       q    Type
REMARK                         _______ _______ _______ _____ _____    ______ ____
ROOT
ATOM      1  N   UNL     1      48.171   6.046  16.105  0.00  0.00    +0.000 N 
ATOM      2  C   UNL     1      47.497   5.501  14.986  0.00  0.00    +0.000 A 
ATOM      3  C   UNL     1      47.584   6.187  13.780  0.00  0.00    +0.000 A 
ATOM      4  C   UNL     1      46.858   5.746  12.675  0.00  0.00    +0.000 A 
ATOM      5  C   UNL     1      46.056   4.633  12.831  0.00  0.00    +0.000 A 
ATOM      6  N   UNL     1      46.025   3.931  13.986  0.00  0.00    +0.000 NA
ATOM      7  N   UNL     1      46.776   4.363  15.054  0.00  0.00    +0.000 NA
ATOM      8  H   UNL     1      47.874   7.009  16.239  0.00  0.00    +0.000 HD
ENDROOT
BRANCH   5   9
ATOM      9  C   UNL     1      45.121   4.203  11.756  0.00  0.00    +0.000 C 
ATOM     10  N   UNL     1      44.936   2.854  11.622  0.00  0.00    +0.000 N 
ATOM     11  O   UNL     1      44.518   5.007  11.054  0.00  0.00    +0.000 OA
ATOM     12  H   UNL     1      45.378   2.206  12.264  0.00  0.00    +0.000 HD
ATOM     13  H   UNL     1      44.232   2.518  10.980  0.00  0.00    +0.000 HD
ENDBRANCH   5   9
BRANCH   1  14
ATOM     14  C   UNL     1      48.383   5.268  17.350  0.00  0.00    +0.000 C 
ATOM     15  C   UNL     1      48.073   5.950  18.671  0.00  0.00    +0.000 C 
ATOM     16  C   UNL     1      47.112   4.945  18.126  0.00  0.00    +0.000 C 
BRANCH  14  22
ATOM     17  C   UNL     1      50.859   4.504  17.524  0.00  0.00    +0.000 A 
ATOM     18  N   UNL     1      51.847   3.568  17.628  0.00  0.00    +0.000 NA
ATOM     19  C   UNL     1      51.487   2.279  17.497  0.00  0.00    +0.000 A 
ATOM     20  C   UNL     1      50.197   1.880  17.210  0.00  0.00    +0.000 A 
ATOM     21  C   UNL     1      49.216   2.862  17.087  0.00  0.00    +0.000 A 
ATOM     22  C   UNL     1      49.505   4.224  17.292  0.00  0.00    +0.000 A 
BRANCH  17  24
ATOM     23  N   UNL     1      51.668   6.957  17.816  0.00  0.00    +0.000 NA
ATOM     24  C   UNL     1      51.321   5.852  17.673  0.00  0.00    +0.000 C 
ENDBRANCH  17  24
ENDBRANCH  14  22
ENDBRANCH   1  14
TORSDOF 4
ENDMDL
MODEL 5
REMARK VINA RESULT:    -5.275      2.202      3.484
REMARK INTER + INTRA:          -6.852
REMARK INTER:                  -6.946
REMARK INTRA:                   0.093
REMARK UNBOUND:                -0.344
REMARK  Name = 
REMARK  4 active torsions:
REMARK  status: ('A' for Active; 'I' for Inactive)
REMARK    1  A    between atoms: C_2  and  C_3
REMARK    2  A    between atoms: C_8  and  C_9
REMARK    3  A    between atoms: C_9  and  N_10
REMARK    4  A    between atoms: C_14  and  C_15
REMARK                            x       y       z     vdW  Elec       q    Type
REMARK                         _______ _______ _______ _____ _____    ______ ____
ROOT
ATOM      1  N   UNL     1      46.181   6.436  12.875  0.00  0.00    +0.000 N 
ATOM      2  C   UNL     1      45.692   5.575  11.864  0.00  0.00    +0.000 A 
ATOM      3  C   UNL     1      45.123   4.369  12.260  0.00  0.00    +0.000 A 
ATOM      4  C   UNL     1      44.718   3.443  11.300  0.00  0.00    +0.000 A 
ATOM      5  C   UNL     1      44.914   3.761   9.971  0.00  0.00    +0.000 A 
ATOM      6  N   UNL     1      45.408   4.961   9.590  0.00  0.00    +0.000 NA
ATOM      7  N   UNL     1      45.769   5.874  10.552  0.00  0.00    +0.000 NA
ATOM      8  H   UNL     1      46.837   5.926  13.462  0.00  0.00    +0.000 HD
ENDROOT
BRANCH   5   9
ATOM      9  C   UNL     1      44.670   2.760   8.897  0.00  0.00    +0.000 C 
ATOM     10  N   UNL     1      44.490   3.261   7.637  0.00  0.00    +0.000 N 
ATOM     11  O   UNL     1      44.668   1.554   9.116  0.00  0.00    +0.000 OA
ATOM     12  H   UNL     1      44.577   4.255   7.458  0.00  0.00    +0.000 HD
ATOM     13  H   UNL     1      44.428   2.618   6.859  0.00  0.00    +0.000 HD
ENDBRANCH   5   9
BRANCH   1  14
ATOM     14  C   UNL     1      46.543   7.847  12.597  0.00  0.00    +0.000 C 
ATOM     15  C   UNL     1      45.597   8.662  11.732  0.00  0.00    +0.000 C 
ATOM     16  C   UNL     1      45.605   8.879  13.210  0.00  0.00    +0.000 C 
BRANCH  14  22
ATOM     17  C   UNL     1      49.005   7.517  13.354  0.00  0.00    +0.000 A 
ATOM     18  N   UNL     1      50.357   7.655  13.218  0.00  0.00    +0.000 NA
ATOM     19  C   UNL     1      50.796   8.457  12.231  0.00  0.00    +0.000 A 
ATOM     20  C   UNL     1      49.951   9.173  11.408  0.00  0.00    +0.000 A 
ATOM     21  C   UNL     1      48.577   9.028  11.587  0.00  0.00    +0.000 A 
ATOM     22  C   UNL     1      48.047   8.145  12.546  0.00  0.00    +0.000 A 
BRANCH  17  24
ATOM     23  N   UNL     1      48.336   5.939  15.307  0.00  0.00    +0.000 NA
ATOM     24  C   UNL     1      48.616   6.650  14.426  0.00  0.00    +0.000 C 
ENDBRANCH  17  24
ENDBRANCH  14  22
ENDBRANCH   1  14
TORSDOF 4
ENDMDL
MODEL 6
REMARK VINA RESULT:    -5.137      3.538      6.556
REMARK INTER + INTRA:          -6.681
REMARK INTER:                  -6.677
REMARK INTRA:                  -0.004
REMARK UNBOUND:                -0.344
REMARK  Name = 
REMARK  4 active torsions:
REMARK  status: ('A' for Active; 'I' for Inactive)
REMARK    1  A    between atoms: C_2  and  C_3
REMARK    2  A    between atoms: C_8  and  C_9
REMARK    3  A    between atoms: C_9  and  N_10
REMARK    4  A    between atoms: C_14  and  C_15
REMARK                            x       y       z     vdW  Elec       q    Type
REMARK                         _______ _______ _______ _____ _____    ______ ____
ROOT
ATOM      1  N   UNL     1      46.848   6.942  11.449  0.00  0.00    +0.000 N 
ATOM      2  C   UNL     1      47.829   7.192  12.437  0.00  0.00    +0.000 A 
ATOM      3  C   UNL     1      49.133   7.423  12.012  0.00  0.00    +0.000 A 
ATOM      4  C   UNL     1      50.153   7.574  12.950  0.00  0.00    +0.000 A 
ATOM      5  C   UNL     1      49.823   7.473  14.287  0.00  0.00    +0.000 A 
ATOM      6  N   UNL     1      48.544   7.313  14.697  0.00  0.00    +0.000 NA
ATOM      7  N   UNL     1      47.548   7.201  13.756  0.00  0.00    +0.000 NA
ATOM      8  H   UNL     1      47.155   6.173  10.857  0.00  0.00    +0.000 HD
ENDROOT
BRANCH   5   9
ATOM      9  C   UNL     1      50.876   7.450  15.338  0.00  0.00    +0.000 C 
ATOM     10  N   UNL     1      52.169   7.512  14.897  0.00  0.00    +0.000 N 
ATOM     11  O   UNL     1      50.605   7.416  16.534  0.00  0.00    +0.000 OA
ATOM     12  H   UNL     1      52.374   7.623  13.911  0.00  0.00    +0.000 HD
ATOM     13  H   UNL     1      52.913   7.607  15.574  0.00  0.00    +0.000 HD
ENDBRANCH   5   9
BRANCH   1  14
ATOM     14  C   UNL     1      45.397   6.965  11.758  0.00  0.00    +0.000 C 
ATOM     15  C   UNL     1      44.885   8.072  12.662  0.00  0.00    +0.000 C 
ATOM     16  C   UNL     1      44.642   8.160  11.191  0.00  0.00    +0.000 C 
BRANCH  14  22
ATOM     17  C   UNL     1      44.833   4.624  10.785  0.00  0.00    +0.000 A 
ATOM     18  N   UNL     1      44.356   3.348  10.865  0.00  0.00    +0.000 NA
ATOM     19  C   UNL     1      43.716   3.002  11.997  0.00  0.00    +0.000 A 
ATOM     20  C   UNL     1      43.479   3.885  13.030  0.00  0.00    +0.000 A 
ATOM     21  C   UNL     1      43.960   5.186  12.908  0.00  0.00    +0.000 A 
ATOM     22  C   UNL     1      44.708   5.595  11.788  0.00  0.00    +0.000 A 
BRANCH  17  24
ATOM     23  N   UNL     1      46.009   5.159   8.529  0.00  0.00    +0.000 NA
ATOM     24  C   UNL     1      45.500   4.916   9.551  0.00  0.00    +0.000 C 
ENDBRANCH  17  24
ENDBRANCH  14  22
ENDBRANCH   1  14
TORSDOF 4
ENDMDL
MODEL 7
REMARK VINA RESULT:    -4.975      3.453      6.469
REMARK INTER + INTRA:          -6.481
REMARK INTER:                  -6.922
REMARK INTRA:                   0.441
REMARK UNBOUND:                -0.344
REMARK  Name = 
REMARK  4 active torsions:
REMARK  status: ('A' for Active; 'I' for Inactive)
REMARK    1  A    between atoms: C_2  and  C_3
REMARK    2  A    between atoms: C_8  and  C_9
REMARK    3  A    between atoms: C_9  and  N_10
REMARK    4  A    between atoms: C_14  and  C_15
REMARK                            x       y       z     vdW  Elec       q    Type
REMARK                         _______ _______ _______ _____ _____    ______ ____
ROOT
ATOM      1  N   UNL     1      47.123   7.019  11.381  0.00  0.00    +0.000 N 
ATOM      2  C   UNL     1      47.879   7.032  12.577  0.00  0.00    +0.000 A 
ATOM      3  C   UNL     1      49.057   7.771  12.591  0.00  0.00    +0.000 A 
ATOM      4  C   UNL     1      49.887   7.735  13.710  0.00  0.00    +0.000 A 
ATOM      5  C   UNL     1      49.506   6.940  14.773  0.00  0.00    +0.000 A 
ATOM      6  N   UNL     1      48.329   6.274  14.781  0.00  0.00    +0.000 NA
ATOM      7  N   UNL     1      47.508   6.352  13.680  0.00  0.00    +0.000 NA
ATOM      8  H   UNL     1      47.718   6.727  10.610  0.00  0.00    +0.000 HD
ENDROOT
BRANCH   5   9
ATOM      9  C   UNL     1      50.417   6.712  15.927  0.00  0.00    +0.000 C 
ATOM     10  N   UNL     1      51.260   7.743  16.242  0.00  0.00    +0.000 N 
ATOM     11  O   UNL     1      50.392   5.678  16.585  0.00  0.00    +0.000 OA
ATOM     12  H   UNL     1      51.210   8.622  15.741  0.00  0.00    +0.000 HD
ATOM     13  H   UNL     1      51.820   7.678  17.081  0.00  0.00    +0.000 HD
ENDBRANCH   5   9
BRANCH   1  14
ATOM     14  C   UNL     1      45.731   6.509  11.337  0.00  0.00    +0.000 C 
ATOM     15  C   UNL     1      44.831   6.807  12.524  0.00  0.00    +0.000 C 
ATOM     16  C   UNL     1      44.657   7.587  11.262  0.00  0.00    +0.000 C 
BRANCH  14  22
ATOM     17  C   UNL     1      45.220   3.970  11.144  0.00  0.00    +0.000 A 
ATOM     18  N   UNL     1      44.889   2.836  10.459  0.00  0.00    +0.000 NA
ATOM     19  C   UNL     1      44.863   2.916   9.117  0.00  0.00    +0.000 A 
ATOM     20  C   UNL     1      45.206   4.058   8.422  0.00  0.00    +0.000 A 
ATOM     21  C   UNL     1      45.560   5.191   9.150  0.00  0.00    +0.000 A 
ATOM     22  C   UNL     1      45.531   5.204  10.557  0.00  0.00    +0.000 A 
BRANCH  17  24
ATOM     23  N   UNL     1      45.270   3.663  13.725  0.00  0.00    +0.000 NA
ATOM     24  C   UNL     1      45.227   3.804  12.567  0.00  0.00    +0.000 C 
ENDBRANCH  17  24
ENDBRANCH  14  22
ENDBRANCH   1  14
TORSDOF 4
ENDMDL
MODEL 8
REMARK VINA RESULT:    -4.905      3.503      6.004
REMARK INTER + INTRA:          -6.396
REMARK INTER:                  -6.328
REMARK INTRA:                  -0.067
REMARK UNBOUND:                -0.344
REMARK  Name = 
REMARK  4 active torsions:
REMARK  status: ('A' for Active; 'I' for Inactive)
REMARK    1  A    between atoms: C_2  and  C_3
REMARK    2  A    between atoms: C_8  and  C_9
REMARK    3  A    between atoms: C_9  and  N_10
REMARK    4  A    between atoms: C_14  and  C_15
REMARK                            x       y       z     vdW  Elec       q    Type
REMARK                         _______ _______ _______ _____ _____    ______ ____
ROOT
ATOM      1  N   UNL     1      47.013   7.778  13.679  0.00  0.00    +0.000 N 
ATOM      2  C   UNL     1      46.266   6.719  13.112  0.00  0.00    +0.000 A 
ATOM      3  C   UNL     1      45.044   7.030  12.523  0.00  0.00    +0.000 A 
ATOM      4  C   UNL     1      44.226   6.011  12.040  0.00  0.00    +0.000 A 
ATOM      5  C   UNL     1      44.664   4.709  12.181  0.00  0.00    +0.000 A 
ATOM      6  N   UNL     1      45.879   4.415  12.695  0.00  0.00    +0.000 NA
ATOM      7  N   UNL     1      46.686   5.438  13.133  0.00  0.00    +0.000 NA
ATOM      8  H   UNL     1      46.431   8.280  14.346  0.00  0.00    +0.000 HD
ENDROOT
BRANCH   5   9
ATOM      9  C   UNL     1      43.776   3.560  11.850  0.00  0.00    +0.000 C 
ATOM     10  N   UNL     1      43.855   2.479  12.685  0.00  0.00    +0.000 N 
ATOM     11  O   UNL     1      42.991   3.590  10.910  0.00  0.00    +0.000 OA
ATOM     12  H   UNL     1      44.449   2.502  13.506  0.00  0.00    +0.000 HD
ATOM     13  H   UNL     1      43.198   1.720  12.566  0.00  0.00    +0.000 HD
ENDBRANCH   5   9
BRANCH   1  14
ATOM     14  C   UNL     1      48.433   7.615  14.073  0.00  0.00    +0.000 C 
ATOM     15  C   UNL     1      49.410   7.134  13.014  0.00  0.00    +0.000 C 
ATOM     16  C   UNL     1      49.399   8.578  13.395  0.00  0.00    +0.000 C 
BRANCH  14  22
ATOM     17  C   UNL     1      48.711   8.147  16.600  0.00  0.00    +0.000 A 
ATOM     18  N   UNL     1      48.767   7.814  17.923  0.00  0.00    +0.000 NA
ATOM     19  C   UNL     1      48.785   6.503  18.224  0.00  0.00    +0.000 A 
ATOM     20  C   UNL     1      48.807   5.508  17.268  0.00  0.00    +0.000 A 
ATOM     21  C   UNL     1      48.772   5.882  15.927  0.00  0.00    +0.000 A 
ATOM     22  C   UNL     1      48.671   7.232  15.539  0.00  0.00    +0.000 A 
BRANCH  17  24
ATOM     23  N   UNL     1      48.723  10.710  16.166  0.00  0.00    +0.000 NA
ATOM     24  C   UNL     1      48.697   9.560  16.360  0.00  0.00    +0.000 C 
ENDBRANCH  17  24
ENDBRANCH  14  22
ENDBRANCH   1  14
TORSDOF 4
ENDMDL
