MODEL 1
REMARK VINA RESULT:    -7.771      0.000      0.000
REMARK INTER + INTRA:         -11.443
REMARK INTER:                 -10.496
REMARK INTRA:                  -0.946
REMARK UNBOUND:                -0.946
REMARK  Name = 
REMARK  6 active torsions:
REMARK  status: ('A' for Active; 'I' for Inactive)
REMARK    1  A    between atoms: C_2  and  C_25
REMARK    2  A    between atoms: N_3  and  C_4
REMARK    3  A    between atoms: C_4  and  C_5
REMARK    4  A    between atoms: C_8  and  C_9
REMARK    5  A    between atoms: C_9  and  N_10
REMARK    6  A    between atoms: C_11  and  C_13
REMARK                            x       y       z     vdW  Elec       q    Type
REMARK                         _______ _______ _______ _____ _____    ______ ____
ROOT
ATOM      1  C   UNL     1      44.897   6.027  11.056  0.00  0.00    +0.000 A 
ATOM      2  C   UNL     1      44.408   7.274  11.439  0.00  0.00    +0.000 A 
ATOM      3  C   UNL     1      45.166   8.061  12.302  0.00  0.00    +0.000 A 
ATOM      4  C   UNL     1      46.392   7.591  12.775  0.00  0.00    +0.000 A 
ATOM      5  C   UNL     1      46.816   6.350  12.314  0.00  0.00    +0.000 A 
ATOM      6  N   UNL     1      46.104   5.563  11.471  0.00  0.00    +0.000 NA
ENDROOT
BRANCH   1   7
ATOM      7  C   UNL     1      44.098   5.147  10.123  0.00  0.00    +0.000 C 
BRANCH   7  10
ATOM      8  O   UNL     1      44.477   2.385  10.012  0.00  0.00    +0.000 OA
ATOM      9  C   UNL     1      45.052   3.077   9.172  0.00  0.00    +0.000 C 
ATOM     10  N   UNL     1      44.937   4.449   9.174  0.00  0.00    +0.000 N 
ATOM     11  H   UNL     1      45.290   4.967   8.380  0.00  0.00    +0.000 HD
BRANCH   9  12
ATOM     12  C   UNL     1      45.883   2.499   8.122  0.00  0.00    +0.000 A 
ATOM     13  C   UNL     1      46.320   1.187   8.055  0.00  0.00    +0.000 A 
ATOM     14  C   UNL     1      47.151   0.939   6.926  0.00  0.00    +0.000 A 
ATOM     15  C   UNL     1      47.327   2.070   6.162  0.00  0.00    +0.000 A 
ATOM     16  S   UNL     1      46.477   3.412   6.797  0.00  0.00    +0.000 S 
ENDBRANCH   9  12
ENDBRANCH   7  10
ENDBRANCH   1   7
BRANCH   4  17
ATOM     17  C   UNL     1      47.252   8.418  13.685  0.00  0.00    +0.000 C 
BRANCH  17  18
ATOM     18  N   UNL     1      47.686   7.639  14.815  0.00  0.00    +0.000 N 
ATOM     19  C   UNL     1      48.948   7.110  14.891  0.00  0.00    +0.000 C 
ATOM     20  O   UNL     1      49.793   7.313  14.024  0.00  0.00    +0.000 OA
ATOM     21  H   UNL     1      46.956   7.252  15.404  0.00  0.00    +0.000 HD
BRANCH  19  22
ATOM     22  C   UNL     1      49.255   6.343  16.106  0.00  0.00    +0.000 A 
ATOM     23  C   UNL     1      50.306   6.735  16.924  0.00  0.00    +0.000 A 
ATOM     24  S   UNL     1      50.461   5.787  18.335  0.00  0.00    +0.000 S 
ATOM     25  C   UNL     1      49.166   4.786  17.874  0.00  0.00    +0.000 A 
ATOM     26  N   UNL     1      48.770   3.746  18.656  0.00  0.00    +0.000 NA
ATOM     27  C   UNL     1      47.794   3.053  18.170  0.00  0.00    +0.000 A 
ATOM     28  N   UNL     1      47.179   3.305  16.971  0.00  0.00    +0.000 N 
ATOM     29  C   UNL     1      47.533   4.353  16.159  0.00  0.00    +0.000 A 
ATOM     30  O   UNL     1      46.948   4.564  15.101  0.00  0.00    +0.000 OA
ATOM     31  C   UNL     1      48.621   5.170  16.662  0.00  0.00    +0.000 A 
ATOM     32  H   UNL     1      46.420   2.724  16.645  0.00  0.00    +0.000 HD
ENDBRANCH  19  22
ENDBRANCH  17  18
ENDBRANCH   4  17
TORSDOF 6
ENDMDL
MODEL 2
REMARK VINA RESULT:    -7.152      2.216      3.758
REMARK INTER + INTRA:         -10.608
REMARK INTER:                  -9.647
REMARK INTRA:                  -0.961
REMARK UNBOUND:                -0.946
REMARK  Name = 
REMARK  6 active torsions:
REMARK  status: ('A' for Active; 'I' for Inactive)
REMARK    1  A    between atoms: C_2  and  C_25
REMARK    2  A    between atoms: N_3  and  C_4
REMARK    3  A    between atoms: C_4  and  C_5
REMARK    4  A    between atoms: C_8  and  C_9
REMARK    5  A    between atoms: C_9  and  N_10
REMARK    6  A    between atoms: C_11  and  C_13
REMARK                            x       y       z     vdW  Elec       q    Type
REMARK                         _______ _______ _______ _____ _____    ______ ____
ROOT
ATOM      1  C   UNL     1      44.671   4.447  11.211  0.00  0.00    +0.000 A 
ATOM      2  C   UNL     1      44.987   5.678  11.781  0.00  0.00    +0.000 A 
ATOM      3  C   UNL     1      45.686   5.705  12.985  0.00  0.00    +0.000 A 
ATOM      4  C   UNL     1      46.051   4.507  13.604  0.00  0.00    +0.000 A 
ATOM      5  C   UNL     1      45.722   3.328  12.946  0.00  0.00    +0.000 A 
ATOM      6  N   UNL     1      45.047   3.269  11.773  0.00  0.00    +0.000 NA
ENDROOT
BRANCH   1   7
ATOM      7  C   UNL     1      43.911   4.383   9.907  0.00  0.00    +0.000 C 
BRANCH   7  10
ATOM      8  O   UNL     1      46.130   5.285   8.475  0.00  0.00    +0.000 OA
ATOM      9  C   UNL     1      45.725   4.145   8.247  0.00  0.00    +0.000 C 
ATOM     10  N   UNL     1      44.622   3.634   8.893  0.00  0.00    +0.000 N 
ATOM     11  H   UNL     1      44.417   2.648   8.799  0.00  0.00    +0.000 HD
BRANCH   9  12
ATOM     12  C   UNL     1      46.382   3.261   7.291  0.00  0.00    +0.000 A 
ATOM     13  C   UNL     1      46.771   3.593   6.005  0.00  0.00    +0.000 A 
ATOM     14  C   UNL     1      47.351   2.498   5.303  0.00  0.00    +0.000 A 
ATOM     15  C   UNL     1      47.388   1.359   6.074  0.00  0.00    +0.000 A 
ATOM     16  S   UNL     1      46.743   1.621   7.637  0.00  0.00    +0.000 S 
ENDBRANCH   9  12
ENDBRANCH   7  10
ENDBRANCH   1   7
BRANCH   4  17
ATOM     17  C   UNL     1      46.827   4.492  14.888  0.00  0.00    +0.000 C 
BRANCH  17  18
ATOM     18  N   UNL     1      47.556   5.724  15.051  0.00  0.00    +0.000 N 
ATOM     19  C   UNL     1      48.626   5.827  15.900  0.00  0.00    +0.000 C 
ATOM     20  O   UNL     1      49.054   4.865  16.531  0.00  0.00    +0.000 OA
ATOM     21  H   UNL     1      47.084   6.570  14.750  0.00  0.00    +0.000 HD
BRANCH  19  22
ATOM     22  C   UNL     1      49.279   7.142  15.959  0.00  0.00    +0.000 A 
ATOM     23  C   UNL     1      49.427   7.787  17.180  0.00  0.00    +0.000 A 
ATOM     24  S   UNL     1      50.286   9.258  17.075  0.00  0.00    +0.000 S 
ATOM     25  C   UNL     1      50.440   9.113  15.387  0.00  0.00    +0.000 A 
ATOM     26  N   UNL     1      51.083  10.064  14.657  0.00  0.00    +0.000 NA
ATOM     27  C   UNL     1      51.100   9.840  13.384  0.00  0.00    +0.000 A 
ATOM     28  N   UNL     1      50.530   8.752  12.776  0.00  0.00    +0.000 N 
ATOM     29  C   UNL     1      49.888   7.760  13.474  0.00  0.00    +0.000 A 
ATOM     30  O   UNL     1      49.407   6.787  12.901  0.00  0.00    +0.000 OA
ATOM     31  C   UNL     1      49.847   7.958  14.910  0.00  0.00    +0.000 A 
ATOM     32  H   UNL     1      50.576   8.635  11.774  0.00  0.00    +0.000 HD
ENDBRANCH  19  22
ENDBRANCH  17  18
ENDBRANCH   4  17
TORSDOF 6
ENDMDL
MODEL 3
REMARK VINA RESULT:    -7.104      1.843      2.149
REMARK INTER + INTRA:         -10.542
REMARK INTER:                  -9.759
REMARK INTRA:                  -0.783
REMARK UNBOUND:                -0.946
REMARK  Name = 
REMARK  6 active torsions:
REMARK  status: ('A' for Active; 'I' for Inactive)
REMARK    1  A    between atoms: C_2  and  C_25
REMARK    2  A    between atoms: N_3  and  C_4
REMARK    3  A    between atoms: C_4  and  C_5
REMARK    4  A    between atoms: C_8  and  C_9
REMARK    5  A    between atoms: C_9  and  N_10
REMARK    6  A    between atoms: C_11  and  C_13
REMARK                            x       y       z     vdW  Elec       q    Type
REMARK                         _______ _______ _______ _____ _____    ______ ____
ROOT
ATOM      1  C   UNL     1      45.315   4.549  12.164  0.00  0.00    +0.000 A 
ATOM      2  C   UNL     1      45.222   5.832  11.628  0.00  0.00    +0.000 A 
ATOM      3  C   UNL     1      45.953   6.863  12.213  0.00  0.00    +0.000 A 
ATOM      4  C   UNL     1      46.758   6.601  13.323  0.00  0.00    +0.000 A 
ATOM      5  C   UNL     1      46.816   5.285  13.768  0.00  0.00    +0.000 A 
ATOM      6  N   UNL     1      46.119   4.261  13.218  0.00  0.00    +0.000 NA
ENDROOT
BRANCH   1   7
ATOM      7  C   UNL     1      44.532   3.410  11.555  0.00  0.00    +0.000 C 
BRANCH   7  10
ATOM      8  O   UNL     1      44.256   4.119   8.870  0.00  0.00    +0.000 OA
ATOM      9  C   UNL     1      45.052   3.221   9.147  0.00  0.00    +0.000 C 
ATOM     10  N   UNL     1      45.228   2.796  10.445  0.00  0.00    +0.000 N 
ATOM     11  H   UNL     1      45.999   2.175  10.652  0.00  0.00    +0.000 HD
BRANCH   9  12
ATOM     12  C   UNL     1      45.861   2.555   8.133  0.00  0.00    +0.000 A 
ATOM     13  C   UNL     1      46.235   1.223   8.132  0.00  0.00    +0.000 A 
ATOM     14  C   UNL     1      47.061   0.882   7.023  0.00  0.00    +0.000 A 
ATOM     15  C   UNL     1      47.296   1.965   6.209  0.00  0.00    +0.000 A 
ATOM     16  S   UNL     1      46.507   3.375   6.772  0.00  0.00    +0.000 S 
ENDBRANCH   9  12
ENDBRANCH   7  10
ENDBRANCH   1   7
BRANCH   4  17
ATOM     17  C   UNL     1      47.583   7.677  13.966  0.00  0.00    +0.000 C 
BRANCH  17  18
ATOM     18  N   UNL     1      48.808   7.129  14.488  0.00  0.00    +0.000 N 
ATOM     19  C   UNL     1      49.249   7.414  15.754  0.00  0.00    +0.000 C 
ATOM     20  O   UNL     1      48.601   8.111  16.529  0.00  0.00    +0.000 OA
ATOM     21  H   UNL     1      49.469   6.771  13.806  0.00  0.00    +0.000 HD
BRANCH  19  22
ATOM     22  C   UNL     1      50.511   6.779  16.156  0.00  0.00    +0.000 A 
ATOM     23  C   UNL     1      51.722   7.348  15.783  0.00  0.00    +0.000 A 
ATOM     24  S   UNL     1      53.082   6.530  16.412  0.00  0.00    +0.000 S 
ATOM     25  C   UNL     1      52.103   5.355  17.156  0.00  0.00    +0.000 A 
ATOM     26  N   UNL     1      52.651   4.337  17.872  0.00  0.00    +0.000 NA
ATOM     27  C   UNL     1      51.792   3.502  18.357  0.00  0.00    +0.000 A 
ATOM     28  N   UNL     1      50.435   3.593  18.189  0.00  0.00    +0.000 N 
ATOM     29  C   UNL     1      49.837   4.613  17.491  0.00  0.00    +0.000 A 
ATOM     30  O   UNL     1      48.617   4.677  17.378  0.00  0.00    +0.000 OA
ATOM     31  C   UNL     1      50.758   5.584  16.931  0.00  0.00    +0.000 A 
ATOM     32  H   UNL     1      49.815   2.906  18.594  0.00  0.00    +0.000 HD
ENDBRANCH  19  22
ENDBRANCH  17  18
ENDBRANCH   4  17
TORSDOF 6
ENDMDL
MODEL 4
REMARK VINA RESULT:    -7.071      4.769      9.190
REMARK INTER + INTRA:         -10.498
REMARK INTER:                  -9.708
REMARK INTRA:                  -0.790
REMARK UNBOUND:                -0.946
REMARK  Name = 
REMARK  6 active torsions:
REMARK  status: ('A' for Active; 'I' for Inactive)
REMARK    1  A    between atoms: C_2  and  C_25
REMARK    2  A    between atoms: N_3  and  C_4
REMARK    3  A    between atoms: C_4  and  C_5
REMARK    4  A    between atoms: C_8  and  C_9
REMARK    5  A    between atoms: C_9  and  N_10
REMARK    6  A    between atoms: C_11  and  C_13
REMARK                            x       y       z     vdW  Elec       q    Type
REMARK                         _______ _______ _______ _____ _____    ______ ____
ROOT
ATOM      1  C   UNL     1      51.329   3.098  17.740  0.00  0.00    +0.000 A 
ATOM      2  C   UNL     1      50.671   2.034  17.129  0.00  0.00    +0.000 A 
ATOM      3  C   UNL     1      49.305   2.138  16.878  0.00  0.00    +0.000 A 
ATOM      4  C   UNL     1      48.618   3.296  17.247  0.00  0.00    +0.000 A 
ATOM      5  C   UNL     1      49.362   4.320  17.821  0.00  0.00    +0.000 A 
ATOM      6  N   UNL     1      50.692   4.250  18.074  0.00  0.00    +0.000 NA
ENDROOT
BRANCH   1   7
ATOM      7  C   UNL     1      52.810   3.016  18.028  0.00  0.00    +0.000 C 
BRANCH   7  10
ATOM      8  O   UNL     1      54.250   1.142  19.512  0.00  0.00    +0.000 OA
ATOM      9  C   UNL     1      54.083   0.918  18.313  0.00  0.00    +0.000 C 
ATOM     10  N   UNL     1      53.405   1.804  17.507  0.00  0.00    +0.000 N 
ATOM     11  H   UNL     1      53.150   1.514  16.572  0.00  0.00    +0.000 HD
BRANCH   9  12
ATOM     12  C   UNL     1      54.579  -0.293  17.669  0.00  0.00    +0.000 A 
ATOM     13  C   UNL     1      55.029  -0.397  16.364  0.00  0.00    +0.000 A 
ATOM     14  C   UNL     1      55.412  -1.724  16.016  0.00  0.00    +0.000 A 
ATOM     15  C   UNL     1      55.243  -2.596  17.067  0.00  0.00    +0.000 A 
ATOM     16  S   UNL     1      54.645  -1.810  18.464  0.00  0.00    +0.000 S 
ENDBRANCH   9  12
ENDBRANCH   7  10
ENDBRANCH   1   7
BRANCH   4  17
ATOM     17  C   UNL     1      47.152   3.460  16.971  0.00  0.00    +0.000 C 
BRANCH  17  18
ATOM     18  N   UNL     1      46.937   4.477  15.975  0.00  0.00    +0.000 N 
ATOM     19  C   UNL     1      47.027   4.211  14.634  0.00  0.00    +0.000 C 
ATOM     20  O   UNL     1      47.247   3.081  14.206  0.00  0.00    +0.000 OA
ATOM     21  H   UNL     1      47.006   5.439  16.290  0.00  0.00    +0.000 HD
BRANCH  19  22
ATOM     22  C   UNL     1      46.776   5.343  13.732  0.00  0.00    +0.000 A 
ATOM     23  C   UNL     1      47.784   6.263  13.478  0.00  0.00    +0.000 A 
ATOM     24  S   UNL     1      47.348   7.457  12.340  0.00  0.00    +0.000 S 
ATOM     25  C   UNL     1      45.777   6.821  12.190  0.00  0.00    +0.000 A 
ATOM     26  N   UNL     1      44.865   7.392  11.358  0.00  0.00    +0.000 NA
ATOM     27  C   UNL     1      43.705   6.823  11.365  0.00  0.00    +0.000 A 
ATOM     28  N   UNL     1      43.374   5.736  12.131  0.00  0.00    +0.000 N 
ATOM     29  C   UNL     1      44.266   5.117  12.971  0.00  0.00    +0.000 A 
ATOM     30  O   UNL     1      43.944   4.132  13.627  0.00  0.00    +0.000 OA
ATOM     31  C   UNL     1      45.589   5.712  12.995  0.00  0.00    +0.000 A 
ATOM     32  H   UNL     1      42.447   5.337  12.093  0.00  0.00    +0.000 HD
ENDBRANCH  19  22
ENDBRANCH  17  18
ENDBRANCH   4  17
TORSDOF 6
ENDMDL
MODEL 5
REMARK VINA RESULT:    -6.822      2.624      8.437
REMARK INTER + INTRA:         -10.162
REMARK INTER:                  -9.374
REMARK INTRA:                  -0.787
REMARK UNBOUND:                -0.946
REMARK  Name = 
REMARK  6 active torsions:
REMARK  status: ('A' for Active; 'I' for Inactive)
REMARK    1  A    between atoms: C_2  and  C_25
REMARK    2  A    between atoms: N_3  and  C_4
REMARK    3  A    between atoms: C_4  and  C_5
REMARK    4  A    between atoms: C_8  and  C_9
REMARK    5  A    between atoms: C_9  and  N_10
REMARK    6  A    between atoms: C_11  and  C_13
REMARK                            x       y       z     vdW  Elec       q    Type
REMARK                         _______ _______ _______ _____ _____    ______ ____
ROOT
ATOM      1  C   UNL     1      49.126   7.335  16.094  0.00  0.00    +0.000 A 
ATOM      2  C   UNL     1      48.684   8.603  15.726  0.00  0.00    +0.000 A 
ATOM      3  C   UNL     1      48.027   8.762  14.508  0.00  0.00    +0.000 A 
ATOM      4  C   UNL     1      47.829   7.658  13.677  0.00  0.00    +0.000 A 
ATOM      5  C   UNL     1      48.273   6.426  14.141  0.00  0.00    +0.000 A 
ATOM      6  N   UNL     1      48.912   6.239  15.322  0.00  0.00    +0.000 NA
ENDROOT
BRANCH   1   7
ATOM      7  C   UNL     1      49.845   7.129  17.407  0.00  0.00    +0.000 C 
BRANCH   7  10
ATOM      8  O   UNL     1      49.023   4.710  18.530  0.00  0.00    +0.000 OA
ATOM      9  C   UNL     1      50.125   4.743  17.983  0.00  0.00    +0.000 C 
ATOM     10  N   UNL     1      50.614   5.903  17.427  0.00  0.00    +0.000 N 
ATOM     11  H   UNL     1      51.444   5.854  16.851  0.00  0.00    +0.000 HD
BRANCH   9  12
ATOM     12  C   UNL     1      50.980   3.566  17.880  0.00  0.00    +0.000 A 
ATOM     13  C   UNL     1      50.624   2.342  17.340  0.00  0.00    +0.000 A 
ATOM     14  C   UNL     1      51.669   1.378  17.421  0.00  0.00    +0.000 A 
ATOM     15  C   UNL     1      52.794   1.892  18.023  0.00  0.00    +0.000 A 
ATOM     16  S   UNL     1      52.591   3.532  18.466  0.00  0.00    +0.000 S 
ENDBRANCH   9  12
ENDBRANCH   7  10
ENDBRANCH   1   7
BRANCH   4  17
ATOM     17  C   UNL     1      47.102   7.782  12.370  0.00  0.00    +0.000 C 
BRANCH  17  18
ATOM     18  N   UNL     1      46.502   6.524  12.006  0.00  0.00    +0.000 N 
ATOM     19  C   UNL     1      45.163   6.409  11.739  0.00  0.00    +0.000 C 
ATOM     20  O   UNL     1      44.410   7.379  11.746  0.00  0.00    +0.000 OA
ATOM     21  H   UNL     1      47.031   5.689  12.235  0.00  0.00    +0.000 HD
BRANCH  19  22
ATOM     22  C   UNL     1      44.691   5.067  11.373  0.00  0.00    +0.000 A 
ATOM     23  C   UNL     1      43.927   4.333  12.271  0.00  0.00    +0.000 A 
ATOM     24  S   UNL     1      43.389   2.838  11.647  0.00  0.00    +0.000 S 
ATOM     25  C   UNL     1      44.206   3.093  10.176  0.00  0.00    +0.000 A 
ATOM     26  N   UNL     1      44.161   2.170   9.179  0.00  0.00    +0.000 NA
ATOM     27  C   UNL     1      44.850   2.480   8.131  0.00  0.00    +0.000 A 
ATOM     28  N   UNL     1      45.581   3.631   7.991  0.00  0.00    +0.000 N 
ATOM     29  C   UNL     1      45.641   4.599   8.963  0.00  0.00    +0.000 A 
ATOM     30  O   UNL     1      46.288   5.628   8.797  0.00  0.00    +0.000 OA
ATOM     31  C   UNL     1      44.877   4.303  10.160  0.00  0.00    +0.000 A 
ATOM     32  H   UNL     1      46.100   3.816   7.145  0.00  0.00    +0.000 HD
ENDBRANCH  19  22
ENDBRANCH  17  18
ENDBRANCH   4  17
TORSDOF 6
ENDMDL
MODEL 6
REMARK VINA RESULT:    -6.795      4.666      9.164
REMARK INTER + INTRA:         -10.125
REMARK INTER:                  -9.057
REMARK INTRA:                  -1.068
REMARK UNBOUND:                -0.946
REMARK  Name = 
REMARK  6 active torsions:
REMARK  status: ('A' for Active; 'I' for Inactive)
REMARK    1  A    between atoms: C_2  and  C_25
REMARK    2  A    between atoms: N_3  and  C_4
REMARK    3  A    between atoms: C_4  and  C_5
REMARK    4  A    between atoms: C_8  and  C_9
REMARK    5  A    between atoms: C_9  and  N_10
REMARK    6  A    between atoms: C_11  and  C_13
REMARK                            x       y       z     vdW  Elec       q    Type
REMARK                         _______ _______ _______ _____ _____    ______ ____
ROOT
ATOM      1  C   UNL     1      51.433   3.213  17.789  0.00  0.00    +0.000 A 
ATOM      2  C   UNL     1      50.695   2.148  17.279  0.00  0.00    +0.000 A 
ATOM      3  C   UNL     1      49.340   2.330  17.013  0.00  0.00    +0.000 A 
ATOM      4  C   UNL     1      48.743   3.567  17.265  0.00  0.00    +0.000 A 
ATOM      5  C   UNL     1      49.564   4.582  17.742  0.00  0.00    +0.000 A 
ATOM      6  N   UNL     1      50.885   4.436  18.007  0.00  0.00    +0.000 NA
ENDROOT
BRANCH   1   7
ATOM      7  C   UNL     1      52.904   3.047  18.092  0.00  0.00    +0.000 C 
BRANCH   7  10
ATOM      8  O   UNL     1      54.255   1.085  19.544  0.00  0.00    +0.000 OA
ATOM      9  C   UNL     1      54.077   0.888  18.343  0.00  0.00    +0.000 C 
ATOM     10  N   UNL     1      53.441   1.818  17.551  0.00  0.00    +0.000 N 
ATOM     11  H   UNL     1      53.172   1.554  16.612  0.00  0.00    +0.000 HD
BRANCH   9  12
ATOM     12  C   UNL     1      54.516  -0.334  17.679  0.00  0.00    +0.000 A 
ATOM     13  C   UNL     1      54.685  -0.508  16.316  0.00  0.00    +0.000 A 
ATOM     14  C   UNL     1      55.085  -1.831  15.973  0.00  0.00    +0.000 A 
ATOM     15  C   UNL     1      55.209  -2.632  17.085  0.00  0.00    +0.000 A 
ATOM     16  S   UNL     1      54.863  -1.782  18.530  0.00  0.00    +0.000 S 
ENDBRANCH   9  12
ENDBRANCH   7  10
ENDBRANCH   1   7
BRANCH   4  17
ATOM     17  C   UNL     1      47.293   3.813  16.967  0.00  0.00    +0.000 C 
BRANCH  17  18
ATOM     18  N   UNL     1      47.154   4.715  15.854  0.00  0.00    +0.000 N 
ATOM     19  C   UNL     1      47.183   4.277  14.555  0.00  0.00    +0.000 C 
ATOM     20  O   UNL     1      47.279   3.087  14.270  0.00  0.00    +0.000 OA
ATOM     21  H   UNL     1      47.325   5.697  16.044  0.00  0.00    +0.000 HD
BRANCH  19  22
ATOM     22  C   UNL     1      47.021   5.309  13.522  0.00  0.00    +0.000 A 
ATOM     23  C   UNL     1      46.014   5.186  12.574  0.00  0.00    +0.000 A 
ATOM     24  S   UNL     1      45.913   6.517  11.510  0.00  0.00    +0.000 S 
ATOM     25  C   UNL     1      47.248   7.277  12.242  0.00  0.00    +0.000 A 
ATOM     26  N   UNL     1      47.702   8.479  11.798  0.00  0.00    +0.000 NA
ATOM     27  C   UNL     1      48.739   8.925  12.427  0.00  0.00    +0.000 A 
ATOM     28  N   UNL     1      49.363   8.275  13.459  0.00  0.00    +0.000 N 
ATOM     29  C   UNL     1      48.930   7.070  13.952  0.00  0.00    +0.000 A 
ATOM     30  O   UNL     1      49.499   6.524  14.892  0.00  0.00    +0.000 OA
ATOM     31  C   UNL     1      47.761   6.527  13.285  0.00  0.00    +0.000 A 
ATOM     32  H   UNL     1      50.173   8.676  13.910  0.00  0.00    +0.000 HD
ENDBRANCH  19  22
ENDBRANCH  17  18
ENDBRANCH   4  17
TORSDOF 6
ENDMDL
MODEL 7
REMARK VINA RESULT:    -6.788      2.768      8.083
REMARK INTER + INTRA:         -10.115
REMARK INTER:                  -9.271
REMARK INTRA:                  -0.844
REMARK UNBOUND:                -0.946
REMARK  Name = 
REMARK  6 active torsions:
REMARK  status: ('A' for Active; 'I' for Inactive)
REMARK    1  A    between atoms: C_2  and  C_25
REMARK    2  A    between atoms: N_3  and  C_4
REMARK    3  A    between atoms: C_4  and  C_5
REMARK    4  A    between atoms: C_8  and  C_9
REMARK    5  A    between atoms: C_9  and  N_10
REMARK    6  A    between atoms: C_11  and  C_13
REMARK                            x       y       z     vdW  Elec       q    Type
REMARK                         _______ _______ _______ _____ _____    ______ ____
ROOT
ATOM      1  C   UNL     1      49.139   6.824  16.365  0.00  0.00    +0.000 A 
ATOM      2  C   UNL     1      49.322   8.151  15.983  0.00  0.00    +0.000 A 
ATOM      3  C   UNL     1      48.971   8.536  14.692  0.00  0.00    +0.000 A 
ATOM      4  C   UNL     1      48.452   7.594  13.802  0.00  0.00    +0.000 A 
ATOM      5  C   UNL     1      48.272   6.301  14.281  0.00  0.00    +0.000 A 
ATOM      6  N   UNL     1      48.600   5.897  15.533  0.00  0.00    +0.000 NA
ENDROOT
BRANCH   1   7
ATOM      7  C   UNL     1      49.512   6.373  17.758  0.00  0.00    +0.000 C 
BRANCH   7  10
ATOM      8  O   UNL     1      48.956   3.676  18.213  0.00  0.00    +0.000 OA
ATOM      9  C   UNL     1      50.120   3.986  17.959  0.00  0.00    +0.000 C 
ATOM     10  N   UNL     1      50.481   5.298  17.747  0.00  0.00    +0.000 N 
ATOM     11  H   UNL     1      51.405   5.495  17.386  0.00  0.00    +0.000 HD
BRANCH   9  12
ATOM     12  C   UNL     1      51.187   2.998  17.860  0.00  0.00    +0.000 A 
ATOM     13  C   UNL     1      51.071   1.721  17.339  0.00  0.00    +0.000 A 
ATOM     14  C   UNL     1      52.285   0.980  17.418  0.00  0.00    +0.000 A 
ATOM     15  C   UNL     1      53.294   1.712  18.000  0.00  0.00    +0.000 A 
ATOM     16  S   UNL     1      52.780   3.287  18.426  0.00  0.00    +0.000 S 
ENDBRANCH   9  12
ENDBRANCH   7  10
ENDBRANCH   1   7
BRANCH   4  17
ATOM     17  C   UNL     1      48.036   7.973  12.411  0.00  0.00    +0.000 C 
BRANCH  17  18
ATOM     18  N   UNL     1      47.351   6.879  11.774  0.00  0.00    +0.000 N 
ATOM     19  C   UNL     1      46.018   6.939  11.462  0.00  0.00    +0.000 C 
ATOM     20  O   UNL     1      45.346   7.946  11.663  0.00  0.00    +0.000 OA
ATOM     21  H   UNL     1      47.802   5.972  11.827  0.00  0.00    +0.000 HD
BRANCH  19  22
ATOM     22  C   UNL     1      45.454   5.751  10.806  0.00  0.00    +0.000 A 
ATOM     23  C   UNL     1      45.633   5.563   9.442  0.00  0.00    +0.000 A 
ATOM     24  S   UNL     1      44.993   4.089   8.867  0.00  0.00    +0.000 S 
ATOM     25  C   UNL     1      44.403   3.678  10.409  0.00  0.00    +0.000 A 
ATOM     26  N   UNL     1      43.731   2.514  10.616  0.00  0.00    +0.000 NA
ATOM     27  C   UNL     1      43.315   2.344  11.827  0.00  0.00    +0.000 A 
ATOM     28  N   UNL     1      43.510   3.235  12.850  0.00  0.00    +0.000 N 
ATOM     29  C   UNL     1      44.196   4.413  12.693  0.00  0.00    +0.000 A 
ATOM     30  O   UNL     1      44.371   5.179  13.634  0.00  0.00    +0.000 OA
ATOM     31  C   UNL     1      44.693   4.650  11.350  0.00  0.00    +0.000 A 
ATOM     32  H   UNL     1      43.158   3.045  13.778  0.00  0.00    +0.000 HD
ENDBRANCH  19  22
ENDBRANCH  17  18
ENDBRANCH   4  17
TORSDOF 6
ENDMDL
MODEL 8
REMARK VINA RESULT:    -6.756      3.593      8.402
REMARK INTER + INTRA:         -10.072
REMARK INTER:                  -9.103
REMARK INTRA:                  -0.969
REMARK UNBOUND:                -0.946
REMARK  Name = 
REMARK  6 active torsions:
REMARK  status: ('A' for Active; 'I' for Inactive)
REMARK    1  A    between atoms: C_2  and  C_25
REMARK    2  A    between atoms: N_3  and  C_4
REMARK    3  A    between atoms: C_4  and  C_5
REMARK    4  A    between atoms: C_8  and  C_9
REMARK    5  A    between atoms: C_9  and  N_10
REMARK    6  A    between atoms: C_11  and  C_13
REMARK                            x       y       z     vdW  Elec       q    Type
REMARK                         _______ _______ _______ _____ _____    ______ ____
ROOT
ATOM      1  C   UNL     1      49.602   4.409  17.523  0.00  0.00    +0.000 A 
ATOM      2  C   UNL     1      48.366   4.212  16.912  0.00  0.00    +0.000 A 
ATOM      3  C   UNL     1      47.913   5.149  15.986  0.00  0.00    +0.000 A 
ATOM      4  C   UNL     1      48.695   6.267  15.690  0.00  0.00    +0.000 A 
ATOM      5  C   UNL     1      49.929   6.363  16.322  0.00  0.00    +0.000 A 
ATOM      6  N   UNL     1      50.398   5.466  17.224  0.00  0.00    +0.000 NA
ENDROOT
BRANCH   1   7
ATOM      7  C   UNL     1      50.120   3.413  18.535  0.00  0.00    +0.000 C 
BRANCH   7  10
ATOM      8  O   UNL     1      51.043   1.033  17.407  0.00  0.00    +0.000 OA
ATOM      9  C   UNL     1      51.879   1.879  17.723  0.00  0.00    +0.000 C 
ATOM     10  N   UNL     1      51.507   3.070  18.307  0.00  0.00    +0.000 N 
ATOM     11  H   UNL     1      52.199   3.800  18.404  0.00  0.00    +0.000 HD
BRANCH   9  12
ATOM     12  C   UNL     1      53.307   1.688  17.498  0.00  0.00    +0.000 A 
ATOM     13  C   UNL     1      53.919   0.516  17.089  0.00  0.00    +0.000 A 
ATOM     14  C   UNL     1      55.335   0.636  16.998  0.00  0.00    +0.000 A 
ATOM     15  C   UNL     1      55.765   1.897  17.340  0.00  0.00    +0.000 A 
ATOM     16  S   UNL     1      54.463   2.929  17.749  0.00  0.00    +0.000 S 
ENDBRANCH   9  12
ENDBRANCH   7  10
ENDBRANCH   1   7
BRANCH   4  17
ATOM     17  C   UNL     1      48.258   7.285  14.679  0.00  0.00    +0.000 C 
BRANCH  17  18
ATOM     18  N   UNL     1      47.021   6.882  14.061  0.00  0.00    +0.000 N 
ATOM     19  C   UNL     1      46.951   6.527  12.739  0.00  0.00    +0.000 C 
ATOM     20  O   UNL     1      47.946   6.484  12.022  0.00  0.00    +0.000 OA
ATOM     21  H   UNL     1      46.168   7.146  14.544  0.00  0.00    +0.000 HD
BRANCH  19  22
ATOM     22  C   UNL     1      45.625   6.131  12.246  0.00  0.00    +0.000 A 
ATOM     23  C   UNL     1      44.770   7.087  11.714  0.00  0.00    +0.000 A 
ATOM     24  S   UNL     1      43.313   6.438  11.108  0.00  0.00    +0.000 S 
ATOM     25  C   UNL     1      43.748   4.864  11.587  0.00  0.00    +0.000 A 
ATOM     26  N   UNL     1      42.920   3.809  11.364  0.00  0.00    +0.000 NA
ATOM     27  C   UNL     1      43.364   2.678  11.806  0.00  0.00    +0.000 A 
ATOM     28  N   UNL     1      44.561   2.509  12.451  0.00  0.00    +0.000 N 
ATOM     29  C   UNL     1      45.436   3.541  12.682  0.00  0.00    +0.000 A 
ATOM     30  O   UNL     1      46.509   3.353  13.244  0.00  0.00    +0.000 OA
ATOM     31  C   UNL     1      44.988   4.834  12.199  0.00  0.00    +0.000 A 
ATOM     32  H   UNL     1      44.851   1.598  12.774  0.00  0.00    +0.000 HD
ENDBRANCH  19  22
ENDBRANCH  17  18
ENDBRANCH   4  17
TORSDOF 6
ENDMDL
MODEL 9
REMARK VINA RESULT:    -6.372      3.443      4.780
REMARK INTER + INTRA:          -9.554
REMARK INTER:                  -8.749
REMARK INTRA:                  -0.805
REMARK UNBOUND:                -0.946
REMARK  Name = 
REMARK  6 active torsions:
REMARK  status: ('A' for Active; 'I' for Inactive)
REMARK    1  A    between atoms: C_2  and  C_25
REMARK    2  A    between atoms: N_3  and  C_4
REMARK    3  A    between atoms: C_4  and  C_5
REMARK    4  A    between atoms: C_8  and  C_9
REMARK    5  A    between atoms: C_9  and  N_10
REMARK    6  A    between atoms: C_11  and  C_13
REMARK                            x       y       z     vdW  Elec       q    Type
REMARK                         _______ _______ _______ _____ _____    ______ ____
ROOT
ATOM      1  C   UNL     1      45.405   4.231  12.205  0.00  0.00    +0.000 A 
ATOM      2  C   UNL     1      45.621   5.559  11.846  0.00  0.00    +0.000 A 
ATOM      3  C   UNL     1      46.476   6.338  12.622  0.00  0.00    +0.000 A 
ATOM      4  C   UNL     1      47.094   5.783  13.744  0.00  0.00    +0.000 A 
ATOM      5  C   UNL     1      46.846   4.441  14.006  0.00  0.00    +0.000 A 
ATOM      6  N   UNL     1      46.023   3.657  13.268  0.00  0.00    +0.000 NA
ENDROOT
BRANCH   1   7
ATOM      7  C   UNL     1      44.481   3.360  11.386  0.00  0.00    +0.000 C 
BRANCH   7  10
ATOM      8  O   UNL     1      44.596   4.314   8.766  0.00  0.00    +0.000 OA
ATOM      9  C   UNL     1      45.192   3.268   9.021  0.00  0.00    +0.000 C 
ATOM     10  N   UNL     1      45.164   2.718  10.283  0.00  0.00    +0.000 N 
ATOM     11  H   UNL     1      45.791   1.953  10.493  0.00  0.00    +0.000 HD
BRANCH   9  12
ATOM     12  C   UNL     1      45.967   2.547   8.019  0.00  0.00    +0.000 A 
ATOM     13  C   UNL     1      46.315   1.208   8.063  0.00  0.00    +0.000 A 
ATOM     14  C   UNL     1      47.112   0.808   6.953  0.00  0.00    +0.000 A 
ATOM     15  C   UNL     1      47.351   1.854   6.092  0.00  0.00    +0.000 A 
ATOM     16  S   UNL     1      46.601   3.300   6.615  0.00  0.00    +0.000 S 
ENDBRANCH   9  12
ENDBRANCH   7  10
ENDBRANCH   1   7
BRANCH   4  17
ATOM     17  C   UNL     1      48.043   6.580  14.591  0.00  0.00    +0.000 C 
BRANCH  17  18
ATOM     18  N   UNL     1      49.161   7.032  13.805  0.00  0.00    +0.000 N 
ATOM     19  C   UNL     1      49.539   8.350  13.770  0.00  0.00    +0.000 C 
ATOM     20  O   UNL     1      48.976   9.207  14.444  0.00  0.00    +0.000 OA
ATOM     21  H   UNL     1      49.473   6.413  13.065  0.00  0.00    +0.000 HD
BRANCH  19  22
ATOM     22  C   UNL     1      50.703   8.666  12.932  0.00  0.00    +0.000 A 
ATOM     23  C   UNL     1      50.519   9.069  11.616  0.00  0.00    +0.000 A 
ATOM     24  S   UNL     1      51.971   9.482  10.820  0.00  0.00    +0.000 S 
ATOM     25  C   UNL     1      52.901   9.083  12.187  0.00  0.00    +0.000 A 
ATOM     26  N   UNL     1      54.256   9.205  12.175  0.00  0.00    +0.000 NA
ATOM     27  C   UNL     1      54.836   8.839  13.270  0.00  0.00    +0.000 A 
ATOM     28  N   UNL     1      54.183   8.361  14.376  0.00  0.00    +0.000 N 
ATOM     29  C   UNL     1      52.817   8.237  14.440  0.00  0.00    +0.000 A 
ATOM     30  O   UNL     1      52.262   7.825  15.453  0.00  0.00    +0.000 OA
ATOM     31  C   UNL     1      52.115   8.643  13.237  0.00  0.00    +0.000 A 
ATOM     32  H   UNL     1      54.694   8.089  15.203  0.00  0.00    +0.000 HD
ENDBRANCH  19  22
ENDBRANCH  17  18
ENDBRANCH   4  17
TORSDOF 6
ENDMDL
