MODEL 1
REMARK VINA RESULT:    -9.113      0.000      0.000
REMARK INTER + INTRA:         -13.056
REMARK INTER:                 -12.310
REMARK INTRA:                  -0.746
REMARK UNBOUND:                -0.746
REMARK  Name = 
REMARK  6 active torsions:
REMARK  status: ('A' for Active; 'I' for Inactive)
REMARK    1  A    between atoms: C_2  and  C_20
REMARK    2  A    between atoms: N_3  and  C_4
REMARK    3  A    between atoms: C_4  and  C_5
REMARK    4  A    between atoms: C_8  and  C_9
REMARK    5  A    between atoms: C_9  and  N_10
REMARK    6  A    between atoms: C_11  and  C_13
REMARK                            x       y       z     vdW  Elec       q    Type
REMARK                         _______ _______ _______ _____ _____    ______ ____
ROOT
ATOM      1  C   UNL     1      46.125   4.864  13.183  0.00  0.00    +0.000 C 
ATOM      2  C   UNL     1      46.001   3.731  12.145  0.00  0.00    +0.000 C 
ATOM      3  C   UNL     1      44.569   3.213  11.995  0.00  0.00    +0.000 C 
ATOM      4  C   UNL     1      43.555   4.336  11.718  0.00  0.00    +0.000 C 
ATOM      5  C   UNL     1      43.684   5.444  12.779  0.00  0.00    +0.000 C 
ATOM      6  C   UNL     1      45.114   5.977  12.879  0.00  0.00    +0.000 C 
ENDROOT
BRANCH   1   7
ATOM      7  C   UNL     1      45.961   4.352  14.622  0.00  0.00    +0.000 C 
BRANCH   7  10
ATOM      8  O   UNL     1      46.614   3.227  17.142  0.00  0.00    +0.000 OA
ATOM      9  C   UNL     1      47.398   3.996  16.606  0.00  0.00    +0.000 C 
ATOM     10  N   UNL     1      47.141   4.612  15.408  0.00  0.00    +0.000 N 
ATOM     11  H   UNL     1      47.859   5.170  14.965  0.00  0.00    +0.000 HD
BRANCH   9  12
ATOM     12  C   UNL     1      48.681   4.348  17.213  0.00  0.00    +0.000 A 
ATOM     13  C   UNL     1      48.864   5.584  17.811  0.00  0.00    +0.000 A 
ATOM     14  S   UNL     1      50.421   5.781  18.484  0.00  0.00    +0.000 S 
ATOM     15  C   UNL     1      50.884   4.208  18.022  0.00  0.00    +0.000 A 
ATOM     16  N   UNL     1      52.112   3.714  18.330  0.00  0.00    +0.000 NA
ATOM     17  C   UNL     1      52.308   2.494  17.941  0.00  0.00    +0.000 A 
ATOM     18  N   UNL     1      51.393   1.730  17.262  0.00  0.00    +0.000 N 
ATOM     19  C   UNL     1      50.172   2.210  16.871  0.00  0.00    +0.000 A 
ATOM     20  O   UNL     1      49.445   1.546  16.141  0.00  0.00    +0.000 OA
ATOM     21  C   UNL     1      49.879   3.554  17.333  0.00  0.00    +0.000 A 
ATOM     22  H   UNL     1      51.624   0.798  16.948  0.00  0.00    +0.000 HD
ENDBRANCH   9  12
ENDBRANCH   7  10
ENDBRANCH   1   7
BRANCH   4  23
ATOM     23  C   UNL     1      43.710   4.934  10.303  0.00  0.00    +0.000 C 
BRANCH  23  24
ATOM     24  N   UNL     1      44.303   4.011   9.364  0.00  0.00    +0.000 N 
ATOM     25  C   UNL     1      45.438   4.312   8.660  0.00  0.00    +0.000 C 
ATOM     26  O   UNL     1      46.025   5.392   8.745  0.00  0.00    +0.000 OA
ATOM     27  H   UNL     1      43.934   3.069   9.248  0.00  0.00    +0.000 HD
BRANCH  25  28
ATOM     28  C   UNL     1      45.892   3.230   7.681  0.00  0.00    +0.000 C 
ATOM     29  C   UNL     1      46.105   1.904   8.383  0.00  0.00    +0.000 C 
ATOM     30  C   UNL     1      46.932   1.134   7.374  0.00  0.00    +0.000 C 
ATOM     31  C   UNL     1      47.740   2.203   6.646  0.00  0.00    +0.000 C 
ATOM     32  N   UNL     1      47.238   3.502   7.112  0.00  0.00    +0.000 NA
ATOM     33  H   UNL     1      47.146   4.146   6.325  0.00  0.00    +0.000 HD
ENDBRANCH  25  28
ENDBRANCH  23  24
ENDBRANCH   4  23
TORSDOF 6
ENDMDL
MODEL 2
REMARK VINA RESULT:    -7.966      2.123      2.578
REMARK INTER + INTRA:         -11.507
REMARK INTER:                 -11.016
REMARK INTRA:                  -0.490
REMARK UNBOUND:                -0.746
REMARK  Name = 
REMARK  6 active torsions:
REMARK  status: ('A' for Active; 'I' for Inactive)
REMARK    1  A    between atoms: C_2  and  C_20
REMARK    2  A    between atoms: N_3  and  C_4
REMARK    3  A    between atoms: C_4  and  C_5
REMARK    4  A    between atoms: C_8  and  C_9
REMARK    5  A    between atoms: C_9  and  N_10
REMARK    6  A    between atoms: C_11  and  C_13
REMARK                            x       y       z     vdW  Elec       q    Type
REMARK                         _______ _______ _______ _____ _____    ______ ____
ROOT
ATOM      1  C   UNL     1      46.492   5.528  12.442  0.00  0.00    +0.000 C 
ATOM      2  C   UNL     1      45.293   4.963  13.229  0.00  0.00    +0.000 C 
ATOM      3  C   UNL     1      44.051   5.853  13.144  0.00  0.00    +0.000 C 
ATOM      4  C   UNL     1      43.658   6.190  11.696  0.00  0.00    +0.000 C 
ATOM      5  C   UNL     1      44.864   6.771  10.937  0.00  0.00    +0.000 C 
ATOM      6  C   UNL     1      46.079   5.844  10.999  0.00  0.00    +0.000 C 
ENDROOT
BRANCH   1   7
ATOM      7  C   UNL     1      47.101   6.764  13.121  0.00  0.00    +0.000 C 
BRANCH   7  10
ATOM      8  O   UNL     1      49.743   6.999  14.128  0.00  0.00    +0.000 OA
ATOM      9  C   UNL     1      48.845   6.636  14.874  0.00  0.00    +0.000 C 
ATOM     10  N   UNL     1      47.551   6.460  14.456  0.00  0.00    +0.000 N 
ATOM     11  H   UNL     1      46.829   6.244  15.133  0.00  0.00    +0.000 HD
BRANCH   9  12
ATOM     12  C   UNL     1      49.081   6.332  16.285  0.00  0.00    +0.000 A 
ATOM     13  C   UNL     1      49.675   7.265  17.119  0.00  0.00    +0.000 A 
ATOM     14  S   UNL     1      49.832   6.723  18.730  0.00  0.00    +0.000 S 
ATOM     15  C   UNL     1      49.080   5.239  18.365  0.00  0.00    +0.000 A 
ATOM     16  N   UNL     1      48.861   4.304  19.327  0.00  0.00    +0.000 NA
ATOM     17  C   UNL     1      48.253   3.239  18.906  0.00  0.00    +0.000 A 
ATOM     18  N   UNL     1      47.857   3.022  17.611  0.00  0.00    +0.000 N 
ATOM     19  C   UNL     1      48.119   3.906  16.599  0.00  0.00    +0.000 A 
ATOM     20  O   UNL     1      47.880   3.608  15.433  0.00  0.00    +0.000 OA
ATOM     21  C   UNL     1      48.748   5.142  17.027  0.00  0.00    +0.000 A 
ATOM     22  H   UNL     1      47.425   2.151  17.338  0.00  0.00    +0.000 HD
ENDBRANCH   9  12
ENDBRANCH   7  10
ENDBRANCH   1   7
BRANCH   4  23
ATOM     23  C   UNL     1      43.091   4.968  10.941  0.00  0.00    +0.000 C 
BRANCH  23  24
ATOM     24  N   UNL     1      43.853   4.632   9.762  0.00  0.00    +0.000 N 
ATOM     25  C   UNL     1      44.185   3.341   9.449  0.00  0.00    +0.000 C 
ATOM     26  O   UNL     1      43.892   2.374  10.153  0.00  0.00    +0.000 OA
ATOM     27  H   UNL     1      44.108   5.344   9.079  0.00  0.00    +0.000 HD
BRANCH  25  28
ATOM     28  C   UNL     1      45.032   3.185   8.187  0.00  0.00    +0.000 C 
ATOM     29  C   UNL     1      46.010   2.035   8.317  0.00  0.00    +0.000 C 
ATOM     30  C   UNL     1      46.996   2.322   7.203  0.00  0.00    +0.000 C 
ATOM     31  C   UNL     1      47.004   3.841   7.081  0.00  0.00    +0.000 C 
ATOM     32  N   UNL     1      45.938   4.341   7.959  0.00  0.00    +0.000 NA
ATOM     33  H   UNL     1      45.420   5.087   7.493  0.00  0.00    +0.000 HD
ENDBRANCH  25  28
ENDBRANCH  23  24
ENDBRANCH   4  23
TORSDOF 6
ENDMDL
MODEL 3
REMARK VINA RESULT:    -7.515      1.724      2.229
REMARK INTER + INTRA:         -10.896
REMARK INTER:                 -10.180
REMARK INTRA:                  -0.716
REMARK UNBOUND:                -0.746
REMARK  Name = 
REMARK  6 active torsions:
REMARK  status: ('A' for Active; 'I' for Inactive)
REMARK    1  A    between atoms: C_2  and  C_20
REMARK    2  A    between atoms: N_3  and  C_4
REMARK    3  A    between atoms: C_4  and  C_5
REMARK    4  A    between atoms: C_8  and  C_9
REMARK    5  A    between atoms: C_9  and  N_10
REMARK    6  A    between atoms: C_11  and  C_13
REMARK                            x       y       z     vdW  Elec       q    Type
REMARK                         _______ _______ _______ _____ _____    ______ ____
ROOT
ATOM      1  C   UNL     1      46.374   4.389  13.130  0.00  0.00    +0.000 C 
ATOM      2  C   UNL     1      45.737   3.311  12.231  0.00  0.00    +0.000 C 
ATOM      3  C   UNL     1      44.209   3.284  12.324  0.00  0.00    +0.000 C 
ATOM      4  C   UNL     1      43.573   4.662  12.078  0.00  0.00    +0.000 C 
ATOM      5  C   UNL     1      44.211   5.716  13.000  0.00  0.00    +0.000 C 
ATOM      6  C   UNL     1      45.733   5.756  12.858  0.00  0.00    +0.000 C 
ENDROOT
BRANCH   1   7
ATOM      7  C   UNL     1      46.285   4.029  14.620  0.00  0.00    +0.000 C 
BRANCH   7  10
ATOM      8  O   UNL     1      46.696   4.082  17.427  0.00  0.00    +0.000 OA
ATOM      9  C   UNL     1      47.633   4.318  16.677  0.00  0.00    +0.000 C 
ATOM     10  N   UNL     1      47.508   4.350  15.312  0.00  0.00    +0.000 N 
ATOM     11  H   UNL     1      48.332   4.462  14.735  0.00  0.00    +0.000 HD
BRANCH   9  12
ATOM     12  C   UNL     1      48.974   4.612  17.178  0.00  0.00    +0.000 A 
ATOM     13  C   UNL     1      49.568   3.798  18.128  0.00  0.00    +0.000 A 
ATOM     14  S   UNL     1      51.144   4.300  18.554  0.00  0.00    +0.000 S 
ATOM     15  C   UNL     1      51.089   5.601  17.456  0.00  0.00    +0.000 A 
ATOM     16  N   UNL     1      52.152   6.431  17.291  0.00  0.00    +0.000 NA
ATOM     17  C   UNL     1      51.974   7.355  16.400  0.00  0.00    +0.000 A 
ATOM     18  N   UNL     1      50.825   7.530  15.670  0.00  0.00    +0.000 N 
ATOM     19  C   UNL     1      49.707   6.762  15.855  0.00  0.00    +0.000 A 
ATOM     20  O   UNL     1      48.656   7.045  15.289  0.00  0.00    +0.000 OA
ATOM     21  C   UNL     1      49.873   5.675  16.801  0.00  0.00    +0.000 A 
ATOM     22  H   UNL     1      50.734   8.298  15.021  0.00  0.00    +0.000 HD
ENDBRANCH   9  12
ENDBRANCH   7  10
ENDBRANCH   1   7
BRANCH   4  23
ATOM     23  C   UNL     1      43.685   5.107  10.603  0.00  0.00    +0.000 C 
BRANCH  23  24
ATOM     24  N   UNL     1      44.177   4.064   9.736  0.00  0.00    +0.000 N 
ATOM     25  C   UNL     1      45.220   4.261   8.872  0.00  0.00    +0.000 C 
ATOM     26  O   UNL     1      45.800   5.341   8.742  0.00  0.00    +0.000 OA
ATOM     27  H   UNL     1      43.808   3.116   9.791  0.00  0.00    +0.000 HD
BRANCH  25  28
ATOM     28  C   UNL     1      45.570   3.055   8.002  0.00  0.00    +0.000 C 
ATOM     29  C   UNL     1      45.679   1.790   8.830  0.00  0.00    +0.000 C 
ATOM     30  C   UNL     1      46.428   0.859   7.899  0.00  0.00    +0.000 C 
ATOM     31  C   UNL     1      47.314   1.779   7.067  0.00  0.00    +0.000 C 
ATOM     32  N   UNL     1      46.928   3.155   7.405  0.00  0.00    +0.000 NA
ATOM     33  H   UNL     1      46.881   3.724   6.559  0.00  0.00    +0.000 HD
ENDBRANCH  25  28
ENDBRANCH  23  24
ENDBRANCH   4  23
TORSDOF 6
ENDMDL
MODEL 4
REMARK VINA RESULT:    -7.160      2.654      3.547
REMARK INTER + INTRA:         -10.417
REMARK INTER:                 -10.473
REMARK INTRA:                   0.056
REMARK UNBOUND:                -0.746
REMARK  Name = 
REMARK  6 active torsions:
REMARK  status: ('A' for Active; 'I' for Inactive)
REMARK    1  A    between atoms: C_2  and  C_20
REMARK    2  A    between atoms: N_3  and  C_4
REMARK    3  A    between atoms: C_4  and  C_5
REMARK    4  A    between atoms: C_8  and  C_9
REMARK    5  A    between atoms: C_9  and  N_10
REMARK    6  A    between atoms: C_11  and  C_13
REMARK                            x       y       z     vdW  Elec       q    Type
REMARK                         _______ _______ _______ _____ _____    ______ ____
ROOT
ATOM      1  C   UNL     1      46.782   5.571  12.433  0.00  0.00    +0.000 C 
ATOM      2  C   UNL     1      45.662   4.721  13.065  0.00  0.00    +0.000 C 
ATOM      3  C   UNL     1      44.329   5.467  13.162  0.00  0.00    +0.000 C 
ATOM      4  C   UNL     1      43.884   6.067  11.817  0.00  0.00    +0.000 C 
ATOM      5  C   UNL     1      45.010   6.926  11.217  0.00  0.00    +0.000 C 
ATOM      6  C   UNL     1      46.319   6.146  11.089  0.00  0.00    +0.000 C 
ENDROOT
BRANCH   1   7
ATOM      7  C   UNL     1      47.262   6.688  13.372  0.00  0.00    +0.000 C 
BRANCH   7  10
ATOM      8  O   UNL     1      49.651   6.686  14.901  0.00  0.00    +0.000 OA
ATOM      9  C   UNL     1      48.616   6.273  15.403  0.00  0.00    +0.000 C 
ATOM     10  N   UNL     1      47.429   6.204  14.720  0.00  0.00    +0.000 N 
ATOM     11  H   UNL     1      46.583   5.939  15.207  0.00  0.00    +0.000 HD
BRANCH   9  12
ATOM     12  C   UNL     1      48.559   5.790  16.782  0.00  0.00    +0.000 A 
ATOM     13  C   UNL     1      48.697   4.442  17.065  0.00  0.00    +0.000 A 
ATOM     14  S   UNL     1      48.630   4.094  18.735  0.00  0.00    +0.000 S 
ATOM     15  C   UNL     1      48.445   5.741  19.129  0.00  0.00    +0.000 A 
ATOM     16  N   UNL     1      48.362   6.152  20.422  0.00  0.00    +0.000 NA
ATOM     17  C   UNL     1      48.255   7.435  20.567  0.00  0.00    +0.000 A 
ATOM     18  N   UNL     1      48.211   8.340  19.537  0.00  0.00    +0.000 N 
ATOM     19  C   UNL     1      48.221   7.964  18.221  0.00  0.00    +0.000 A 
ATOM     20  O   UNL     1      48.032   8.791  17.334  0.00  0.00    +0.000 OA
ATOM     21  C   UNL     1      48.398   6.541  18.002  0.00  0.00    +0.000 A 
ATOM     22  H   UNL     1      48.082   9.326  19.716  0.00  0.00    +0.000 HD
ENDBRANCH   9  12
ENDBRANCH   7  10
ENDBRANCH   1   7
BRANCH   4  23
ATOM     23  C   UNL     1      43.444   4.984  10.807  0.00  0.00    +0.000 C 
BRANCH  23  24
ATOM     24  N   UNL     1      44.533   4.493   9.998  0.00  0.00    +0.000 N 
ATOM     25  C   UNL     1      44.649   3.174   9.648  0.00  0.00    +0.000 C 
ATOM     26  O   UNL     1      43.859   2.302  10.014  0.00  0.00    +0.000 OA
ATOM     27  H   UNL     1      45.219   5.130   9.595  0.00  0.00    +0.000 HD
BRANCH  25  28
ATOM     28  C   UNL     1      45.891   2.835   8.825  0.00  0.00    +0.000 C 
ATOM     29  C   UNL     1      45.830   3.465   7.448  0.00  0.00    +0.000 C 
ATOM     30  C   UNL     1      46.881   2.681   6.689  0.00  0.00    +0.000 C 
ATOM     31  C   UNL     1      46.868   1.299   7.332  0.00  0.00    +0.000 C 
ATOM     32  N   UNL     1      45.985   1.387   8.503  0.00  0.00    +0.000 NA
ATOM     33  H   UNL     1      46.400   0.893   9.294  0.00  0.00    +0.000 HD
ENDBRANCH  25  28
ENDBRANCH  23  24
ENDBRANCH   4  23
TORSDOF 6
ENDMDL
MODEL 5
REMARK VINA RESULT:    -6.965      2.131      2.977
REMARK INTER + INTRA:         -10.154
REMARK INTER:                  -9.377
REMARK INTRA:                  -0.777
REMARK UNBOUND:                -0.746
REMARK  Name = 
REMARK  6 active torsions:
REMARK  status: ('A' for Active; 'I' for Inactive)
REMARK    1  A    between atoms: C_2  and  C_20
REMARK    2  A    between atoms: N_3  and  C_4
REMARK    3  A    between atoms: C_4  and  C_5
REMARK    4  A    between atoms: C_8  and  C_9
REMARK    5  A    between atoms: C_9  and  N_10
REMARK    6  A    between atoms: C_11  and  C_13
REMARK                            x       y       z     vdW  Elec       q    Type
REMARK                         _______ _______ _______ _____ _____    ______ ____
ROOT
ATOM      1  C   UNL     1      48.664   7.301  13.900  0.00  0.00    +0.000 C 
ATOM      2  C   UNL     1      48.055   6.011  13.318  0.00  0.00    +0.000 C 
ATOM      3  C   UNL     1      46.533   5.949  13.466  0.00  0.00    +0.000 C 
ATOM      4  C   UNL     1      45.829   7.198  12.910  0.00  0.00    +0.000 C 
ATOM      5  C   UNL     1      46.440   8.471  13.522  0.00  0.00    +0.000 C 
ATOM      6  C   UNL     1      47.955   8.533  13.322  0.00  0.00    +0.000 C 
ENDROOT
BRANCH   1   7
ATOM      7  C   UNL     1      48.626   7.319  15.436  0.00  0.00    +0.000 C 
BRANCH   7  10
ATOM      8  O   UNL     1      48.512   5.472  17.586  0.00  0.00    +0.000 OA
ATOM      9  C   UNL     1      49.576   5.666  17.016  0.00  0.00    +0.000 C 
ATOM     10  N   UNL     1      49.724   6.569  15.995  0.00  0.00    +0.000 N 
ATOM     11  H   UNL     1      50.604   6.626  15.498  0.00  0.00    +0.000 HD
BRANCH   9  12
ATOM     12  C   UNL     1      50.800   4.961  17.394  0.00  0.00    +0.000 A 
ATOM     13  C   UNL     1      51.904   5.659  17.853  0.00  0.00    +0.000 A 
ATOM     14  S   UNL     1      53.216   4.647  18.267  0.00  0.00    +0.000 S 
ATOM     15  C   UNL     1      52.333   3.244  17.873  0.00  0.00    +0.000 A 
ATOM     16  N   UNL     1      52.867   2.005  18.034  0.00  0.00    +0.000 NA
ATOM     17  C   UNL     1      52.067   1.035  17.722  0.00  0.00    +0.000 A 
ATOM     18  N   UNL     1      50.787   1.194  17.253  0.00  0.00    +0.000 N 
ATOM     19  C   UNL     1      50.235   2.422  17.011  0.00  0.00    +0.000 A 
ATOM     20  O   UNL     1      49.146   2.518  16.455  0.00  0.00    +0.000 OA
ATOM     21  C   UNL     1      51.069   3.544  17.398  0.00  0.00    +0.000 A 
ATOM     22  H   UNL     1      50.228   0.396  16.986  0.00  0.00    +0.000 HD
ENDBRANCH   9  12
ENDBRANCH   7  10
ENDBRANCH   1   7
BRANCH   4  23
ATOM     23  C   UNL     1      45.886   7.267  11.369  0.00  0.00    +0.000 C 
BRANCH  23  24
ATOM     24  N   UNL     1      45.485   6.035  10.734  0.00  0.00    +0.000 N 
ATOM     25  C   UNL     1      44.183   5.612  10.712  0.00  0.00    +0.000 C 
ATOM     26  O   UNL     1      43.261   6.225  11.251  0.00  0.00    +0.000 OA
ATOM     27  H   UNL     1      46.154   5.470  10.212  0.00  0.00    +0.000 HD
BRANCH  25  28
ATOM     28  C   UNL     1      43.959   4.262  10.033  0.00  0.00    +0.000 C 
ATOM     29  C   UNL     1      44.906   3.208  10.571  0.00  0.00    +0.000 C 
ATOM     30  C   UNL     1      44.823   2.129   9.511  0.00  0.00    +0.000 C 
ATOM     31  C   UNL     1      44.544   2.883   8.216  0.00  0.00    +0.000 C 
ATOM     32  N   UNL     1      44.304   4.284   8.587  0.00  0.00    +0.000 NA
ATOM     33  H   UNL     1      43.515   4.657   8.059  0.00  0.00    +0.000 HD
ENDBRANCH  25  28
ENDBRANCH  23  24
ENDBRANCH   4  23
TORSDOF 6
ENDMDL
MODEL 6
REMARK VINA RESULT:    -6.870      1.946      2.371
REMARK INTER + INTRA:         -10.026
REMARK INTER:                  -9.947
REMARK INTRA:                  -0.079
REMARK UNBOUND:                -0.746
REMARK  Name = 
REMARK  6 active torsions:
REMARK  status: ('A' for Active; 'I' for Inactive)
REMARK    1  A    between atoms: C_2  and  C_20
REMARK    2  A    between atoms: N_3  and  C_4
REMARK    3  A    between atoms: C_4  and  C_5
REMARK    4  A    between atoms: C_8  and  C_9
REMARK    5  A    between atoms: C_9  and  N_10
REMARK    6  A    between atoms: C_11  and  C_13
REMARK                            x       y       z     vdW  Elec       q    Type
REMARK                         _______ _______ _______ _____ _____    ______ ____
ROOT
ATOM      1  C   UNL     1      46.005   4.764  13.049  0.00  0.00    +0.000 C 
ATOM      2  C   UNL     1      44.495   4.850  13.348  0.00  0.00    +0.000 C 
ATOM      3  C   UNL     1      43.803   5.992  12.600  0.00  0.00    +0.000 C 
ATOM      4  C   UNL     1      44.071   5.961  11.086  0.00  0.00    +0.000 C 
ATOM      5  C   UNL     1      45.584   5.896  10.813  0.00  0.00    +0.000 C 
ATOM      6  C   UNL     1      46.245   4.721  11.534  0.00  0.00    +0.000 C 
ENDROOT
BRANCH   1   7
ATOM      7  C   UNL     1      46.791   5.913  13.696  0.00  0.00    +0.000 C 
BRANCH   7  10
ATOM      8  O   UNL     1      47.532   3.326  14.594  0.00  0.00    +0.000 OA
ATOM      9  C   UNL     1      47.632   4.278  15.355  0.00  0.00    +0.000 C 
ATOM     10  N   UNL     1      47.259   5.552  15.012  0.00  0.00    +0.000 N 
ATOM     11  H   UNL     1      47.445   6.318  15.646  0.00  0.00    +0.000 HD
BRANCH   9  12
ATOM     12  C   UNL     1      48.141   4.134  16.718  0.00  0.00    +0.000 A 
ATOM     13  C   UNL     1      47.550   3.249  17.603  0.00  0.00    +0.000 A 
ATOM     14  S   UNL     1      48.313   3.212  19.130  0.00  0.00    +0.000 S 
ATOM     15  C   UNL     1      49.476   4.357  18.640  0.00  0.00    +0.000 A 
ATOM     16  N   UNL     1      50.471   4.754  19.476  0.00  0.00    +0.000 NA
ATOM     17  C   UNL     1      51.297   5.606  18.953  0.00  0.00    +0.000 A 
ATOM     18  N   UNL     1      51.209   6.103  17.678  0.00  0.00    +0.000 N 
ATOM     19  C   UNL     1      50.185   5.784  16.828  0.00  0.00    +0.000 A 
ATOM     20  O   UNL     1      50.062   6.362  15.754  0.00  0.00    +0.000 OA
ATOM     21  C   UNL     1      49.263   4.789  17.344  0.00  0.00    +0.000 A 
ATOM     22  H   UNL     1      51.861   6.799  17.345  0.00  0.00    +0.000 HD
ENDBRANCH   9  12
ENDBRANCH   7  10
ENDBRANCH   1   7
BRANCH   4  23
ATOM     23  C   UNL     1      43.352   4.788  10.386  0.00  0.00    +0.000 C 
BRANCH  23  24
ATOM     24  N   UNL     1      44.055   4.313   9.218  0.00  0.00    +0.000 N 
ATOM     25  C   UNL     1      44.458   3.012   9.085  0.00  0.00    +0.000 C 
ATOM     26  O   UNL     1      44.284   2.154   9.952  0.00  0.00    +0.000 OA
ATOM     27  H   UNL     1      44.210   4.920   8.414  0.00  0.00    +0.000 HD
BRANCH  25  28
ATOM     28  C   UNL     1      45.226   2.706   7.800  0.00  0.00    +0.000 C 
ATOM     29  C   UNL     1      46.316   1.680   8.039  0.00  0.00    +0.000 C 
ATOM     30  C   UNL     1      47.190   1.847   6.813  0.00  0.00    +0.000 C 
ATOM     31  C   UNL     1      47.047   3.317   6.437  0.00  0.00    +0.000 C 
ATOM     32  N   UNL     1      46.001   3.875   7.306  0.00  0.00    +0.000 NA
ATOM     33  H   UNL     1      45.384   4.483   6.766  0.00  0.00    +0.000 HD
ENDBRANCH  25  28
ENDBRANCH  23  24
ENDBRANCH   4  23
TORSDOF 6
ENDMDL
MODEL 7
REMARK VINA RESULT:    -6.807      3.420      8.687
REMARK INTER + INTRA:          -9.940
REMARK INTER:                  -9.173
REMARK INTRA:                  -0.767
REMARK UNBOUND:                -0.746
REMARK  Name = 
REMARK  6 active torsions:
REMARK  status: ('A' for Active; 'I' for Inactive)
REMARK    1  A    between atoms: C_2  and  C_20
REMARK    2  A    between atoms: N_3  and  C_4
REMARK    3  A    between atoms: C_4  and  C_5
REMARK    4  A    between atoms: C_8  and  C_9
REMARK    5  A    between atoms: C_9  and  N_10
REMARK    6  A    between atoms: C_11  and  C_13
REMARK                            x       y       z     vdW  Elec       q    Type
REMARK                         _______ _______ _______ _____ _____    ______ ____
ROOT
ATOM      1  C   UNL     1      46.849   8.379  13.245  0.00  0.00    +0.000 C 
ATOM      2  C   UNL     1      47.499   7.085  13.774  0.00  0.00    +0.000 C 
ATOM      3  C   UNL     1      48.751   6.683  12.990  0.00  0.00    +0.000 C 
ATOM      4  C   UNL     1      49.779   7.821  12.884  0.00  0.00    +0.000 C 
ATOM      5  C   UNL     1      49.111   9.094  12.334  0.00  0.00    +0.000 C 
ATOM      6  C   UNL     1      47.890   9.502  13.160  0.00  0.00    +0.000 C 
ENDROOT
BRANCH   1   7
ATOM      7  C   UNL     1      46.159   8.168  11.889  0.00  0.00    +0.000 C 
BRANCH   7  10
ATOM      8  O   UNL     1      43.541   7.225  11.338  0.00  0.00    +0.000 OA
ATOM      9  C   UNL     1      44.463   6.427  11.417  0.00  0.00    +0.000 C 
ATOM     10  N   UNL     1      45.749   6.796  11.717  0.00  0.00    +0.000 N 
ATOM     11  H   UNL     1      46.491   6.109  11.682  0.00  0.00    +0.000 HD
BRANCH   9  12
ATOM     12  C   UNL     1      44.268   4.991  11.218  0.00  0.00    +0.000 A 
ATOM     13  C   UNL     1      43.533   4.246  12.124  0.00  0.00    +0.000 A 
ATOM     14  S   UNL     1      43.401   2.599  11.691  0.00  0.00    +0.000 S 
ATOM     15  C   UNL     1      44.297   2.843  10.263  0.00  0.00    +0.000 A 
ATOM     16  N   UNL     1      44.528   1.826   9.392  0.00  0.00    +0.000 NA
ATOM     17  C   UNL     1      45.197   2.170   8.336  0.00  0.00    +0.000 A 
ATOM     18  N   UNL     1      45.664   3.434   8.081  0.00  0.00    +0.000 N 
ATOM     19  C   UNL     1      45.514   4.470   8.962  0.00  0.00    +0.000 A 
ATOM     20  O   UNL     1      46.073   5.544   8.764  0.00  0.00    +0.000 OA
ATOM     21  C   UNL     1      44.722   4.153  10.136  0.00  0.00    +0.000 A 
ATOM     22  H   UNL     1      46.217   3.628   7.258  0.00  0.00    +0.000 HD
ENDBRANCH   9  12
ENDBRANCH   7  10
ENDBRANCH   1   7
BRANCH   4  23
ATOM     23  C   UNL     1      50.466   8.121  14.235  0.00  0.00    +0.000 C 
BRANCH  23  24
ATOM     24  N   UNL     1      50.379   7.024  15.168  0.00  0.00    +0.000 N 
ATOM     25  C   UNL     1      49.686   7.116  16.345  0.00  0.00    +0.000 C 
ATOM     26  O   UNL     1      49.111   8.141  16.716  0.00  0.00    +0.000 OA
ATOM     27  H   UNL     1      50.772   6.111  14.944  0.00  0.00    +0.000 HD
BRANCH  25  28
ATOM     28  C   UNL     1      49.743   5.868  17.223  0.00  0.00    +0.000 C 
ATOM     29  C   UNL     1      51.115   5.225  17.181  0.00  0.00    +0.000 C 
ATOM     30  C   UNL     1      50.839   3.840  17.730  0.00  0.00    +0.000 C 
ATOM     31  C   UNL     1      49.405   3.539  17.308  0.00  0.00    +0.000 C 
ATOM     32  N   UNL     1      48.870   4.775  16.720  0.00  0.00    +0.000 NA
ATOM     33  H   UNL     1      47.915   4.932  17.043  0.00  0.00    +0.000 HD
ENDBRANCH  25  28
ENDBRANCH  23  24
ENDBRANCH   4  23
TORSDOF 6
ENDMDL
MODEL 8
REMARK VINA RESULT:    -6.795      5.245      8.173
REMARK INTER + INTRA:          -9.924
REMARK INTER:                  -9.024
REMARK INTRA:                  -0.901
REMARK UNBOUND:                -0.746
REMARK  Name = 
REMARK  6 active torsions:
REMARK  status: ('A' for Active; 'I' for Inactive)
REMARK    1  A    between atoms: C_2  and  C_20
REMARK    2  A    between atoms: N_3  and  C_4
REMARK    3  A    between atoms: C_4  and  C_5
REMARK    4  A    between atoms: C_8  and  C_9
REMARK    5  A    between atoms: C_9  and  N_10
REMARK    6  A    between atoms: C_11  and  C_13
REMARK                            x       y       z     vdW  Elec       q    Type
REMARK                         _______ _______ _______ _____ _____    ______ ____
ROOT
ATOM      1  C   UNL     1      47.811   7.837  13.765  0.00  0.00    +0.000 C 
ATOM      2  C   UNL     1      48.731   6.980  12.873  0.00  0.00    +0.000 C 
ATOM      3  C   UNL     1      49.162   7.701  11.594  0.00  0.00    +0.000 C 
ATOM      4  C   UNL     1      49.780   9.082  11.868  0.00  0.00    +0.000 C 
ATOM      5  C   UNL     1      48.836   9.926  12.742  0.00  0.00    +0.000 C 
ATOM      6  C   UNL     1      48.455   9.203  14.035  0.00  0.00    +0.000 C 
ENDROOT
BRANCH   1   7
ATOM      7  C   UNL     1      46.408   8.002  13.163  0.00  0.00    +0.000 C 
BRANCH   7  10
ATOM      8  O   UNL     1      44.529   7.485  11.101  0.00  0.00    +0.000 OA
ATOM      9  C   UNL     1      44.957   6.556  11.770  0.00  0.00    +0.000 C 
ATOM     10  N   UNL     1      45.837   6.726  12.809  0.00  0.00    +0.000 N 
ATOM     11  H   UNL     1      46.229   5.916  13.272  0.00  0.00    +0.000 HD
BRANCH   9  12
ATOM     12  C   UNL     1      44.547   5.173  11.534  0.00  0.00    +0.000 A 
ATOM     13  C   UNL     1      43.821   4.479  12.487  0.00  0.00    +0.000 A 
ATOM     14  S   UNL     1      43.418   2.892  12.002  0.00  0.00    +0.000 S 
ATOM     15  C   UNL     1      44.176   3.100  10.490  0.00  0.00    +0.000 A 
ATOM     16  N   UNL     1      44.168   2.114   9.555  0.00  0.00    +0.000 NA
ATOM     17  C   UNL     1      44.757   2.428   8.444  0.00  0.00    +0.000 A 
ATOM     18  N   UNL     1      45.362   3.633   8.190  0.00  0.00    +0.000 N 
ATOM     19  C   UNL     1      45.454   4.627   9.127  0.00  0.00    +0.000 A 
ATOM     20  O   UNL     1      46.129   5.628   8.911  0.00  0.00    +0.000 OA
ATOM     21  C   UNL     1      44.760   4.348  10.371  0.00  0.00    +0.000 A 
ATOM     22  H   UNL     1      45.843   3.801   7.318  0.00  0.00    +0.000 HD
ENDBRANCH   9  12
ENDBRANCH   7  10
ENDBRANCH   1   7
BRANCH   4  23
ATOM     23  C   UNL     1      51.172   8.982  12.531  0.00  0.00    +0.000 C 
BRANCH  23  24
ATOM     24  N   UNL     1      52.082   8.129  11.804  0.00  0.00    +0.000 N 
ATOM     25  C   UNL     1      52.708   8.536  10.656  0.00  0.00    +0.000 C 
ATOM     26  O   UNL     1      52.525   9.639  10.137  0.00  0.00    +0.000 OA
ATOM     27  H   UNL     1      52.348   7.215  12.166  0.00  0.00    +0.000 HD
BRANCH  25  28
ATOM     28  C   UNL     1      53.600   7.482  10.004  0.00  0.00    +0.000 C 
ATOM     29  C   UNL     1      52.891   6.792   8.855  0.00  0.00    +0.000 C 
ATOM     30  C   UNL     1      53.738   5.552   8.652  0.00  0.00    +0.000 C 
ATOM     31  C   UNL     1      54.283   5.228  10.038  0.00  0.00    +0.000 C 
ATOM     32  N   UNL     1      53.900   6.345  10.913  0.00  0.00    +0.000 NA
ATOM     33  H   UNL     1      54.680   6.597  11.521  0.00  0.00    +0.000 HD
ENDBRANCH  25  28
ENDBRANCH  23  24
ENDBRANCH   4  23
TORSDOF 6
ENDMDL
MODEL 9
REMARK VINA RESULT:    -6.725      3.649      9.348
REMARK INTER + INTRA:          -9.829
REMARK INTER:                  -9.646
REMARK INTRA:                  -0.184
REMARK UNBOUND:                -0.746
REMARK  Name = 
REMARK  6 active torsions:
REMARK  status: ('A' for Active; 'I' for Inactive)
REMARK    1  A    between atoms: C_2  and  C_20
REMARK    2  A    between atoms: N_3  and  C_4
REMARK    3  A    between atoms: C_4  and  C_5
REMARK    4  A    between atoms: C_8  and  C_9
REMARK    5  A    between atoms: C_9  and  N_10
REMARK    6  A    between atoms: C_11  and  C_13
REMARK                            x       y       z     vdW  Elec       q    Type
REMARK                         _______ _______ _______ _____ _____    ______ ____
ROOT
ATOM      1  C   UNL     1      48.848   3.959  16.781  0.00  0.00    +0.000 C 
ATOM      2  C   UNL     1      49.129   5.450  17.052  0.00  0.00    +0.000 C 
ATOM      3  C   UNL     1      48.612   5.917  18.414  0.00  0.00    +0.000 C 
ATOM      4  C   UNL     1      49.108   5.037  19.573  0.00  0.00    +0.000 C 
ATOM      5  C   UNL     1      48.798   3.557  19.290  0.00  0.00    +0.000 C 
ATOM      6  C   UNL     1      49.364   3.101  17.944  0.00  0.00    +0.000 C 
ENDROOT
BRANCH   1   7
ATOM      7  C   UNL     1      47.360   3.687  16.518  0.00  0.00    +0.000 C 
BRANCH   7  10
ATOM      8  O   UNL     1      47.155   3.245  13.723  0.00  0.00    +0.000 OA
ATOM      9  C   UNL     1      46.732   4.288  14.199  0.00  0.00    +0.000 C 
ATOM     10  N   UNL     1      46.828   4.596  15.532  0.00  0.00    +0.000 N 
ATOM     11  H   UNL     1      46.383   5.432  15.889  0.00  0.00    +0.000 HD
BRANCH   9  12
ATOM     12  C   UNL     1      46.102   5.319  13.376  0.00  0.00    +0.000 A 
ATOM     13  C   UNL     1      46.781   6.484  13.060  0.00  0.00    +0.000 A 
ATOM     14  S   UNL     1      45.880   7.541  12.066  0.00  0.00    +0.000 S 
ATOM     15  C   UNL     1      44.568   6.456  12.005  0.00  0.00    +0.000 A 
ATOM     16  N   UNL     1      43.455   6.735  11.277  0.00  0.00    +0.000 NA
ATOM     17  C   UNL     1      42.554   5.803  11.301  0.00  0.00    +0.000 A 
ATOM     18  N   UNL     1      42.662   4.626  11.997  0.00  0.00    +0.000 N 
ATOM     19  C   UNL     1      43.734   4.335  12.798  0.00  0.00    +0.000 A 
ATOM     20  O   UNL     1      43.724   3.341  13.516  0.00  0.00    +0.000 OA
ATOM     21  C   UNL     1      44.798   5.321  12.761  0.00  0.00    +0.000 A 
ATOM     22  H   UNL     1      41.905   3.958  12.010  0.00  0.00    +0.000 HD
ENDBRANCH   9  12
ENDBRANCH   7  10
ENDBRANCH   1   7
BRANCH   4  23
ATOM     23  C   UNL     1      50.617   5.222  19.848  0.00  0.00    +0.000 C 
BRANCH  23  24
ATOM     24  N   UNL     1      51.393   4.042  19.552  0.00  0.00    +0.000 N 
ATOM     25  C   UNL     1      52.719   4.102  19.218  0.00  0.00    +0.000 C 
ATOM     26  O   UNL     1      53.346   5.157  19.114  0.00  0.00    +0.000 OA
ATOM     27  H   UNL     1      50.993   3.110  19.656  0.00  0.00    +0.000 HD
BRANCH  25  28
ATOM     28  C   UNL     1      53.361   2.754  18.896  0.00  0.00    +0.000 C 
ATOM     29  C   UNL     1      54.309   2.861  17.719  0.00  0.00    +0.000 C 
ATOM     30  C   UNL     1      54.482   1.412  17.311  0.00  0.00    +0.000 C 
ATOM     31  C   UNL     1      53.158   0.750  17.675  0.00  0.00    +0.000 C 
ATOM     32  N   UNL     1      52.375   1.752  18.413  0.00  0.00    +0.000 NA
ATOM     33  H   UNL     1      51.917   1.317  19.215  0.00  0.00    +0.000 HD
ENDBRANCH  25  28
ENDBRANCH  23  24
ENDBRANCH   4  23
TORSDOF 6
ENDMDL
