MODEL 1
REMARK VINA RESULT:    -8.204      0.000      0.000
REMARK INTER + INTRA:         -12.023
REMARK INTER:                 -11.082
REMARK INTRA:                  -0.942
REMARK UNBOUND:                -0.942
REMARK  Name = 
REMARK  6 active torsions:
REMARK  status: ('A' for Active; 'I' for Inactive)
REMARK    1  A    between atoms: C_2  and  C_19
REMARK    2  A    between atoms: N_3  and  C_4
REMARK    3  A    between atoms: C_4  and  C_5
REMARK    4  A    between atoms: C_8  and  C_9
REMARK    5  A    between atoms: C_9  and  O_10
REMARK    6  A    between atoms: O_10  and  C_11
REMARK                            x       y       z     vdW  Elec       q    Type
REMARK                         _______ _______ _______ _____ _____    ______ ____
ROOT
ATOM      1  O   UNL     1      49.232   6.764  13.611  0.00  0.00    +0.000 OA
ATOM      2  C   UNL     1      48.488   7.090  14.521  0.00  0.00    +0.000 C 
ATOM      3  N   UNL     1      47.376   7.888  14.375  0.00  0.00    +0.000 N 
ATOM      4  H   UNL     1      46.700   7.910  15.126  0.00  0.00    +0.000 HD
ENDROOT
BRANCH   2   5
ATOM      5  C   UNL     1      48.537   6.517  15.861  0.00  0.00    +0.000 A 
ATOM      6  C   UNL     1      49.068   7.195  16.943  0.00  0.00    +0.000 A 
ATOM      7  S   UNL     1      49.513   6.120  18.206  0.00  0.00    +0.000 S 
ATOM      8  C   UNL     1      48.872   4.778  17.369  0.00  0.00    +0.000 A 
ATOM      9  N   UNL     1      49.037   3.498  17.798  0.00  0.00    +0.000 NA
ATOM     10  C   UNL     1      48.438   2.615  17.066  0.00  0.00    +0.000 A 
ATOM     11  N   UNL     1      47.649   2.896  15.977  0.00  0.00    +0.000 N 
ATOM     12  C   UNL     1      47.436   4.174  15.520  0.00  0.00    +0.000 A 
ATOM     13  O   UNL     1      46.647   4.419  14.617  0.00  0.00    +0.000 OA
ATOM     14  C   UNL     1      48.202   5.175  16.233  0.00  0.00    +0.000 A 
ATOM     15  H   UNL     1      47.130   2.168  15.508  0.00  0.00    +0.000 HD
ENDBRANCH   2   5
BRANCH   3  16
ATOM     16  C   UNL     1      46.845   8.259  13.081  0.00  0.00    +0.000 C 
BRANCH  16  17
ATOM     17  C   UNL     1      46.122   7.089  12.441  0.00  0.00    +0.000 A 
ATOM     18  N   UNL     1      46.652   6.552  11.327  0.00  0.00    +0.000 NA
ATOM     19  C   UNL     1      45.949   5.568  10.736  0.00  0.00    +0.000 A 
ATOM     20  C   UNL     1      44.731   5.110  11.192  0.00  0.00    +0.000 A 
ATOM     21  C   UNL     1      44.267   5.735  12.329  0.00  0.00    +0.000 A 
ATOM     22  N   UNL     1      44.920   6.737  12.954  0.00  0.00    +0.000 NA
BRANCH  20  23
ATOM     23  C   UNL     1      44.006   3.985  10.528  0.00  0.00    +0.000 C 
BRANCH  23  24
ATOM     24  O   UNL     1      44.166   4.130   9.120  0.00  0.00    +0.000 OA
BRANCH  24  25
ATOM     25  C   UNL     1      45.070   3.305   8.513  0.00  0.00    +0.000 A 
ATOM     26  C   UNL     1      45.950   3.651   7.490  0.00  0.00    +0.000 A 
ATOM     27  C   UNL     1      46.817   2.684   6.977  0.00  0.00    +0.000 A 
ATOM     28  C   UNL     1      46.776   1.405   7.504  0.00  0.00    +0.000 A 
ATOM     29  N   UNL     1      45.935   1.035   8.492  0.00  0.00    +0.000 NA
ATOM     30  C   UNL     1      45.106   1.995   8.969  0.00  0.00    +0.000 A 
ENDBRANCH  24  25
ENDBRANCH  23  24
ENDBRANCH  20  23
ENDBRANCH  16  17
ENDBRANCH   3  16
TORSDOF 6
ENDMDL
MODEL 2
REMARK VINA RESULT:    -7.474      1.805      2.170
REMARK INTER + INTRA:         -11.037
REMARK INTER:                 -10.067
REMARK INTRA:                  -0.970
REMARK UNBOUND:                -0.942
REMARK  Name = 
REMARK  6 active torsions:
REMARK  status: ('A' for Active; 'I' for Inactive)
REMARK    1  A    between atoms: C_2  and  C_19
REMARK    2  A    between atoms: N_3  and  C_4
REMARK    3  A    between atoms: C_4  and  C_5
REMARK    4  A    between atoms: C_8  and  C_9
REMARK    5  A    between atoms: C_9  and  O_10
REMARK    6  A    between atoms: O_10  and  C_11
REMARK                            x       y       z     vdW  Elec       q    Type
REMARK                         _______ _______ _______ _____ _____    ______ ____
ROOT
ATOM      1  O   UNL     1      50.155   6.640  15.492  0.00  0.00    +0.000 OA
ATOM      2  C   UNL     1      49.028   6.871  15.895  0.00  0.00    +0.000 C 
ATOM      3  N   UNL     1      47.920   7.007  15.088  0.00  0.00    +0.000 N 
ATOM      4  H   UNL     1      47.006   6.962  15.517  0.00  0.00    +0.000 HD
ENDROOT
BRANCH   2   5
ATOM      5  C   UNL     1      48.638   6.829  17.300  0.00  0.00    +0.000 A 
ATOM      6  C   UNL     1      48.671   7.946  18.116  0.00  0.00    +0.000 A 
ATOM      7  S   UNL     1      48.723   7.513  19.776  0.00  0.00    +0.000 S 
ATOM      8  C   UNL     1      48.562   5.854  19.409  0.00  0.00    +0.000 A 
ATOM      9  N   UNL     1      48.679   4.878  20.350  0.00  0.00    +0.000 NA
ATOM     10  C   UNL     1      48.476   3.683  19.899  0.00  0.00    +0.000 A 
ATOM     11  N   UNL     1      48.116   3.376  18.609  0.00  0.00    +0.000 N 
ATOM     12  C   UNL     1      47.964   4.329  17.630  0.00  0.00    +0.000 A 
ATOM     13  O   UNL     1      47.540   4.054  16.515  0.00  0.00    +0.000 OA
ATOM     14  C   UNL     1      48.319   5.663  18.066  0.00  0.00    +0.000 A 
ATOM     15  H   UNL     1      47.875   2.432  18.346  0.00  0.00    +0.000 HD
ENDBRANCH   2   5
BRANCH   3  16
ATOM     16  C   UNL     1      47.937   6.680  13.678  0.00  0.00    +0.000 C 
BRANCH  16  17
ATOM     17  C   UNL     1      46.805   5.731  13.333  0.00  0.00    +0.000 A 
ATOM     18  N   UNL     1      47.073   4.413  13.303  0.00  0.00    +0.000 NA
ATOM     19  C   UNL     1      46.072   3.600  12.917  0.00  0.00    +0.000 A 
ATOM     20  C   UNL     1      44.822   4.043  12.538  0.00  0.00    +0.000 A 
ATOM     21  C   UNL     1      44.653   5.410  12.588  0.00  0.00    +0.000 A 
ATOM     22  N   UNL     1      45.625   6.273  12.951  0.00  0.00    +0.000 NA
BRANCH  20  23
ATOM     23  C   UNL     1      43.727   3.102  12.157  0.00  0.00    +0.000 C 
BRANCH  23  24
ATOM     24  O   UNL     1      43.311   3.424  10.833  0.00  0.00    +0.000 OA
BRANCH  24  25
ATOM     25  C   UNL     1      44.214   3.209   9.832  0.00  0.00    +0.000 A 
ATOM     26  C   UNL     1      44.807   1.994   9.497  0.00  0.00    +0.000 A 
ATOM     27  C   UNL     1      45.714   1.943   8.437  0.00  0.00    +0.000 A 
ATOM     28  C   UNL     1      45.997   3.108   7.746  0.00  0.00    +0.000 A 
ATOM     29  N   UNL     1      45.444   4.302   8.045  0.00  0.00    +0.000 NA
ATOM     30  C   UNL     1      44.568   4.320   9.078  0.00  0.00    +0.000 A 
ENDBRANCH  24  25
ENDBRANCH  23  24
ENDBRANCH  20  23
ENDBRANCH  16  17
ENDBRANCH   3  16
TORSDOF 6
ENDMDL
MODEL 3
REMARK VINA RESULT:    -7.299      2.552      3.848
REMARK INTER + INTRA:         -10.801
REMARK INTER:                  -9.839
REMARK INTRA:                  -0.962
REMARK UNBOUND:                -0.942
REMARK  Name = 
REMARK  6 active torsions:
REMARK  status: ('A' for Active; 'I' for Inactive)
REMARK    1  A    between atoms: C_2  and  C_19
REMARK    2  A    between atoms: N_3  and  C_4
REMARK    3  A    between atoms: C_4  and  C_5
REMARK    4  A    between atoms: C_8  and  C_9
REMARK    5  A    between atoms: C_9  and  O_10
REMARK    6  A    between atoms: O_10  and  C_11
REMARK                            x       y       z     vdW  Elec       q    Type
REMARK                         _______ _______ _______ _____ _____    ______ ____
ROOT
ATOM      1  O   UNL     1      49.357   6.640  13.191  0.00  0.00    +0.000 OA
ATOM      2  C   UNL     1      48.456   7.268  13.720  0.00  0.00    +0.000 C 
ATOM      3  N   UNL     1      47.293   6.712  14.203  0.00  0.00    +0.000 N 
ATOM      4  H   UNL     1      46.720   7.264  14.826  0.00  0.00    +0.000 HD
ENDROOT
BRANCH   2   5
ATOM      5  C   UNL     1      48.558   8.668  14.115  0.00  0.00    +0.000 A 
ATOM      6  C   UNL     1      48.330   9.710  13.234  0.00  0.00    +0.000 A 
ATOM      7  S   UNL     1      49.056  11.167  13.777  0.00  0.00    +0.000 S 
ATOM      8  C   UNL     1      49.550  10.444  15.242  0.00  0.00    +0.000 A 
ATOM      9  N   UNL     1      50.360  11.073  16.135  0.00  0.00    +0.000 NA
ATOM     10  C   UNL     1      50.587  10.393  17.212  0.00  0.00    +0.000 A 
ATOM     11  N   UNL     1      50.039   9.166  17.502  0.00  0.00    +0.000 N 
ATOM     12  C   UNL     1      49.199   8.503  16.640  0.00  0.00    +0.000 A 
ATOM     13  O   UNL     1      48.634   7.464  16.955  0.00  0.00    +0.000 OA
ATOM     14  C   UNL     1      49.034   9.173  15.368  0.00  0.00    +0.000 A 
ATOM     15  H   UNL     1      50.178   8.733  18.403  0.00  0.00    +0.000 HD
ENDBRANCH   2   5
BRANCH   3  16
ATOM     16  C   UNL     1      47.103   5.283  14.325  0.00  0.00    +0.000 C 
BRANCH  16  17
ATOM     17  C   UNL     1      46.288   4.748  13.163  0.00  0.00    +0.000 A 
ATOM     18  N   UNL     1      45.912   3.456  13.197  0.00  0.00    +0.000 NA
ATOM     19  C   UNL     1      45.258   2.987  12.118  0.00  0.00    +0.000 A 
ATOM     20  C   UNL     1      44.982   3.741  10.997  0.00  0.00    +0.000 A 
ATOM     21  C   UNL     1      45.422   5.045  11.054  0.00  0.00    +0.000 A 
ATOM     22  N   UNL     1      46.096   5.565  12.101  0.00  0.00    +0.000 NA
BRANCH  20  23
ATOM     23  C   UNL     1      44.216   3.191   9.838  0.00  0.00    +0.000 C 
BRANCH  23  24
ATOM     24  O   UNL     1      44.901   2.034   9.368  0.00  0.00    +0.000 OA
BRANCH  24  25
ATOM     25  C   UNL     1      45.721   2.197   8.288  0.00  0.00    +0.000 A 
ATOM     26  C   UNL     1      45.850   3.346   7.511  0.00  0.00    +0.000 A 
ATOM     27  C   UNL     1      46.740   3.350   6.436  0.00  0.00    +0.000 A 
ATOM     28  C   UNL     1      47.473   2.206   6.173  0.00  0.00    +0.000 A 
ATOM     29  N   UNL     1      47.371   1.075   6.902  0.00  0.00    +0.000 NA
ATOM     30  C   UNL     1      46.499   1.102   7.939  0.00  0.00    +0.000 A 
ENDBRANCH  24  25
ENDBRANCH  23  24
ENDBRANCH  20  23
ENDBRANCH  16  17
ENDBRANCH   3  16
TORSDOF 6
ENDMDL
MODEL 4
REMARK VINA RESULT:    -7.276      1.838      3.436
REMARK INTER + INTRA:         -10.770
REMARK INTER:                 -10.033
REMARK INTRA:                  -0.738
REMARK UNBOUND:                -0.942
REMARK  Name = 
REMARK  6 active torsions:
REMARK  status: ('A' for Active; 'I' for Inactive)
REMARK    1  A    between atoms: C_2  and  C_19
REMARK    2  A    between atoms: N_3  and  C_4
REMARK    3  A    between atoms: C_4  and  C_5
REMARK    4  A    between atoms: C_8  and  C_9
REMARK    5  A    between atoms: C_9  and  O_10
REMARK    6  A    between atoms: O_10  and  C_11
REMARK                            x       y       z     vdW  Elec       q    Type
REMARK                         _______ _______ _______ _____ _____    ______ ____
ROOT
ATOM      1  O   UNL     1      48.933   4.298  17.377  0.00  0.00    +0.000 OA
ATOM      2  C   UNL     1      48.573   5.299  16.782  0.00  0.00    +0.000 C 
ATOM      3  N   UNL     1      47.762   5.300  15.669  0.00  0.00    +0.000 N 
ATOM      4  H   UNL     1      47.331   6.171  15.391  0.00  0.00    +0.000 HD
ENDROOT
BRANCH   2   5
ATOM      5  C   UNL     1      48.767   6.658  17.276  0.00  0.00    +0.000 A 
ATOM      6  C   UNL     1      48.532   7.013  18.592  0.00  0.00    +0.000 A 
ATOM      7  S   UNL     1      48.285   8.704  18.755  0.00  0.00    +0.000 S 
ATOM      8  C   UNL     1      48.628   8.973  17.105  0.00  0.00    +0.000 A 
ATOM      9  N   UNL     1      48.461  10.183  16.508  0.00  0.00    +0.000 NA
ATOM     10  C   UNL     1      48.820  10.213  15.265  0.00  0.00    +0.000 A 
ATOM     11  N   UNL     1      49.378   9.161  14.579  0.00  0.00    +0.000 N 
ATOM     12  C   UNL     1      49.587   7.927  15.147  0.00  0.00    +0.000 A 
ATOM     13  O   UNL     1      50.182   7.033  14.560  0.00  0.00    +0.000 OA
ATOM     14  C   UNL     1      49.069   7.819  16.495  0.00  0.00    +0.000 A 
ATOM     15  H   UNL     1      49.728   9.279  13.640  0.00  0.00    +0.000 HD
ENDBRANCH   2   5
BRANCH   3  16
ATOM     16  C   UNL     1      47.073   4.115  15.205  0.00  0.00    +0.000 C 
BRANCH  16  17
ATOM     17  C   UNL     1      46.417   4.367  13.861  0.00  0.00    +0.000 A 
ATOM     18  N   UNL     1      45.776   3.342  13.270  0.00  0.00    +0.000 NA
ATOM     19  C   UNL     1      45.272   3.570  12.043  0.00  0.00    +0.000 A 
ATOM     20  C   UNL     1      45.395   4.768  11.369  0.00  0.00    +0.000 A 
ATOM     21  C   UNL     1      46.082   5.747  12.053  0.00  0.00    +0.000 A 
ATOM     22  N   UNL     1      46.623   5.569  13.276  0.00  0.00    +0.000 NA
BRANCH  20  23
ATOM     23  C   UNL     1      44.782   4.991  10.025  0.00  0.00    +0.000 C 
BRANCH  23  24
ATOM     24  O   UNL     1      44.430   3.720   9.487  0.00  0.00    +0.000 OA
BRANCH  24  25
ATOM     25  C   UNL     1      45.344   3.120   8.669  0.00  0.00    +0.000 A 
ATOM     26  C   UNL     1      46.122   3.743   7.696  0.00  0.00    +0.000 A 
ATOM     27  C   UNL     1      47.016   2.982   6.942  0.00  0.00    +0.000 A 
ATOM     28  C   UNL     1      47.104   1.622   7.185  0.00  0.00    +0.000 A 
ATOM     29  N   UNL     1      46.364   0.985   8.116  0.00  0.00    +0.000 NA
ATOM     30  C   UNL     1      45.506   1.750   8.832  0.00  0.00    +0.000 A 
ENDBRANCH  24  25
ENDBRANCH  23  24
ENDBRANCH  20  23
ENDBRANCH  16  17
ENDBRANCH   3  16
TORSDOF 6
ENDMDL
MODEL 5
REMARK VINA RESULT:    -6.777      2.372      3.552
REMARK INTER + INTRA:         -10.096
REMARK INTER:                  -9.290
REMARK INTRA:                  -0.807
REMARK UNBOUND:                -0.942
REMARK  Name = 
REMARK  6 active torsions:
REMARK  status: ('A' for Active; 'I' for Inactive)
REMARK    1  A    between atoms: C_2  and  C_19
REMARK    2  A    between atoms: N_3  and  C_4
REMARK    3  A    between atoms: C_4  and  C_5
REMARK    4  A    between atoms: C_8  and  C_9
REMARK    5  A    between atoms: C_9  and  O_10
REMARK    6  A    between atoms: O_10  and  C_11
REMARK                            x       y       z     vdW  Elec       q    Type
REMARK                         _______ _______ _______ _____ _____    ______ ____
ROOT
ATOM      1  O   UNL     1      47.207   5.188  18.373  0.00  0.00    +0.000 OA
ATOM      2  C   UNL     1      48.009   5.588  17.548  0.00  0.00    +0.000 C 
ATOM      3  N   UNL     1      48.175   5.049  16.291  0.00  0.00    +0.000 N 
ATOM      4  H   UNL     1      48.687   5.585  15.603  0.00  0.00    +0.000 HD
ENDROOT
BRANCH   2   5
ATOM      5  C   UNL     1      48.768   6.828  17.679  0.00  0.00    +0.000 A 
ATOM      6  C   UNL     1      48.237   7.969  18.254  0.00  0.00    +0.000 A 
ATOM      7  S   UNL     1      49.094   9.375  17.771  0.00  0.00    +0.000 S 
ATOM      8  C   UNL     1      50.246   8.452  16.915  0.00  0.00    +0.000 A 
ATOM      9  N   UNL     1      51.198   9.015  16.124  0.00  0.00    +0.000 NA
ATOM     10  C   UNL     1      52.016   8.164  15.595  0.00  0.00    +0.000 A 
ATOM     11  N   UNL     1      52.003   6.809  15.823  0.00  0.00    +0.000 N 
ATOM     12  C   UNL     1      51.074   6.198  16.631  0.00  0.00    +0.000 A 
ATOM     13  O   UNL     1      51.139   5.008  16.911  0.00  0.00    +0.000 OA
ATOM     14  C   UNL     1      50.061   7.104  17.129  0.00  0.00    +0.000 A 
ATOM     15  H   UNL     1      52.730   6.212  15.458  0.00  0.00    +0.000 HD
ENDBRANCH   2   5
BRANCH   3  16
ATOM     16  C   UNL     1      47.263   4.075  15.733  0.00  0.00    +0.000 C 
BRANCH  16  17
ATOM     17  C   UNL     1      46.778   4.514  14.365  0.00  0.00    +0.000 A 
ATOM     18  N   UNL     1      47.523   5.407  13.689  0.00  0.00    +0.000 NA
ATOM     19  C   UNL     1      47.030   5.839  12.513  0.00  0.00    +0.000 A 
ATOM     20  C   UNL     1      45.818   5.437  11.991  0.00  0.00    +0.000 A 
ATOM     21  C   UNL     1      45.125   4.533  12.767  0.00  0.00    +0.000 A 
ATOM     22  N   UNL     1      45.562   4.079  13.960  0.00  0.00    +0.000 NA
BRANCH  20  23
ATOM     23  C   UNL     1      45.329   5.910  10.661  0.00  0.00    +0.000 C 
BRANCH  23  24
ATOM     24  O   UNL     1      44.557   4.864  10.079  0.00  0.00    +0.000 OA
BRANCH  24  25
ATOM     25  C   UNL     1      45.200   4.031   9.209  0.00  0.00    +0.000 A 
ATOM     26  C   UNL     1      45.155   2.639   9.209  0.00  0.00    +0.000 A 
ATOM     27  C   UNL     1      45.873   1.930   8.244  0.00  0.00    +0.000 A 
ATOM     28  C   UNL     1      46.610   2.637   7.310  0.00  0.00    +0.000 A 
ATOM     29  N   UNL     1      46.678   3.984   7.282  0.00  0.00    +0.000 NA
ATOM     30  C   UNL     1      45.971   4.644   8.231  0.00  0.00    +0.000 A 
ENDBRANCH  24  25
ENDBRANCH  23  24
ENDBRANCH  20  23
ENDBRANCH  16  17
ENDBRANCH   3  16
TORSDOF 6
ENDMDL
MODEL 6
REMARK VINA RESULT:    -6.336      2.834      4.469
REMARK INTER + INTRA:          -9.500
REMARK INTER:                  -8.777
REMARK INTRA:                  -0.722
REMARK UNBOUND:                -0.942
REMARK  Name = 
REMARK  6 active torsions:
REMARK  status: ('A' for Active; 'I' for Inactive)
REMARK    1  A    between atoms: C_2  and  C_19
REMARK    2  A    between atoms: N_3  and  C_4
REMARK    3  A    between atoms: C_4  and  C_5
REMARK    4  A    between atoms: C_8  and  C_9
REMARK    5  A    between atoms: C_9  and  O_10
REMARK    6  A    between atoms: O_10  and  C_11
REMARK                            x       y       z     vdW  Elec       q    Type
REMARK                         _______ _______ _______ _____ _____    ______ ____
ROOT
ATOM      1  O   UNL     1      48.564   6.672  12.238  0.00  0.00    +0.000 OA
ATOM      2  C   UNL     1      48.024   7.498  12.954  0.00  0.00    +0.000 C 
ATOM      3  N   UNL     1      47.115   7.201  13.945  0.00  0.00    +0.000 N 
ATOM      4  H   UNL     1      46.904   7.912  14.631  0.00  0.00    +0.000 HD
ENDROOT
BRANCH   2   5
ATOM      5  C   UNL     1      48.413   8.902  13.019  0.00  0.00    +0.000 A 
ATOM      6  C   UNL     1      47.537   9.932  12.725  0.00  0.00    +0.000 A 
ATOM      7  S   UNL     1      48.373  11.378  12.328  0.00  0.00    +0.000 S 
ATOM      8  C   UNL     1      49.885  10.671  12.682  0.00  0.00    +0.000 A 
ATOM      9  N   UNL     1      51.066  11.293  12.422  0.00  0.00    +0.000 NA
ATOM     10  C   UNL     1      52.108  10.629  12.805  0.00  0.00    +0.000 A 
ATOM     11  N   UNL     1      52.078   9.425  13.468  0.00  0.00    +0.000 N 
ATOM     12  C   UNL     1      50.909   8.770  13.770  0.00  0.00    +0.000 A 
ATOM     13  O   UNL     1      50.891   7.755  14.454  0.00  0.00    +0.000 OA
ATOM     14  C   UNL     1      49.731   9.418  13.235  0.00  0.00    +0.000 A 
ATOM     15  H   UNL     1      52.924   9.007  13.826  0.00  0.00    +0.000 HD
ENDBRANCH   2   5
BRANCH   3  16
ATOM     16  C   UNL     1      46.856   5.848  14.387  0.00  0.00    +0.000 C 
BRANCH  16  17
ATOM     17  C   UNL     1      46.013   5.102  13.370  0.00  0.00    +0.000 A 
ATOM     18  N   UNL     1      46.254   3.790  13.191  0.00  0.00    +0.000 NA
ATOM     19  C   UNL     1      45.546   3.171  12.228  0.00  0.00    +0.000 A 
ATOM     20  C   UNL     1      44.625   3.805  11.420  0.00  0.00    +0.000 A 
ATOM     21  C   UNL     1      44.464   5.150  11.672  0.00  0.00    +0.000 A 
ATOM     22  N   UNL     1      45.157   5.826  12.612  0.00  0.00    +0.000 NA
BRANCH  20  23
ATOM     23  C   UNL     1      43.831   3.069  10.390  0.00  0.00    +0.000 C 
BRANCH  23  24
ATOM     24  O   UNL     1      44.171   3.598   9.112  0.00  0.00    +0.000 OA
BRANCH  24  25
ATOM     25  C   UNL     1      45.208   3.004   8.452  0.00  0.00    +0.000 A 
ATOM     26  C   UNL     1      46.113   3.629   7.598  0.00  0.00    +0.000 A 
ATOM     27  C   UNL     1      47.124   2.875   7.001  0.00  0.00    +0.000 A 
ATOM     28  C   UNL     1      47.198   1.521   7.278  0.00  0.00    +0.000 A 
ATOM     29  N   UNL     1      46.337   0.883   8.097  0.00  0.00    +0.000 NA
ATOM     30  C   UNL     1      45.367   1.641   8.662  0.00  0.00    +0.000 A 
ENDBRANCH  24  25
ENDBRANCH  23  24
ENDBRANCH  20  23
ENDBRANCH  16  17
ENDBRANCH   3  16
TORSDOF 6
ENDMDL
MODEL 7
REMARK VINA RESULT:    -5.900      1.828      2.338
REMARK INTER + INTRA:          -8.911
REMARK INTER:                  -8.119
REMARK INTRA:                  -0.792
REMARK UNBOUND:                -0.942
REMARK  Name = 
REMARK  6 active torsions:
REMARK  status: ('A' for Active; 'I' for Inactive)
REMARK    1  A    between atoms: C_2  and  C_19
REMARK    2  A    between atoms: N_3  and  C_4
REMARK    3  A    between atoms: C_4  and  C_5
REMARK    4  A    between atoms: C_8  and  C_9
REMARK    5  A    between atoms: C_9  and  O_10
REMARK    6  A    between atoms: O_10  and  C_11
REMARK                            x       y       z     vdW  Elec       q    Type
REMARK                         _______ _______ _______ _____ _____    ______ ____
ROOT
ATOM      1  O   UNL     1      47.982   9.041  17.306  0.00  0.00    +0.000 OA
ATOM      2  C   UNL     1      48.618   8.053  16.981  0.00  0.00    +0.000 C 
ATOM      3  N   UNL     1      48.821   7.644  15.682  0.00  0.00    +0.000 N 
ATOM      4  H   UNL     1      49.545   6.962  15.502  0.00  0.00    +0.000 HD
ENDROOT
BRANCH   2   5
ATOM      5  C   UNL     1      49.438   7.270  17.900  0.00  0.00    +0.000 A 
ATOM      6  C   UNL     1      50.340   7.852  18.773  0.00  0.00    +0.000 A 
ATOM      7  S   UNL     1      51.531   6.729  19.291  0.00  0.00    +0.000 S 
ATOM      8  C   UNL     1      50.766   5.447  18.464  0.00  0.00    +0.000 A 
ATOM      9  N   UNL     1      51.323   4.211  18.348  0.00  0.00    +0.000 NA
ATOM     10  C   UNL     1      50.577   3.351  17.733  0.00  0.00    +0.000 A 
ATOM     11  N   UNL     1      49.307   3.596  17.269  0.00  0.00    +0.000 N 
ATOM     12  C   UNL     1      48.695   4.822  17.383  0.00  0.00    +0.000 A 
ATOM     13  O   UNL     1      47.526   4.997  17.064  0.00  0.00    +0.000 OA
ATOM     14  C   UNL     1      49.554   5.844  17.943  0.00  0.00    +0.000 A 
ATOM     15  H   UNL     1      48.740   2.854  16.887  0.00  0.00    +0.000 HD
ENDBRANCH   2   5
BRANCH   3  16
ATOM     16  C   UNL     1      48.476   8.466  14.542  0.00  0.00    +0.000 C 
BRANCH  16  17
ATOM     17  C   UNL     1      47.341   7.841  13.754  0.00  0.00    +0.000 A 
ATOM     18  N   UNL     1      47.405   6.522  13.492  0.00  0.00    +0.000 NA
ATOM     19  C   UNL     1      46.426   6.010  12.723  0.00  0.00    +0.000 A 
ATOM     20  C   UNL     1      45.398   6.755  12.186  0.00  0.00    +0.000 A 
ATOM     21  C   UNL     1      45.431   8.096  12.499  0.00  0.00    +0.000 A 
ATOM     22  N   UNL     1      46.396   8.668  13.250  0.00  0.00    +0.000 NA
BRANCH  20  23
ATOM     23  C   UNL     1      44.308   6.136  11.373  0.00  0.00    +0.000 C 
BRANCH  23  24
ATOM     24  O   UNL     1      44.501   4.725  11.381  0.00  0.00    +0.000 OA
BRANCH  24  25
ATOM     25  C   UNL     1      44.887   4.146  10.205  0.00  0.00    +0.000 A 
ATOM     26  C   UNL     1      45.509   4.782   9.134  0.00  0.00    +0.000 A 
ATOM     27  C   UNL     1      45.842   4.042   7.998  0.00  0.00    +0.000 A 
ATOM     28  C   UNL     1      45.543   2.691   7.971  0.00  0.00    +0.000 A 
ATOM     29  N   UNL     1      44.938   2.044   8.989  0.00  0.00    +0.000 NA
ATOM     30  C   UNL     1      44.628   2.788  10.078  0.00  0.00    +0.000 A 
ENDBRANCH  24  25
ENDBRANCH  23  24
ENDBRANCH  20  23
ENDBRANCH  16  17
ENDBRANCH   3  16
TORSDOF 6
ENDMDL
MODEL 8
REMARK VINA RESULT:    -5.211      2.914      4.204
REMARK INTER + INTRA:          -7.981
REMARK INTER:                  -7.893
REMARK INTRA:                  -0.088
REMARK UNBOUND:                -0.942
REMARK  Name = 
REMARK  6 active torsions:
REMARK  status: ('A' for Active; 'I' for Inactive)
REMARK    1  A    between atoms: C_2  and  C_19
REMARK    2  A    between atoms: N_3  and  C_4
REMARK    3  A    between atoms: C_4  and  C_5
REMARK    4  A    between atoms: C_8  and  C_9
REMARK    5  A    between atoms: C_9  and  O_10
REMARK    6  A    between atoms: O_10  and  C_11
REMARK                            x       y       z     vdW  Elec       q    Type
REMARK                         _______ _______ _______ _____ _____    ______ ____
ROOT
ATOM      1  O   UNL     1      47.552   6.213  13.584  0.00  0.00    +0.000 OA
ATOM      2  C   UNL     1      47.805   7.397  13.441  0.00  0.00    +0.000 C 
ATOM      3  N   UNL     1      46.882   8.360  13.100  0.00  0.00    +0.000 N 
ATOM      4  H   UNL     1      47.131   9.331  13.233  0.00  0.00    +0.000 HD
ENDROOT
BRANCH   2   5
ATOM      5  C   UNL     1      49.075   8.012  13.814  0.00  0.00    +0.000 A 
ATOM      6  C   UNL     1      49.380   8.358  15.118  0.00  0.00    +0.000 A 
ATOM      7  S   UNL     1      50.626   9.537  15.183  0.00  0.00    +0.000 S 
ATOM      8  C   UNL     1      50.848   9.481  13.492  0.00  0.00    +0.000 A 
ATOM      9  N   UNL     1      51.661  10.346  12.828  0.00  0.00    +0.000 NA
ATOM     10  C   UNL     1      51.747  10.121  11.557  0.00  0.00    +0.000 A 
ATOM     11  N   UNL     1      51.137   9.082  10.896  0.00  0.00    +0.000 N 
ATOM     12  C   UNL     1      50.325   8.171  11.528  0.00  0.00    +0.000 A 
ATOM     13  O   UNL     1      49.875   7.190  10.950  0.00  0.00    +0.000 OA
ATOM     14  C   UNL     1      50.097   8.475  12.925  0.00  0.00    +0.000 A 
ATOM     15  H   UNL     1      51.324   8.904   9.921  0.00  0.00    +0.000 HD
ENDBRANCH   2   5
BRANCH   3  16
ATOM     16  C   UNL     1      45.459   8.104  13.078  0.00  0.00    +0.000 C 
BRANCH  16  17
ATOM     17  C   UNL     1      45.135   6.943  12.156  0.00  0.00    +0.000 A 
ATOM     18  N   UNL     1      44.246   6.028  12.582  0.00  0.00    +0.000 NA
ATOM     19  C   UNL     1      44.037   4.968  11.779  0.00  0.00    +0.000 A 
ATOM     20  C   UNL     1      44.691   4.767  10.582  0.00  0.00    +0.000 A 
ATOM     21  C   UNL     1      45.593   5.752  10.243  0.00  0.00    +0.000 A 
ATOM     22  N   UNL     1      45.855   6.827  11.016  0.00  0.00    +0.000 NA
BRANCH  20  23
ATOM     23  C   UNL     1      44.397   3.596   9.702  0.00  0.00    +0.000 C 
BRANCH  23  24
ATOM     24  O   UNL     1      45.570   2.792   9.634  0.00  0.00    +0.000 OA
BRANCH  24  25
ATOM     25  C   UNL     1      46.108   2.587   8.395  0.00  0.00    +0.000 A 
ATOM     26  C   UNL     1      46.659   1.400   7.918  0.00  0.00    +0.000 A 
ATOM     27  C   UNL     1      47.168   1.355   6.618  0.00  0.00    +0.000 A 
ATOM     28  C   UNL     1      47.109   2.498   5.840  0.00  0.00    +0.000 A 
ATOM     29  N   UNL     1      46.586   3.664   6.271  0.00  0.00    +0.000 NA
ATOM     30  C   UNL     1      46.100   3.677   7.535  0.00  0.00    +0.000 A 
ENDBRANCH  24  25
ENDBRANCH  23  24
ENDBRANCH  20  23
ENDBRANCH  16  17
ENDBRANCH   3  16
TORSDOF 6
ENDMDL
