MODEL 1
REMARK VINA RESULT:    -7.714      0.000      0.000
REMARK INTER + INTRA:         -10.067
REMARK INTER:                  -9.518
REMARK INTRA:                  -0.549
REMARK UNBOUND:                -0.549
REMARK  Name = 
REMARK  5 active torsions:
REMARK  status: ('A' for Active; 'I' for Inactive)
REMARK    1  A    between atoms: C_1  and  N_2
REMARK    2  A    between atoms: C_5  and  C_6
REMARK    3  A    between atoms: C_6  and  O_7
REMARK    4  A    between atoms: O_7  and  C_8
REMARK    5  A    between atoms: C_11  and  C_12
REMARK                            x       y       z     vdW  Elec       q    Type
REMARK                         _______ _______ _______ _____ _____    ______ ____
ROOT
ATOM      1  C   UNL     1      44.534   3.022   9.260  0.00  0.00    +0.000 A 
ATOM      2  C   UNL     1      45.074   1.748   9.069  0.00  0.00    +0.000 A 
ATOM      3  C   UNL     1      46.102   1.549   8.142  0.00  0.00    +0.000 A 
ATOM      4  C   UNL     1      46.594   2.618   7.390  0.00  0.00    +0.000 A 
ATOM      5  C   UNL     1      46.069   3.900   7.589  0.00  0.00    +0.000 A 
ATOM      6  C   UNL     1      45.042   4.094   8.521  0.00  0.00    +0.000 A 
ENDROOT
BRANCH   4   7
ATOM      7  C   UNL     1      47.680   2.339   6.414  0.00  0.00    +0.000 C 
ATOM      8  N   UNL     1      47.737   3.121   5.294  0.00  0.00    +0.000 N 
ATOM      9  O   UNL     1      48.469   1.418   6.577  0.00  0.00    +0.000 OA
ATOM     10  H   UNL     1      46.975   3.716   5.005  0.00  0.00    +0.000 HD
ATOM     11  H   UNL     1      48.404   2.835   4.589  0.00  0.00    +0.000 HD
ENDBRANCH   4   7
BRANCH   1  12
ATOM     12  O   UNL     1      43.525   3.339  10.132  0.00  0.00    +0.000 OA
BRANCH  12  13
ATOM     13  C   UNL     1      43.534   4.677  10.636  0.00  0.00    +0.000 C 
BRANCH  13  18
ATOM     14  C   UNL     1      47.324   5.514  13.373  0.00  0.00    +0.000 C 
ATOM     15  N   UNL     1      45.890   5.221  13.435  0.00  0.00    +0.000 NA
ATOM     16  C   UNL     1      45.126   6.307  12.805  0.00  0.00    +0.000 C 
ATOM     17  C   UNL     1      43.622   6.025  12.810  0.00  0.00    +0.000 C 
ATOM     18  C   UNL     1      43.288   4.679  12.154  0.00  0.00    +0.000 C 
ATOM     19  C   UNL     1      44.117   3.582  12.837  0.00  0.00    +0.000 C 
ATOM     20  C   UNL     1      45.614   3.908  12.841  0.00  0.00    +0.000 C 
ENDBRANCH  13  18
ENDBRANCH  12  13
ENDBRANCH   1  12
TORSDOF 4
ENDMDL
MODEL 2
REMARK VINA RESULT:    -6.354      2.514      6.521
REMARK INTER + INTRA:          -8.388
REMARK INTER:                  -7.936
REMARK INTRA:                  -0.452
REMARK UNBOUND:                -0.549
REMARK  Name = 
REMARK  5 active torsions:
REMARK  status: ('A' for Active; 'I' for Inactive)
REMARK    1  A    between atoms: C_1  and  N_2
REMARK    2  A    between atoms: C_5  and  C_6
REMARK    3  A    between atoms: C_6  and  O_7
REMARK    4  A    between atoms: O_7  and  C_8
REMARK    5  A    between atoms: C_11  and  C_12
REMARK                            x       y       z     vdW  Elec       q    Type
REMARK                         _______ _______ _______ _____ _____    ______ ____
ROOT
ATOM      1  C   UNL     1      45.639   5.113  11.993  0.00  0.00    +0.000 A 
ATOM      2  C   UNL     1      46.322   6.261  11.588  0.00  0.00    +0.000 A 
ATOM      3  C   UNL     1      47.256   6.863  12.437  0.00  0.00    +0.000 A 
ATOM      4  C   UNL     1      47.509   6.330  13.703  0.00  0.00    +0.000 A 
ATOM      5  C   UNL     1      46.839   5.170  14.109  0.00  0.00    +0.000 A 
ATOM      6  C   UNL     1      45.907   4.569  13.252  0.00  0.00    +0.000 A 
ENDROOT
BRANCH   4   7
ATOM      7  C   UNL     1      48.505   7.022  14.562  0.00  0.00    +0.000 C 
ATOM      8  N   UNL     1      48.079   8.111  15.269  0.00  0.00    +0.000 N 
ATOM      9  O   UNL     1      49.675   6.664  14.606  0.00  0.00    +0.000 OA
ATOM     10  H   UNL     1      47.207   8.580  15.075  0.00  0.00    +0.000 HD
ATOM     11  H   UNL     1      48.800   8.638  15.747  0.00  0.00    +0.000 HD
ENDBRANCH   4   7
BRANCH   1  12
ATOM     12  O   UNL     1      44.700   4.439  11.255  0.00  0.00    +0.000 OA
BRANCH  12  13
ATOM     13  C   UNL     1      45.125   3.196  10.690  0.00  0.00    +0.000 C 
BRANCH  13  18
ATOM     14  C   UNL     1      47.833   2.464   6.857  0.00  0.00    +0.000 C 
ATOM     15  N   UNL     1      46.436   2.545   7.293  0.00  0.00    +0.000 NA
ATOM     16  C   UNL     1      46.148   1.478   8.260  0.00  0.00    +0.000 C 
ATOM     17  C   UNL     1      44.708   1.549   8.776  0.00  0.00    +0.000 C 
ATOM     18  C   UNL     1      44.379   2.923   9.374  0.00  0.00    +0.000 C 
ATOM     19  C   UNL     1      44.708   4.001   8.332  0.00  0.00    +0.000 C 
ATOM     20  C   UNL     1      46.146   3.886   7.816  0.00  0.00    +0.000 C 
ENDBRANCH  13  18
ENDBRANCH  12  13
ENDBRANCH   1  12
TORSDOF 4
ENDMDL
MODEL 3
REMARK VINA RESULT:    -5.712      3.944      6.202
REMARK INTER + INTRA:          -7.596
REMARK INTER:                  -7.144
REMARK INTRA:                  -0.452
REMARK UNBOUND:                -0.549
REMARK  Name = 
REMARK  5 active torsions:
REMARK  status: ('A' for Active; 'I' for Inactive)
REMARK    1  A    between atoms: C_1  and  N_2
REMARK    2  A    between atoms: C_5  and  C_6
REMARK    3  A    between atoms: C_6  and  O_7
REMARK    4  A    between atoms: O_7  and  C_8
REMARK    5  A    between atoms: C_11  and  C_12
REMARK                            x       y       z     vdW  Elec       q    Type
REMARK                         _______ _______ _______ _____ _____    ______ ____
ROOT
ATOM      1  C   UNL     1      46.598   4.177  13.671  0.00  0.00    +0.000 A 
ATOM      2  C   UNL     1      45.925   3.250  12.872  0.00  0.00    +0.000 A 
ATOM      3  C   UNL     1      44.952   3.676  11.963  0.00  0.00    +0.000 A 
ATOM      4  C   UNL     1      44.633   5.032  11.851  0.00  0.00    +0.000 A 
ATOM      5  C   UNL     1      45.315   5.967  12.638  0.00  0.00    +0.000 A 
ATOM      6  C   UNL     1      46.292   5.535  13.544  0.00  0.00    +0.000 A 
ENDROOT
BRANCH   4   7
ATOM      7  C   UNL     1      43.582   5.420  10.874  0.00  0.00    +0.000 C 
ATOM      8  N   UNL     1      42.773   6.471  11.204  0.00  0.00    +0.000 N 
ATOM      9  O   UNL     1      43.412   4.800   9.833  0.00  0.00    +0.000 OA
ATOM     10  H   UNL     1      42.717   6.843  12.140  0.00  0.00    +0.000 HD
ATOM     11  H   UNL     1      41.989   6.637  10.585  0.00  0.00    +0.000 HD
ENDBRANCH   4   7
BRANCH   1  12
ATOM     12  O   UNL     1      47.563   3.881  14.598  0.00  0.00    +0.000 OA
BRANCH  12  13
ATOM     13  C   UNL     1      47.655   4.774  15.711  0.00  0.00    +0.000 C 
BRANCH  13  18
ATOM     14  C   UNL     1      50.826   4.684  19.246  0.00  0.00    +0.000 C 
ATOM     15  N   UNL     1      49.475   4.246  18.888  0.00  0.00    +0.000 NA
ATOM     16  C   UNL     1      48.617   5.412  18.638  0.00  0.00    +0.000 C 
ATOM     17  C   UNL     1      47.203   5.001  18.220  0.00  0.00    +0.000 C 
ATOM     18  C   UNL     1      47.212   4.067  17.003  0.00  0.00    +0.000 C 
ATOM     19  C   UNL     1      48.128   2.874  17.308  0.00  0.00    +0.000 C 
ATOM     20  C   UNL     1      49.527   3.319  17.751  0.00  0.00    +0.000 C 
ENDBRANCH  13  18
ENDBRANCH  12  13
ENDBRANCH   1  12
TORSDOF 4
ENDMDL
MODEL 4
REMARK VINA RESULT:    -5.421      4.722      8.403
REMARK INTER + INTRA:          -7.238
REMARK INTER:                  -6.814
REMARK INTRA:                  -0.424
REMARK UNBOUND:                -0.549
REMARK  Name = 
REMARK  5 active torsions:
REMARK  status: ('A' for Active; 'I' for Inactive)
REMARK    1  A    between atoms: C_1  and  N_2
REMARK    2  A    between atoms: C_5  and  C_6
REMARK    3  A    between atoms: C_6  and  O_7
REMARK    4  A    between atoms: O_7  and  C_8
REMARK    5  A    between atoms: C_11  and  C_12
REMARK                            x       y       z     vdW  Elec       q    Type
REMARK                         _______ _______ _______ _____ _____    ______ ____
ROOT
ATOM      1  C   UNL     1      47.506   3.959  15.717  0.00  0.00    +0.000 A 
ATOM      2  C   UNL     1      47.845   5.243  16.148  0.00  0.00    +0.000 A 
ATOM      3  C   UNL     1      48.405   5.436  17.415  0.00  0.00    +0.000 A 
ATOM      4  C   UNL     1      48.623   4.350  18.266  0.00  0.00    +0.000 A 
ATOM      5  C   UNL     1      48.300   3.060  17.833  0.00  0.00    +0.000 A 
ATOM      6  C   UNL     1      47.743   2.871  16.562  0.00  0.00    +0.000 A 
ENDROOT
BRANCH   4   7
ATOM      7  C   UNL     1      49.211   4.623  19.604  0.00  0.00    +0.000 C 
ATOM      8  N   UNL     1      48.615   4.039  20.686  0.00  0.00    +0.000 N 
ATOM      9  O   UNL     1      50.166   5.376  19.744  0.00  0.00    +0.000 OA
ATOM     10  H   UNL     1      47.697   3.621  20.643  0.00  0.00    +0.000 HD
ATOM     11  H   UNL     1      48.954   4.337  21.592  0.00  0.00    +0.000 HD
ENDBRANCH   4   7
BRANCH   1  12
ATOM     12  O   UNL     1      46.948   3.646  14.504  0.00  0.00    +0.000 OA
BRANCH  12  13
ATOM     13  C   UNL     1      46.884   4.711  13.553  0.00  0.00    +0.000 C 
BRANCH  13  18
ATOM     14  C   UNL     1      45.222   4.418   9.113  0.00  0.00    +0.000 C 
ATOM     15  N   UNL     1      44.841   4.815  10.470  0.00  0.00    +0.000 NA
ATOM     16  C   UNL     1      44.884   3.652  11.367  0.00  0.00    +0.000 C 
ATOM     17  C   UNL     1      44.532   4.028  12.808  0.00  0.00    +0.000 C 
ATOM     18  C   UNL     1      45.427   5.154  13.342  0.00  0.00    +0.000 C 
ATOM     19  C   UNL     1      45.357   6.339  12.368  0.00  0.00    +0.000 C 
ATOM     20  C   UNL     1      45.686   5.923  10.930  0.00  0.00    +0.000 C 
ENDBRANCH  13  18
ENDBRANCH  12  13
ENDBRANCH   1  12
TORSDOF 4
ENDMDL
MODEL 5
REMARK VINA RESULT:    -5.401      3.311      5.796
REMARK INTER + INTRA:          -7.212
REMARK INTER:                  -6.710
REMARK INTRA:                  -0.503
REMARK UNBOUND:                -0.549
REMARK  Name = 
REMARK  5 active torsions:
REMARK  status: ('A' for Active; 'I' for Inactive)
REMARK    1  A    between atoms: C_1  and  N_2
REMARK    2  A    between atoms: C_5  and  C_6
REMARK    3  A    between atoms: C_6  and  O_7
REMARK    4  A    between atoms: O_7  and  C_8
REMARK    5  A    between atoms: C_11  and  C_12
REMARK                            x       y       z     vdW  Elec       q    Type
REMARK                         _______ _______ _______ _____ _____    ______ ____
ROOT
ATOM      1  C   UNL     1      45.900   6.476  13.024  0.00  0.00    +0.000 A 
ATOM      2  C   UNL     1      47.179   5.916  13.013  0.00  0.00    +0.000 A 
ATOM      3  C   UNL     1      48.274   6.669  12.578  0.00  0.00    +0.000 A 
ATOM      4  C   UNL     1      48.101   7.984  12.140  0.00  0.00    +0.000 A 
ATOM      5  C   UNL     1      46.824   8.555  12.164  0.00  0.00    +0.000 A 
ATOM      6  C   UNL     1      45.731   7.798  12.605  0.00  0.00    +0.000 A 
ENDROOT
BRANCH   4   7
ATOM      7  C   UNL     1      49.304   8.727  11.679  0.00  0.00    +0.000 C 
ATOM      8  N   UNL     1      49.144  10.045  11.355  0.00  0.00    +0.000 N 
ATOM      9  O   UNL     1      50.389   8.176  11.550  0.00  0.00    +0.000 OA
ATOM     10  H   UNL     1      48.238  10.465  11.211  0.00  0.00    +0.000 HD
ATOM     11  H   UNL     1      49.943  10.495  10.928  0.00  0.00    +0.000 HD
ENDBRANCH   4   7
BRANCH   1  12
ATOM     12  O   UNL     1      44.753   5.839  13.422  0.00  0.00    +0.000 OA
BRANCH  12  13
ATOM     13  C   UNL     1      44.709   4.429  13.187  0.00  0.00    +0.000 C 
BRANCH  13  18
ATOM     14  C   UNL     1      44.650   3.871   8.470  0.00  0.00    +0.000 C 
ATOM     15  N   UNL     1      43.792   3.813   9.656  0.00  0.00    +0.000 NA
ATOM     16  C   UNL     1      44.255   2.754  10.563  0.00  0.00    +0.000 C 
ATOM     17  C   UNL     1      43.411   2.683  11.837  0.00  0.00    +0.000 C 
ATOM     18  C   UNL     1      43.359   4.032  12.566  0.00  0.00    +0.000 C 
ATOM     19  C   UNL     1      42.881   5.105  11.578  0.00  0.00    +0.000 C 
ATOM     20  C   UNL     1      43.728   5.130  10.301  0.00  0.00    +0.000 C 
ENDBRANCH  13  18
ENDBRANCH  12  13
ENDBRANCH   1  12
TORSDOF 4
ENDMDL
MODEL 6
REMARK VINA RESULT:    -5.262      3.868      6.357
REMARK INTER + INTRA:          -7.041
REMARK INTER:                  -6.658
REMARK INTRA:                  -0.383
REMARK UNBOUND:                -0.549
REMARK  Name = 
REMARK  5 active torsions:
REMARK  status: ('A' for Active; 'I' for Inactive)
REMARK    1  A    between atoms: C_1  and  N_2
REMARK    2  A    between atoms: C_5  and  C_6
REMARK    3  A    between atoms: C_6  and  O_7
REMARK    4  A    between atoms: O_7  and  C_8
REMARK    5  A    between atoms: C_11  and  C_12
REMARK                            x       y       z     vdW  Elec       q    Type
REMARK                         _______ _______ _______ _____ _____    ______ ____
ROOT
ATOM      1  C   UNL     1      46.879   4.816  13.856  0.00  0.00    +0.000 A 
ATOM      2  C   UNL     1      46.165   5.868  13.278  0.00  0.00    +0.000 A 
ATOM      3  C   UNL     1      45.166   5.608  12.335  0.00  0.00    +0.000 A 
ATOM      4  C   UNL     1      44.877   4.296  11.952  0.00  0.00    +0.000 A 
ATOM      5  C   UNL     1      45.579   3.236  12.539  0.00  0.00    +0.000 A 
ATOM      6  C   UNL     1      46.575   3.502  13.487  0.00  0.00    +0.000 A 
ENDROOT
BRANCH   4   7
ATOM      7  C   UNL     1      43.812   4.086  10.937  0.00  0.00    +0.000 C 
ATOM      8  N   UNL     1      43.731   4.989   9.913  0.00  0.00    +0.000 N 
ATOM      9  O   UNL     1      43.006   3.170  11.031  0.00  0.00    +0.000 OA
ATOM     10  H   UNL     1      44.205   5.879   9.933  0.00  0.00    +0.000 HD
ATOM     11  H   UNL     1      42.925   4.899   9.307  0.00  0.00    +0.000 HD
ENDBRANCH   4   7
BRANCH   1  12
ATOM     12  O   UNL     1      47.880   4.945  14.784  0.00  0.00    +0.000 OA
BRANCH  12  13
ATOM     13  C   UNL     1      47.543   4.568  16.121  0.00  0.00    +0.000 C 
BRANCH  13  18
ATOM     14  C   UNL     1      47.535   8.205  19.177  0.00  0.00    +0.000 C 
ATOM     15  N   UNL     1      48.341   7.065  18.733  0.00  0.00    +0.000 NA
ATOM     16  C   UNL     1      47.632   5.808  19.012  0.00  0.00    +0.000 C 
ATOM     17  C   UNL     1      48.419   4.589  18.527  0.00  0.00    +0.000 C 
ATOM     18  C   UNL     1      48.773   4.689  17.037  0.00  0.00    +0.000 C 
ATOM     19  C   UNL     1      49.499   6.020  16.795  0.00  0.00    +0.000 C 
ATOM     20  C   UNL     1      48.698   7.217  17.318  0.00  0.00    +0.000 C 
ENDBRANCH  13  18
ENDBRANCH  12  13
ENDBRANCH   1  12
TORSDOF 4
ENDMDL
MODEL 7
REMARK VINA RESULT:    -5.242      3.894      6.082
REMARK INTER + INTRA:          -7.016
REMARK INTER:                  -6.550
REMARK INTRA:                  -0.466
REMARK UNBOUND:                -0.549
REMARK  Name = 
REMARK  5 active torsions:
REMARK  status: ('A' for Active; 'I' for Inactive)
REMARK    1  A    between atoms: C_1  and  N_2
REMARK    2  A    between atoms: C_5  and  C_6
REMARK    3  A    between atoms: C_6  and  O_7
REMARK    4  A    between atoms: O_7  and  C_8
REMARK    5  A    between atoms: C_11  and  C_12
REMARK                            x       y       z     vdW  Elec       q    Type
REMARK                         _______ _______ _______ _____ _____    ______ ____
ROOT
ATOM      1  C   UNL     1      46.485   6.143  12.324  0.00  0.00    +0.000 A 
ATOM      2  C   UNL     1      45.857   6.210  11.078  0.00  0.00    +0.000 A 
ATOM      3  C   UNL     1      45.077   5.142  10.624  0.00  0.00    +0.000 A 
ATOM      4  C   UNL     1      44.923   3.994  11.406  0.00  0.00    +0.000 A 
ATOM      5  C   UNL     1      45.537   3.928  12.662  0.00  0.00    +0.000 A 
ATOM      6  C   UNL     1      46.315   5.002  13.113  0.00  0.00    +0.000 A 
ENDROOT
BRANCH   4   7
ATOM      7  C   UNL     1      44.089   2.890  10.862  0.00  0.00    +0.000 C 
ATOM      8  N   UNL     1      44.568   2.216   9.774  0.00  0.00    +0.000 N 
ATOM      9  O   UNL     1      42.995   2.618  11.337  0.00  0.00    +0.000 OA
ATOM     10  H   UNL     1      45.330   2.561   9.211  0.00  0.00    +0.000 HD
ATOM     11  H   UNL     1      43.930   1.556   9.347  0.00  0.00    +0.000 HD
ENDBRANCH   4   7
BRANCH   1  12
ATOM     12  O   UNL     1      47.277   7.119  12.873  0.00  0.00    +0.000 OA
BRANCH  12  13
ATOM     13  C   UNL     1      48.685   6.956  12.688  0.00  0.00    +0.000 C 
BRANCH  13  18
ATOM     14  C   UNL     1      51.115  10.759  14.171  0.00  0.00    +0.000 C 
ATOM     15  N   UNL     1      50.617  10.100  12.961  0.00  0.00    +0.000 NA
ATOM     16  C   UNL     1      51.246   8.781  12.810  0.00  0.00    +0.000 C 
ATOM     17  C   UNL     1      50.724   8.037  11.579  0.00  0.00    +0.000 C 
ATOM     18  C   UNL     1      49.195   7.907  11.592  0.00  0.00    +0.000 C 
ATOM     19  C   UNL     1      48.587   9.306  11.763  0.00  0.00    +0.000 C 
ATOM     20  C   UNL     1      49.151  10.035  12.987  0.00  0.00    +0.000 C 
ENDBRANCH  13  18
ENDBRANCH  12  13
ENDBRANCH   1  12
TORSDOF 4
ENDMDL
MODEL 8
REMARK VINA RESULT:    -5.065      3.623      5.564
REMARK INTER + INTRA:          -6.798
REMARK INTER:                  -6.285
REMARK INTRA:                  -0.512
REMARK UNBOUND:                -0.549
REMARK  Name = 
REMARK  5 active torsions:
REMARK  status: ('A' for Active; 'I' for Inactive)
REMARK    1  A    between atoms: C_1  and  N_2
REMARK    2  A    between atoms: C_5  and  C_6
REMARK    3  A    between atoms: C_6  and  O_7
REMARK    4  A    between atoms: O_7  and  C_8
REMARK    5  A    between atoms: C_11  and  C_12
REMARK                            x       y       z     vdW  Elec       q    Type
REMARK                         _______ _______ _______ _____ _____    ______ ____
ROOT
ATOM      1  C   UNL     1      44.895   6.666  12.470  0.00  0.00    +0.000 A 
ATOM      2  C   UNL     1      43.878   6.485  11.529  0.00  0.00    +0.000 A 
ATOM      3  C   UNL     1      43.545   5.200  11.089  0.00  0.00    +0.000 A 
ATOM      4  C   UNL     1      44.231   4.084  11.576  0.00  0.00    +0.000 A 
ATOM      5  C   UNL     1      45.239   4.258  12.531  0.00  0.00    +0.000 A 
ATOM      6  C   UNL     1      45.566   5.547  12.971  0.00  0.00    +0.000 A 
ENDROOT
BRANCH   4   7
ATOM      7  C   UNL     1      43.836   2.747  11.060  0.00  0.00    +0.000 C 
ATOM      8  N   UNL     1      44.535   2.251   9.996  0.00  0.00    +0.000 N 
ATOM      9  O   UNL     1      42.895   2.127  11.537  0.00  0.00    +0.000 OA
ATOM     10  H   UNL     1      45.141   2.824   9.427  0.00  0.00    +0.000 HD
ATOM     11  H   UNL     1      44.170   1.401   9.585  0.00  0.00    +0.000 HD
ENDBRANCH   4   7
BRANCH   1  12
ATOM     12  O   UNL     1      45.313   7.871  12.972  0.00  0.00    +0.000 OA
BRANCH  12  13
ATOM     13  C   UNL     1      46.335   8.536  12.225  0.00  0.00    +0.000 C 
BRANCH  13  18
ATOM     14  C   UNL     1      50.871   7.724  11.073  0.00  0.00    +0.000 C 
ATOM     15  N   UNL     1      50.028   8.370  12.082  0.00  0.00    +0.000 NA
ATOM     16  C   UNL     1      49.248   9.454  11.469  0.00  0.00    +0.000 C 
ATOM     17  C   UNL     1      48.321  10.132  12.480  0.00  0.00    +0.000 C 
ATOM     18  C   UNL     1      47.393   9.126  13.173  0.00  0.00    +0.000 C 
ATOM     19  C   UNL     1      48.251   8.011  13.786  0.00  0.00    +0.000 C 
ATOM     20  C   UNL     1      49.189   7.372  12.756  0.00  0.00    +0.000 C 
ENDBRANCH  13  18
ENDBRANCH  12  13
ENDBRANCH   1  12
TORSDOF 4
ENDMDL
MODEL 9
REMARK VINA RESULT:    -5.039      3.671      6.215
REMARK INTER + INTRA:          -6.765
REMARK INTER:                  -6.377
REMARK INTRA:                  -0.388
REMARK UNBOUND:                -0.549
REMARK  Name = 
REMARK  5 active torsions:
REMARK  status: ('A' for Active; 'I' for Inactive)
REMARK    1  A    between atoms: C_1  and  N_2
REMARK    2  A    between atoms: C_5  and  C_6
REMARK    3  A    between atoms: C_6  and  O_7
REMARK    4  A    between atoms: O_7  and  C_8
REMARK    5  A    between atoms: C_11  and  C_12
REMARK                            x       y       z     vdW  Elec       q    Type
REMARK                         _______ _______ _______ _____ _____    ______ ____
ROOT
ATOM      1  C   UNL     1      47.008   4.971  13.659  0.00  0.00    +0.000 A 
ATOM      2  C   UNL     1      46.614   3.650  13.433  0.00  0.00    +0.000 A 
ATOM      3  C   UNL     1      45.593   3.366  12.520  0.00  0.00    +0.000 A 
ATOM      4  C   UNL     1      44.950   4.398  11.833  0.00  0.00    +0.000 A 
ATOM      5  C   UNL     1      45.352   5.722  12.044  0.00  0.00    +0.000 A 
ATOM      6  C   UNL     1      46.378   6.001  12.956  0.00  0.00    +0.000 A 
ENDROOT
BRANCH   4   7
ATOM      7  C   UNL     1      43.865   4.031  10.884  0.00  0.00    +0.000 C 
ATOM      8  N   UNL     1      43.808   4.711   9.700  0.00  0.00    +0.000 N 
ATOM      9  O   UNL     1      43.026   3.186  11.164  0.00  0.00    +0.000 OA
ATOM     10  H   UNL     1      44.316   5.567   9.537  0.00  0.00    +0.000 HD
ATOM     11  H   UNL     1      42.992   4.532   9.127  0.00  0.00    +0.000 HD
ENDBRANCH   4   7
BRANCH   1  12
ATOM     12  O   UNL     1      47.988   5.373  14.530  0.00  0.00    +0.000 OA
BRANCH  12  13
ATOM     13  C   UNL     1      48.330   6.761  14.486  0.00  0.00    +0.000 C 
BRANCH  13  18
ATOM     14  C   UNL     1      47.624   8.563  18.824  0.00  0.00    +0.000 C 
ATOM     15  N   UNL     1      48.681   8.140  17.901  0.00  0.00    +0.000 NA
ATOM     16  C   UNL     1      48.562   6.702  17.624  0.00  0.00    +0.000 C 
ATOM     17  C   UNL     1      49.622   6.222  16.630  0.00  0.00    +0.000 C 
ATOM     18  C   UNL     1      49.591   7.028  15.325  0.00  0.00    +0.000 C 
ATOM     19  C   UNL     1      49.707   8.520  15.667  0.00  0.00    +0.000 C 
ATOM     20  C   UNL     1      48.650   8.961  16.686  0.00  0.00    +0.000 C 
ENDBRANCH  13  18
ENDBRANCH  12  13
ENDBRANCH   1  12
TORSDOF 4
ENDMDL
