MODEL 1
REMARK VINA RESULT:    -8.735      0.000      0.000
REMARK INTER + INTRA:         -13.512
REMARK INTER:                 -12.309
REMARK INTRA:                  -1.204
REMARK UNBOUND:                -1.204
REMARK  Name = 
REMARK  7 active torsions:
REMARK  status: ('A' for Active; 'I' for Inactive)
REMARK    1  A    between atoms: C_2  and  C_4
REMARK    2  A    between atoms: C_7  and  O_8
REMARK    3  A    between atoms: O_8  and  C_9
REMARK    4  A    between atoms: C_9  and  C_10
REMARK    5  A    between atoms: C_10  and  C_13
REMARK    6  A    between atoms: C_17  and  C_18
REMARK    7  A    between atoms: C_18  and  C_19
REMARK                            x       y       z     vdW  Elec       q    Type
REMARK                         _______ _______ _______ _____ _____    ______ ____
ROOT
ATOM      1  C   UNL     1      43.716   4.477  12.530  0.00  0.00    +0.000 C 
ATOM      2  F   UNL     1      42.805   5.174  13.268  0.00  0.00    +0.000 F 
ATOM      3  F   UNL     1      43.658   3.191  12.983  0.00  0.00    +0.000 F 
ENDROOT
BRANCH   1   4
ATOM      4  C   UNL     1      45.110   5.067  12.647  0.00  0.00    +0.000 A 
ATOM      5  C   UNL     1      45.606   5.932  11.663  0.00  0.00    +0.000 A 
ATOM      6  C   UNL     1      46.851   6.538  11.826  0.00  0.00    +0.000 A 
ATOM      7  C   UNL     1      47.602   6.299  12.980  0.00  0.00    +0.000 A 
ATOM      8  C   UNL     1      47.128   5.438  13.979  0.00  0.00    +0.000 A 
ATOM      9  C   UNL     1      45.886   4.816  13.794  0.00  0.00    +0.000 A 
BRANCH   8  10
ATOM     10  C   UNL     1      47.925   5.186  15.239  0.00  0.00    +0.000 C 
BRANCH  10  11
ATOM     11  C   UNL     1      47.215   4.188  16.146  0.00  0.00    +0.000 C 
ATOM     12  C   UNL     1      47.167   4.453  17.656  0.00  0.00    +0.000 C 
ATOM     13  O   UNL     1      47.843   3.210  17.949  0.00  0.00    +0.000 OA
ATOM     14  C   UNL     1      48.035   2.949  16.542  0.00  0.00    +0.000 C 
ENDBRANCH  10  11
ENDBRANCH   8  10
ENDBRANCH   1   4
BRANCH   1  15
ATOM     15  C   UNL     1      43.299   4.512  11.052  0.00  0.00    +0.000 C 
BRANCH  15  16
ATOM     16  O   UNL     1      43.420   3.221  10.443  0.00  0.00    +0.000 OA
BRANCH  16  20
ATOM     17  C   UNL     1      46.378   2.614   7.571  0.00  0.00    +0.000 A 
ATOM     18  C   UNL     1      45.837   3.897   7.706  0.00  0.00    +0.000 A 
ATOM     19  C   UNL     1      44.840   4.139   8.653  0.00  0.00    +0.000 A 
ATOM     20  C   UNL     1      44.374   3.104   9.468  0.00  0.00    +0.000 A 
ATOM     21  C   UNL     1      44.895   1.818   9.309  0.00  0.00    +0.000 A 
ATOM     22  C   UNL     1      45.889   1.569   8.360  0.00  0.00    +0.000 A 
BRANCH  17  24
ATOM     23  N   UNL     1      47.551   3.158   5.512  0.00  0.00    +0.000 N 
ATOM     24  C   UNL     1      47.459   2.328   6.593  0.00  0.00    +0.000 C 
ATOM     25  O   UNL     1      48.257   1.420   6.765  0.00  0.00    +0.000 OA
ATOM     26  H   UNL     1      48.364   3.029   4.923  0.00  0.00    +0.000 HD
ATOM     27  H   UNL     1      47.090   4.057   5.479  0.00  0.00    +0.000 HD
ENDBRANCH  17  24
ENDBRANCH  16  20
ENDBRANCH  15  16
ENDBRANCH   1  15
TORSDOF 7
ENDMDL
MODEL 2
REMARK VINA RESULT:    -8.576      0.493      1.115
REMARK INTER + INTRA:         -13.288
REMARK INTER:                 -12.119
REMARK INTRA:                  -1.169
REMARK UNBOUND:                -1.204
REMARK  Name = 
REMARK  7 active torsions:
REMARK  status: ('A' for Active; 'I' for Inactive)
REMARK    1  A    between atoms: C_2  and  C_4
REMARK    2  A    between atoms: C_7  and  O_8
REMARK    3  A    between atoms: O_8  and  C_9
REMARK    4  A    between atoms: C_9  and  C_10
REMARK    5  A    between atoms: C_10  and  C_13
REMARK    6  A    between atoms: C_17  and  C_18
REMARK    7  A    between atoms: C_18  and  C_19
REMARK                            x       y       z     vdW  Elec       q    Type
REMARK                         _______ _______ _______ _____ _____    ______ ____
ROOT
ATOM      1  C   UNL     1      43.636   4.644  12.372  0.00  0.00    +0.000 C 
ATOM      2  F   UNL     1      42.812   5.486  11.683  0.00  0.00    +0.000 F 
ATOM      3  F   UNL     1      43.049   4.460  13.589  0.00  0.00    +0.000 F 
ENDROOT
BRANCH   1   4
ATOM      4  C   UNL     1      45.044   5.200  12.488  0.00  0.00    +0.000 A 
ATOM      5  C   UNL     1      45.569   6.032  11.490  0.00  0.00    +0.000 A 
ATOM      6  C   UNL     1      46.829   6.608  11.651  0.00  0.00    +0.000 A 
ATOM      7  C   UNL     1      47.565   6.374  12.816  0.00  0.00    +0.000 A 
ATOM      8  C   UNL     1      47.061   5.545  13.828  0.00  0.00    +0.000 A 
ATOM      9  C   UNL     1      45.804   4.952  13.645  0.00  0.00    +0.000 A 
BRANCH   8  10
ATOM     10  C   UNL     1      47.841   5.298  15.099  0.00  0.00    +0.000 C 
BRANCH  10  11
ATOM     11  C   UNL     1      47.169   4.234  15.957  0.00  0.00    +0.000 C 
ATOM     12  C   UNL     1      47.167   4.394  17.483  0.00  0.00    +0.000 C 
ATOM     13  O   UNL     1      47.862   3.141  17.668  0.00  0.00    +0.000 OA
ATOM     14  C   UNL     1      48.010   2.978  16.240  0.00  0.00    +0.000 C 
ENDBRANCH  10  11
ENDBRANCH   8  10
ENDBRANCH   1   4
BRANCH   1  15
ATOM     15  C   UNL     1      43.707   3.297  11.636  0.00  0.00    +0.000 C 
BRANCH  15  16
ATOM     16  O   UNL     1      43.417   3.446  10.241  0.00  0.00    +0.000 OA
BRANCH  16  20
ATOM     17  C   UNL     1      46.420   2.547   7.495  0.00  0.00    +0.000 A 
ATOM     18  C   UNL     1      45.928   1.515   8.302  0.00  0.00    +0.000 A 
ATOM     19  C   UNL     1      44.926   1.777   9.238  0.00  0.00    +0.000 A 
ATOM     20  C   UNL     1      44.411   3.070   9.378  0.00  0.00    +0.000 A 
ATOM     21  C   UNL     1      44.927   4.102   8.592  0.00  0.00    +0.000 A 
ATOM     22  C   UNL     1      45.933   3.846   7.658  0.00  0.00    +0.000 A 
BRANCH  17  24
ATOM     23  N   UNL     1      47.469   3.117   5.377  0.00  0.00    +0.000 N 
ATOM     24  C   UNL     1      47.466   2.297   6.470  0.00  0.00    +0.000 C 
ATOM     25  O   UNL     1      48.311   1.428   6.613  0.00  0.00    +0.000 OA
ATOM     26  H   UNL     1      48.259   3.017   4.752  0.00  0.00    +0.000 HD
ATOM     27  H   UNL     1      46.967   3.994   5.358  0.00  0.00    +0.000 HD
ENDBRANCH  17  24
ENDBRANCH  16  20
ENDBRANCH  15  16
ENDBRANCH   1  15
TORSDOF 7
ENDMDL
MODEL 3
REMARK VINA RESULT:    -8.129      2.167      3.767
REMARK INTER + INTRA:         -12.659
REMARK INTER:                 -11.546
REMARK INTRA:                  -1.114
REMARK UNBOUND:                -1.204
REMARK  Name = 
REMARK  7 active torsions:
REMARK  status: ('A' for Active; 'I' for Inactive)
REMARK    1  A    between atoms: C_2  and  C_4
REMARK    2  A    between atoms: C_7  and  O_8
REMARK    3  A    between atoms: O_8  and  C_9
REMARK    4  A    between atoms: C_9  and  C_10
REMARK    5  A    between atoms: C_10  and  C_13
REMARK    6  A    between atoms: C_17  and  C_18
REMARK    7  A    between atoms: C_18  and  C_19
REMARK                            x       y       z     vdW  Elec       q    Type
REMARK                         _______ _______ _______ _____ _____    ______ ____
ROOT
ATOM      1  C   UNL     1      43.599   4.617  12.455  0.00  0.00    +0.000 C 
ATOM      2  F   UNL     1      42.607   5.359  13.026  0.00  0.00    +0.000 F 
ATOM      3  F   UNL     1      43.397   3.336  12.878  0.00  0.00    +0.000 F 
ENDROOT
BRANCH   1   4
ATOM      4  C   UNL     1      44.978   5.135  12.823  0.00  0.00    +0.000 A 
ATOM      5  C   UNL     1      45.820   4.394  13.662  0.00  0.00    +0.000 A 
ATOM      6  C   UNL     1      47.117   4.837  13.921  0.00  0.00    +0.000 A 
ATOM      7  C   UNL     1      47.588   6.012  13.329  0.00  0.00    +0.000 A 
ATOM      8  C   UNL     1      46.765   6.771  12.486  0.00  0.00    +0.000 A 
ATOM      9  C   UNL     1      45.456   6.329  12.252  0.00  0.00    +0.000 A 
BRANCH   8  10
ATOM     10  C   UNL     1      47.270   8.035  11.827  0.00  0.00    +0.000 C 
BRANCH  10  11
ATOM     11  C   UNL     1      46.729   9.273  12.531  0.00  0.00    +0.000 C 
ATOM     12  C   UNL     1      45.484   9.970  11.965  0.00  0.00    +0.000 C 
ATOM     13  O   UNL     1      46.198  11.214  11.785  0.00  0.00    +0.000 OA
ATOM     14  C   UNL     1      47.438  10.595  12.192  0.00  0.00    +0.000 C 
ENDBRANCH  10  11
ENDBRANCH   8  10
ENDBRANCH   1   4
BRANCH   1  15
ATOM     15  C   UNL     1      43.454   4.673  10.926  0.00  0.00    +0.000 C 
BRANCH  15  16
ATOM     16  O   UNL     1      43.425   3.360  10.354  0.00  0.00    +0.000 OA
BRANCH  16  20
ATOM     17  C   UNL     1      46.472   2.729   7.581  0.00  0.00    +0.000 A 
ATOM     18  C   UNL     1      45.941   1.620   8.248  0.00  0.00    +0.000 A 
ATOM     19  C   UNL     1      44.924   1.790   9.189  0.00  0.00    +0.000 A 
ATOM     20  C   UNL     1      44.431   3.068   9.472  0.00  0.00    +0.000 A 
ATOM     21  C   UNL     1      44.985   4.175   8.826  0.00  0.00    +0.000 A 
ATOM     22  C   UNL     1      46.006   4.010   7.888  0.00  0.00    +0.000 A 
BRANCH  17  24
ATOM     23  N   UNL     1      47.329   3.201   5.356  0.00  0.00    +0.000 N 
ATOM     24  C   UNL     1      47.536   2.580   6.555  0.00  0.00    +0.000 C 
ATOM     25  O   UNL     1      48.567   1.969   6.782  0.00  0.00    +0.000 OA
ATOM     26  H   UNL     1      48.113   3.196   4.715  0.00  0.00    +0.000 HD
ATOM     27  H   UNL     1      46.630   3.921   5.232  0.00  0.00    +0.000 HD
ENDBRANCH  17  24
ENDBRANCH  16  20
ENDBRANCH  15  16
ENDBRANCH   1  15
TORSDOF 7
ENDMDL
MODEL 4
REMARK VINA RESULT:    -8.078      2.224      3.485
REMARK INTER + INTRA:         -12.587
REMARK INTER:                 -11.547
REMARK INTRA:                  -1.039
REMARK UNBOUND:                -1.204
REMARK  Name = 
REMARK  7 active torsions:
REMARK  status: ('A' for Active; 'I' for Inactive)
REMARK    1  A    between atoms: C_2  and  C_4
REMARK    2  A    between atoms: C_7  and  O_8
REMARK    3  A    between atoms: O_8  and  C_9
REMARK    4  A    between atoms: C_9  and  C_10
REMARK    5  A    between atoms: C_10  and  C_13
REMARK    6  A    between atoms: C_17  and  C_18
REMARK    7  A    between atoms: C_18  and  C_19
REMARK                            x       y       z     vdW  Elec       q    Type
REMARK                         _______ _______ _______ _____ _____    ______ ____
ROOT
ATOM      1  C   UNL     1      43.616   4.773  12.371  0.00  0.00    +0.000 C 
ATOM      2  F   UNL     1      42.635   5.573  12.878  0.00  0.00    +0.000 F 
ATOM      3  F   UNL     1      43.333   3.512  12.810  0.00  0.00    +0.000 F 
ENDROOT
BRANCH   1   4
ATOM      4  C   UNL     1      44.999   5.234  12.793  0.00  0.00    +0.000 A 
ATOM      5  C   UNL     1      45.778   4.458  13.662  0.00  0.00    +0.000 A 
ATOM      6  C   UNL     1      47.080   4.847  13.971  0.00  0.00    +0.000 A 
ATOM      7  C   UNL     1      47.621   6.003  13.402  0.00  0.00    +0.000 A 
ATOM      8  C   UNL     1      46.862   6.796  12.531  0.00  0.00    +0.000 A 
ATOM      9  C   UNL     1      45.547   6.408  12.245  0.00  0.00    +0.000 A 
BRANCH   8  10
ATOM     10  C   UNL     1      47.444   8.040  11.896  0.00  0.00    +0.000 C 
BRANCH  10  11
ATOM     11  C   UNL     1      48.877   8.272  12.358  0.00  0.00    +0.000 C 
ATOM     12  C   UNL     1      49.498   9.665  12.195  0.00  0.00    +0.000 C 
ATOM     13  O   UNL     1      50.565   9.151  11.368  0.00  0.00    +0.000 OA
ATOM     14  C   UNL     1      49.973   7.833  11.373  0.00  0.00    +0.000 C 
ENDBRANCH  10  11
ENDBRANCH   8  10
ENDBRANCH   1   4
BRANCH   1  15
ATOM     15  C   UNL     1      43.545   4.801  10.836  0.00  0.00    +0.000 C 
BRANCH  15  16
ATOM     16  O   UNL     1      43.443   3.480  10.292  0.00  0.00    +0.000 OA
BRANCH  16  20
ATOM     17  C   UNL     1      46.443   2.607   7.534  0.00  0.00    +0.000 A 
ATOM     18  C   UNL     1      45.938   1.564   8.317  0.00  0.00    +0.000 A 
ATOM     19  C   UNL     1      44.937   1.817   9.257  0.00  0.00    +0.000 A 
ATOM     20  C   UNL     1      44.435   3.111   9.423  0.00  0.00    +0.000 A 
ATOM     21  C   UNL     1      44.964   4.155   8.659  0.00  0.00    +0.000 A 
ATOM     22  C   UNL     1      45.969   3.907   7.722  0.00  0.00    +0.000 A 
BRANCH  17  24
ATOM     23  N   UNL     1      47.514   3.221   5.439  0.00  0.00    +0.000 N 
ATOM     24  C   UNL     1      47.489   2.367   6.505  0.00  0.00    +0.000 C 
ATOM     25  O   UNL     1      48.315   1.477   6.625  0.00  0.00    +0.000 OA
ATOM     26  H   UNL     1      48.304   3.124   4.814  0.00  0.00    +0.000 HD
ATOM     27  H   UNL     1      47.030   4.108   5.444  0.00  0.00    +0.000 HD
ENDBRANCH  17  24
ENDBRANCH  16  20
ENDBRANCH  15  16
ENDBRANCH   1  15
TORSDOF 7
ENDMDL
MODEL 5
REMARK VINA RESULT:    -7.747      1.891      2.460
REMARK INTER + INTRA:         -12.121
REMARK INTER:                 -11.196
REMARK INTRA:                  -0.925
REMARK UNBOUND:                -1.204
REMARK  Name = 
REMARK  7 active torsions:
REMARK  status: ('A' for Active; 'I' for Inactive)
REMARK    1  A    between atoms: C_2  and  C_4
REMARK    2  A    between atoms: C_7  and  O_8
REMARK    3  A    between atoms: O_8  and  C_9
REMARK    4  A    between atoms: C_9  and  C_10
REMARK    5  A    between atoms: C_10  and  C_13
REMARK    6  A    between atoms: C_17  and  C_18
REMARK    7  A    between atoms: C_18  and  C_19
REMARK                            x       y       z     vdW  Elec       q    Type
REMARK                         _______ _______ _______ _____ _____    ______ ____
ROOT
ATOM      1  C   UNL     1      44.141   5.446  12.143  0.00  0.00    +0.000 C 
ATOM      2  F   UNL     1      43.197   5.329  13.121  0.00  0.00    +0.000 F 
ATOM      3  F   UNL     1      45.025   4.429  12.353  0.00  0.00    +0.000 F 
ENDROOT
BRANCH   1   4
ATOM      4  C   UNL     1      44.811   6.807  12.163  0.00  0.00    +0.000 A 
ATOM      5  C   UNL     1      44.267   7.884  11.449  0.00  0.00    +0.000 A 
ATOM      6  C   UNL     1      44.841   9.151  11.548  0.00  0.00    +0.000 A 
ATOM      7  C   UNL     1      45.951   9.357  12.372  0.00  0.00    +0.000 A 
ATOM      8  C   UNL     1      46.514   8.296  13.095  0.00  0.00    +0.000 A 
ATOM      9  C   UNL     1      45.943   7.022  12.970  0.00  0.00    +0.000 A 
BRANCH   8  10
ATOM     10  C   UNL     1      47.704   8.511  14.003  0.00  0.00    +0.000 C 
BRANCH  10  11
ATOM     11  C   UNL     1      48.572   7.261  14.073  0.00  0.00    +0.000 C 
ATOM     12  C   UNL     1      48.691   6.508  15.405  0.00  0.00    +0.000 C 
ATOM     13  O   UNL     1      50.125   6.684  15.437  0.00  0.00    +0.000 OA
ATOM     14  C   UNL     1      50.080   7.507  14.250  0.00  0.00    +0.000 C 
ENDBRANCH  10  11
ENDBRANCH   8  10
ENDBRANCH   1   4
BRANCH   1  15
ATOM     15  C   UNL     1      43.470   5.257  10.773  0.00  0.00    +0.000 C 
BRANCH  15  16
ATOM     16  O   UNL     1      43.462   3.880  10.379  0.00  0.00    +0.000 OA
BRANCH  16  20
ATOM     17  C   UNL     1      46.396   2.489   7.766  0.00  0.00    +0.000 A 
ATOM     18  C   UNL     1      46.155   3.866   7.822  0.00  0.00    +0.000 A 
ATOM     19  C   UNL     1      45.176   4.371   8.680  0.00  0.00    +0.000 A 
ATOM     20  C   UNL     1      44.430   3.506   9.486  0.00  0.00    +0.000 A 
ATOM     21  C   UNL     1      44.653   2.130   9.405  0.00  0.00    +0.000 A 
ATOM     22  C   UNL     1      45.628   1.620   8.544  0.00  0.00    +0.000 A 
BRANCH  17  24
ATOM     23  N   UNL     1      48.449   2.766   6.493  0.00  0.00    +0.000 N 
ATOM     24  C   UNL     1      47.449   1.922   6.885  0.00  0.00    +0.000 C 
ATOM     25  O   UNL     1      47.448   0.746   6.559  0.00  0.00    +0.000 OA
ATOM     26  H   UNL     1      49.221   2.337   5.999  0.00  0.00    +0.000 HD
ATOM     27  H   UNL     1      48.622   3.650   6.952  0.00  0.00    +0.000 HD
ENDBRANCH  17  24
ENDBRANCH  16  20
ENDBRANCH  15  16
ENDBRANCH   1  15
TORSDOF 7
ENDMDL
MODEL 6
REMARK VINA RESULT:    -7.207      2.878      7.644
REMARK INTER + INTRA:         -11.360
REMARK INTER:                 -10.730
REMARK INTRA:                  -0.630
REMARK UNBOUND:                -1.204
REMARK  Name = 
REMARK  7 active torsions:
REMARK  status: ('A' for Active; 'I' for Inactive)
REMARK    1  A    between atoms: C_2  and  C_4
REMARK    2  A    between atoms: C_7  and  O_8
REMARK    3  A    between atoms: O_8  and  C_9
REMARK    4  A    between atoms: C_9  and  C_10
REMARK    5  A    between atoms: C_10  and  C_13
REMARK    6  A    between atoms: C_17  and  C_18
REMARK    7  A    between atoms: C_18  and  C_19
REMARK                            x       y       z     vdW  Elec       q    Type
REMARK                         _______ _______ _______ _____ _____    ______ ____
ROOT
ATOM      1  C   UNL     1      44.319   5.931  11.541  0.00  0.00    +0.000 C 
ATOM      2  F   UNL     1      43.820   5.575  12.760  0.00  0.00    +0.000 F 
ATOM      3  F   UNL     1      43.395   6.768  10.989  0.00  0.00    +0.000 F 
ENDROOT
BRANCH   1   4
ATOM      4  C   UNL     1      44.597   4.721  10.667  0.00  0.00    +0.000 A 
ATOM      5  C   UNL     1      43.995   3.486  10.943  0.00  0.00    +0.000 A 
ATOM      6  C   UNL     1      44.186   2.406  10.082  0.00  0.00    +0.000 A 
ATOM      7  C   UNL     1      44.964   2.555   8.930  0.00  0.00    +0.000 A 
ATOM      8  C   UNL     1      45.577   3.780   8.633  0.00  0.00    +0.000 A 
ATOM      9  C   UNL     1      45.397   4.852   9.518  0.00  0.00    +0.000 A 
BRANCH   8  10
ATOM     10  C   UNL     1      46.407   3.957   7.381  0.00  0.00    +0.000 C 
BRANCH  10  11
ATOM     11  C   UNL     1      46.583   2.633   6.649  0.00  0.00    +0.000 C 
ATOM     12  C   UNL     1      47.743   1.710   7.043  0.00  0.00    +0.000 C 
ATOM     13  O   UNL     1      48.295   1.746   5.708  0.00  0.00    +0.000 OA
ATOM     14  C   UNL     1      47.305   2.713   5.294  0.00  0.00    +0.000 C 
ENDBRANCH  10  11
ENDBRANCH   8  10
ENDBRANCH   1   4
BRANCH   1  15
ATOM     15  C   UNL     1      45.638   6.695  11.741  0.00  0.00    +0.000 C 
BRANCH  15  16
ATOM     16  O   UNL     1      46.738   5.799  11.938  0.00  0.00    +0.000 OA
BRANCH  16  20
ATOM     17  C   UNL     1      47.818   5.080  15.898  0.00  0.00    +0.000 A 
ATOM     18  C   UNL     1      48.286   6.246  15.284  0.00  0.00    +0.000 A 
ATOM     19  C   UNL     1      47.951   6.520  13.956  0.00  0.00    +0.000 A 
ATOM     20  C   UNL     1      47.150   5.632  13.232  0.00  0.00    +0.000 A 
ATOM     21  C   UNL     1      46.710   4.454  13.841  0.00  0.00    +0.000 A 
ATOM     22  C   UNL     1      47.047   4.173  15.167  0.00  0.00    +0.000 A 
BRANCH  17  24
ATOM     23  N   UNL     1      49.399   4.338  17.590  0.00  0.00    +0.000 N 
ATOM     24  C   UNL     1      48.132   4.772  17.317  0.00  0.00    +0.000 C 
ATOM     25  O   UNL     1      47.314   4.937  18.207  0.00  0.00    +0.000 OA
ATOM     26  H   UNL     1      49.635   4.252  18.570  0.00  0.00    +0.000 HD
ATOM     27  H   UNL     1      50.161   4.445  16.934  0.00  0.00    +0.000 HD
ENDBRANCH  17  24
ENDBRANCH  16  20
ENDBRANCH  15  16
ENDBRANCH   1  15
TORSDOF 7
ENDMDL
MODEL 7
REMARK VINA RESULT:    -6.975      3.729      7.487
REMARK INTER + INTRA:         -11.033
REMARK INTER:                 -10.159
REMARK INTRA:                  -0.873
REMARK UNBOUND:                -1.204
REMARK  Name = 
REMARK  7 active torsions:
REMARK  status: ('A' for Active; 'I' for Inactive)
REMARK    1  A    between atoms: C_2  and  C_4
REMARK    2  A    between atoms: C_7  and  O_8
REMARK    3  A    between atoms: O_8  and  C_9
REMARK    4  A    between atoms: C_9  and  C_10
REMARK    5  A    between atoms: C_10  and  C_13
REMARK    6  A    between atoms: C_17  and  C_18
REMARK    7  A    between atoms: C_18  and  C_19
REMARK                            x       y       z     vdW  Elec       q    Type
REMARK                         _______ _______ _______ _____ _____    ______ ____
ROOT
ATOM      1  C   UNL     1      43.852   5.768  11.407  0.00  0.00    +0.000 C 
ATOM      2  F   UNL     1      43.769   5.487  12.739  0.00  0.00    +0.000 F 
ATOM      3  F   UNL     1      42.609   6.193  11.037  0.00  0.00    +0.000 F 
ENDROOT
BRANCH   1   4
ATOM      4  C   UNL     1      44.314   4.567  10.602  0.00  0.00    +0.000 A 
ATOM      5  C   UNL     1      43.812   3.287  10.874  0.00  0.00    +0.000 A 
ATOM      6  C   UNL     1      44.176   2.207  10.070  0.00  0.00    +0.000 A 
ATOM      7  C   UNL     1      45.028   2.399   8.979  0.00  0.00    +0.000 A 
ATOM      8  C   UNL     1      45.543   3.670   8.687  0.00  0.00    +0.000 A 
ATOM      9  C   UNL     1      45.190   4.743   9.515  0.00  0.00    +0.000 A 
BRANCH   8  10
ATOM     10  C   UNL     1      46.452   3.892   7.499  0.00  0.00    +0.000 C 
BRANCH  10  11
ATOM     11  C   UNL     1      46.645   2.604   6.708  0.00  0.00    +0.000 C 
ATOM     12  C   UNL     1      47.907   1.764   6.944  0.00  0.00    +0.000 C 
ATOM     13  O   UNL     1      48.304   1.876   5.560  0.00  0.00    +0.000 OA
ATOM     14  C   UNL     1      47.206   2.773   5.286  0.00  0.00    +0.000 C 
ENDBRANCH  10  11
ENDBRANCH   8  10
ENDBRANCH   1   4
BRANCH   1  15
ATOM     15  C   UNL     1      44.859   6.909  11.195  0.00  0.00    +0.000 C 
BRANCH  15  16
ATOM     16  O   UNL     1      45.271   7.482  12.441  0.00  0.00    +0.000 OA
BRANCH  16  20
ATOM     17  C   UNL     1      49.309   8.303  13.069  0.00  0.00    +0.000 A 
ATOM     18  C   UNL     1      48.966   7.370  12.084  0.00  0.00    +0.000 A 
ATOM     19  C   UNL     1      47.625   7.063  11.848  0.00  0.00    +0.000 A 
ATOM     20  C   UNL     1      46.617   7.682  12.594  0.00  0.00    +0.000 A 
ATOM     21  C   UNL     1      46.965   8.591  13.596  0.00  0.00    +0.000 A 
ATOM     22  C   UNL     1      48.305   8.897  13.839  0.00  0.00    +0.000 A 
BRANCH  17  24
ATOM     23  N   UNL     1      51.470   7.794  14.060  0.00  0.00    +0.000 N 
ATOM     24  C   UNL     1      50.724   8.674  13.327  0.00  0.00    +0.000 C 
ATOM     25  O   UNL     1      51.214   9.694  12.872  0.00  0.00    +0.000 OA
ATOM     26  H   UNL     1      52.459   7.998  14.121  0.00  0.00    +0.000 HD
ATOM     27  H   UNL     1      51.179   6.839  14.218  0.00  0.00    +0.000 HD
ENDBRANCH  17  24
ENDBRANCH  16  20
ENDBRANCH  15  16
ENDBRANCH   1  15
TORSDOF 7
ENDMDL
MODEL 8
REMARK VINA RESULT:    -6.672      3.155      7.583
REMARK INTER + INTRA:         -10.606
REMARK INTER:                  -9.740
REMARK INTRA:                  -0.866
REMARK UNBOUND:                -1.204
REMARK  Name = 
REMARK  7 active torsions:
REMARK  status: ('A' for Active; 'I' for Inactive)
REMARK    1  A    between atoms: C_2  and  C_4
REMARK    2  A    between atoms: C_7  and  O_8
REMARK    3  A    between atoms: O_8  and  C_9
REMARK    4  A    between atoms: C_9  and  C_10
REMARK    5  A    between atoms: C_10  and  C_13
REMARK    6  A    between atoms: C_17  and  C_18
REMARK    7  A    between atoms: C_18  and  C_19
REMARK                            x       y       z     vdW  Elec       q    Type
REMARK                         _______ _______ _______ _____ _____    ______ ____
ROOT
ATOM      1  C   UNL     1      43.827   4.075  12.310  0.00  0.00    +0.000 C 
ATOM      2  F   UNL     1      43.756   2.718  12.435  0.00  0.00    +0.000 F 
ATOM      3  F   UNL     1      42.537   4.519  12.341  0.00  0.00    +0.000 F 
ENDROOT
BRANCH   1   4
ATOM      4  C   UNL     1      44.550   4.490  11.042  0.00  0.00    +0.000 A 
ATOM      5  C   UNL     1      45.214   5.722  10.968  0.00  0.00    +0.000 A 
ATOM      6  C   UNL     1      45.949   6.053   9.830  0.00  0.00    +0.000 A 
ATOM      7  C   UNL     1      46.044   5.151   8.768  0.00  0.00    +0.000 A 
ATOM      8  C   UNL     1      45.389   3.913   8.818  0.00  0.00    +0.000 A 
ATOM      9  C   UNL     1      44.632   3.600   9.955  0.00  0.00    +0.000 A 
BRANCH   8  10
ATOM     10  C   UNL     1      45.498   2.922   7.680  0.00  0.00    +0.000 C 
BRANCH  10  11
ATOM     11  C   UNL     1      46.939   2.793   7.203  0.00  0.00    +0.000 C 
ATOM     12  C   UNL     1      47.220   2.682   5.699  0.00  0.00    +0.000 C 
ATOM     13  O   UNL     1      47.872   1.403   5.861  0.00  0.00    +0.000 OA
ATOM     14  C   UNL     1      47.536   1.377   7.266  0.00  0.00    +0.000 C 
ENDBRANCH  10  11
ENDBRANCH   8  10
ENDBRANCH   1   4
BRANCH   1  15
ATOM     15  C   UNL     1      44.589   4.652  13.513  0.00  0.00    +0.000 C 
BRANCH  15  16
ATOM     16  O   UNL     1      45.862   4.016  13.680  0.00  0.00    +0.000 OA
BRANCH  16  20
ATOM     17  C   UNL     1      48.704   6.095  15.910  0.00  0.00    +0.000 A 
ATOM     18  C   UNL     1      48.402   6.556  14.624  0.00  0.00    +0.000 A 
ATOM     19  C   UNL     1      47.460   5.883  13.843  0.00  0.00    +0.000 A 
ATOM     20  C   UNL     1      46.815   4.746  14.338  0.00  0.00    +0.000 A 
ATOM     21  C   UNL     1      47.142   4.271  15.611  0.00  0.00    +0.000 A 
ATOM     22  C   UNL     1      48.087   4.938  16.394  0.00  0.00    +0.000 A 
BRANCH  17  24
ATOM     23  N   UNL     1      50.010   6.198  17.958  0.00  0.00    +0.000 N 
ATOM     24  C   UNL     1      49.680   6.802  16.778  0.00  0.00    +0.000 C 
ATOM     25  O   UNL     1      50.198   7.853  16.437  0.00  0.00    +0.000 OA
ATOM     26  H   UNL     1      50.766   6.626  18.477  0.00  0.00    +0.000 HD
ATOM     27  H   UNL     1      49.811   5.224  18.141  0.00  0.00    +0.000 HD
ENDBRANCH  17  24
ENDBRANCH  16  20
ENDBRANCH  15  16
ENDBRANCH   1  15
TORSDOF 7
ENDMDL
MODEL 9
REMARK VINA RESULT:    -6.367      4.386      7.479
REMARK INTER + INTRA:         -10.175
REMARK INTER:                  -8.880
REMARK INTRA:                  -1.295
REMARK UNBOUND:                -1.204
REMARK  Name = 
REMARK  7 active torsions:
REMARK  status: ('A' for Active; 'I' for Inactive)
REMARK    1  A    between atoms: C_2  and  C_4
REMARK    2  A    between atoms: C_7  and  O_8
REMARK    3  A    between atoms: O_8  and  C_9
REMARK    4  A    between atoms: C_9  and  C_10
REMARK    5  A    between atoms: C_10  and  C_13
REMARK    6  A    between atoms: C_17  and  C_18
REMARK    7  A    between atoms: C_18  and  C_19
REMARK                            x       y       z     vdW  Elec       q    Type
REMARK                         _______ _______ _______ _____ _____    ______ ____
ROOT
ATOM      1  C   UNL     1      48.863   7.904  11.887  0.00  0.00    +0.000 C 
ATOM      2  F   UNL     1      49.263   9.202  12.023  0.00  0.00    +0.000 F 
ATOM      3  F   UNL     1      49.441   7.455  10.736  0.00  0.00    +0.000 F 
ENDROOT
BRANCH   1   4
ATOM      4  C   UNL     1      47.351   7.777  11.861  0.00  0.00    +0.000 A 
ATOM      5  C   UNL     1      46.535   8.861  12.212  0.00  0.00    +0.000 A 
ATOM      6  C   UNL     1      45.149   8.760  12.099  0.00  0.00    +0.000 A 
ATOM      7  C   UNL     1      44.568   7.583  11.617  0.00  0.00    +0.000 A 
ATOM      8  C   UNL     1      45.362   6.485  11.261  0.00  0.00    +0.000 A 
ATOM      9  C   UNL     1      46.753   6.590  11.401  0.00  0.00    +0.000 A 
BRANCH   8  10
ATOM     10  C   UNL     1      44.745   5.213  10.723  0.00  0.00    +0.000 C 
BRANCH  10  11
ATOM     11  C   UNL     1      43.691   4.670  11.679  0.00  0.00    +0.000 C 
ATOM     12  C   UNL     1      44.105   4.280  13.104  0.00  0.00    +0.000 C 
ATOM     13  O   UNL     1      43.664   2.917  12.916  0.00  0.00    +0.000 OA
ATOM     14  C   UNL     1      43.362   3.175  11.527  0.00  0.00    +0.000 C 
ENDBRANCH  10  11
ENDBRANCH   8  10
ENDBRANCH   1   4
BRANCH   1  15
ATOM     15  C   UNL     1      49.397   7.086  13.073  0.00  0.00    +0.000 C 
BRANCH  15  16
ATOM     16  O   UNL     1      48.761   7.464  14.299  0.00  0.00    +0.000 OA
BRANCH  16  20
ATOM     17  C   UNL     1      47.935   4.332  16.921  0.00  0.00    +0.000 A 
ATOM     18  C   UNL     1      48.932   5.247  17.274  0.00  0.00    +0.000 A 
ATOM     19  C   UNL     1      49.243   6.307  16.419  0.00  0.00    +0.000 A 
ATOM     20  C   UNL     1      48.562   6.459  15.207  0.00  0.00    +0.000 A 
ATOM     21  C   UNL     1      47.588   5.525  14.846  0.00  0.00    +0.000 A 
ATOM     22  C   UNL     1      47.278   4.461  15.695  0.00  0.00    +0.000 A 
BRANCH  17  24
ATOM     23  N   UNL     1      48.348   3.008  18.918  0.00  0.00    +0.000 N 
ATOM     24  C   UNL     1      47.560   3.209  17.820  0.00  0.00    +0.000 C 
ATOM     25  O   UNL     1      46.572   2.523  17.614  0.00  0.00    +0.000 OA
ATOM     26  H   UNL     1      48.010   2.324  19.584  0.00  0.00    +0.000 HD
ATOM     27  H   UNL     1      48.996   3.706  19.255  0.00  0.00    +0.000 HD
ENDBRANCH  17  24
ENDBRANCH  16  20
ENDBRANCH  15  16
ENDBRANCH   1  15
TORSDOF 7
ENDMDL
