MODEL 1
REMARK VINA RESULT:    -7.285      0.000      0.000
REMARK INTER + INTRA:          -9.799
REMARK INTER:                  -8.988
REMARK INTRA:                  -0.811
REMARK UNBOUND:                -0.811
REMARK  Name = 
REMARK  6 active torsions:
REMARK  status: ('A' for Active; 'I' for Inactive)
REMARK    1  A    between atoms: C_1  and  C_2
REMARK    2  A    between atoms: C_2  and  C_3
REMARK    3  A    between atoms: C_2  and  C_4
REMARK    4  A    between atoms: C_2  and  C_18
REMARK    5  A    between atoms: C_4  and  N_5
REMARK    6  A    between atoms: C_10  and  C_11
REMARK                            x       y       z     vdW  Elec       q    Type
REMARK                         _______ _______ _______ _____ _____    ______ ____
ROOT
ATOM      1  N   UNL     1      45.725   6.863  13.304  0.00  0.00    +0.000 N 
ATOM      2  C   UNL     1      44.879   6.034  12.593  0.00  0.00    +0.000 A 
ATOM      3  N   UNL     1      43.623   5.949  13.051  0.00  0.00    +0.000 NA
ATOM      4  C   UNL     1      42.811   5.079  12.432  0.00  0.00    +0.000 A 
ATOM      5  C   UNL     1      43.185   4.334  11.345  0.00  0.00    +0.000 A 
ATOM      6  C   UNL     1      44.479   4.515  10.897  0.00  0.00    +0.000 A 
ATOM      7  N   UNL     1      45.332   5.343  11.542  0.00  0.00    +0.000 NA
ATOM      8  H   UNL     1      45.189   7.694  13.548  0.00  0.00    +0.000 HD
ENDROOT
BRANCH   6   9
ATOM      9  C   UNL     1      45.034   3.822   9.724  0.00  0.00    +0.000 A 
ATOM     10  C   UNL     1      45.046   2.425   9.585  0.00  0.00    +0.000 A 
ATOM     11  C   UNL     1      45.597   1.827   8.451  0.00  0.00    +0.000 A 
ATOM     12  C   UNL     1      46.123   2.643   7.465  0.00  0.00    +0.000 A 
ATOM     13  N   UNL     1      46.124   3.988   7.537  0.00  0.00    +0.000 NA
ATOM     14  C   UNL     1      45.577   4.538   8.653  0.00  0.00    +0.000 A 
ENDBRANCH   6   9
BRANCH   1  15
ATOM     15  C   UNL     1      47.010   7.183  12.694  0.00  0.00    +0.000 C 
BRANCH  15  17
ATOM     16  C   UNL     1      49.512   7.325  13.076  0.00  0.00    +0.000 C 
ATOM     17  C   UNL     1      48.132   7.336  13.771  0.00  0.00    +0.000 C 
ATOM     18  C   UNL     1      47.926   8.709  14.449  0.00  0.00    +0.000 C 
BRANCH  17  19
ATOM     19  C   UNL     1      48.079   6.221  14.829  0.00  0.00    +0.000 A 
ATOM     20  C   UNL     1      48.639   6.402  16.096  0.00  0.00    +0.000 A 
ATOM     21  C   UNL     1      48.627   5.350  17.008  0.00  0.00    +0.000 A 
ATOM     22  C   UNL     1      48.054   4.139  16.644  0.00  0.00    +0.000 A 
ATOM     23  C   UNL     1      47.508   4.035  15.380  0.00  0.00    +0.000 A 
ATOM     24  N   UNL     1      47.509   5.041  14.477  0.00  0.00    +0.000 NA
ENDBRANCH  17  19
ENDBRANCH  15  17
ENDBRANCH   1  15
TORSDOF 4
ENDMDL
MODEL 2
REMARK VINA RESULT:    -7.203      1.285      7.315
REMARK INTER + INTRA:          -9.698
REMARK INTER:                  -8.801
REMARK INTRA:                  -0.897
REMARK UNBOUND:                -0.811
REMARK  Name = 
REMARK  6 active torsions:
REMARK  status: ('A' for Active; 'I' for Inactive)
REMARK    1  A    between atoms: C_1  and  C_2
REMARK    2  A    between atoms: C_2  and  C_3
REMARK    3  A    between atoms: C_2  and  C_4
REMARK    4  A    between atoms: C_2  and  C_18
REMARK    5  A    between atoms: C_4  and  N_5
REMARK    6  A    between atoms: C_10  and  C_11
REMARK                            x       y       z     vdW  Elec       q    Type
REMARK                         _______ _______ _______ _____ _____    ______ ____
ROOT
ATOM      1  N   UNL     1      46.058   5.458  11.712  0.00  0.00    +0.000 N 
ATOM      2  C   UNL     1      46.840   5.983  12.723  0.00  0.00    +0.000 A 
ATOM      3  N   UNL     1      47.395   7.176  12.473  0.00  0.00    +0.000 NA
ATOM      4  C   UNL     1      48.232   7.661  13.402  0.00  0.00    +0.000 A 
ATOM      5  C   UNL     1      48.494   7.032  14.590  0.00  0.00    +0.000 A 
ATOM      6  C   UNL     1      47.844   5.832  14.800  0.00  0.00    +0.000 A 
ATOM      7  N   UNL     1      47.041   5.296  13.853  0.00  0.00    +0.000 NA
ATOM      8  H   UNL     1      45.515   6.229  11.328  0.00  0.00    +0.000 HD
ENDROOT
BRANCH   6   9
ATOM      9  C   UNL     1      47.982   5.041  16.034  0.00  0.00    +0.000 A 
ATOM     10  C   UNL     1      48.964   5.290  17.005  0.00  0.00    +0.000 A 
ATOM     11  C   UNL     1      49.050   4.497  18.150  0.00  0.00    +0.000 A 
ATOM     12  C   UNL     1      48.141   3.467  18.307  0.00  0.00    +0.000 A 
ATOM     13  N   UNL     1      47.169   3.191  17.417  0.00  0.00    +0.000 NA
ATOM     14  C   UNL     1      47.111   3.984  16.315  0.00  0.00    +0.000 A 
ENDBRANCH   6   9
BRANCH   1  15
ATOM     15  C   UNL     1      45.235   4.301  12.042  0.00  0.00    +0.000 C 
BRANCH  15  17
ATOM     16  C   UNL     1      43.325   2.796  11.325  0.00  0.00    +0.000 C 
ATOM     17  C   UNL     1      44.258   3.944  10.876  0.00  0.00    +0.000 C 
ATOM     18  C   UNL     1      43.402   5.201  10.602  0.00  0.00    +0.000 C 
BRANCH  17  19
ATOM     19  C   UNL     1      45.003   3.533   9.597  0.00  0.00    +0.000 A 
ATOM     20  C   UNL     1      45.224   2.188   9.291  0.00  0.00    +0.000 A 
ATOM     21  C   UNL     1      45.955   1.853   8.154  0.00  0.00    +0.000 A 
ATOM     22  C   UNL     1      46.450   2.862   7.340  0.00  0.00    +0.000 A 
ATOM     23  C   UNL     1      46.183   4.169   7.696  0.00  0.00    +0.000 A 
ATOM     24  N   UNL     1      45.477   4.520   8.794  0.00  0.00    +0.000 NA
ENDBRANCH  17  19
ENDBRANCH  15  17
ENDBRANCH   1  15
TORSDOF 4
ENDMDL
MODEL 3
REMARK VINA RESULT:    -6.945      1.636      3.420
REMARK INTER + INTRA:          -9.380
REMARK INTER:                  -8.465
REMARK INTRA:                  -0.914
REMARK UNBOUND:                -0.811
REMARK  Name = 
REMARK  6 active torsions:
REMARK  status: ('A' for Active; 'I' for Inactive)
REMARK    1  A    between atoms: C_1  and  C_2
REMARK    2  A    between atoms: C_2  and  C_3
REMARK    3  A    between atoms: C_2  and  C_4
REMARK    4  A    between atoms: C_2  and  C_18
REMARK    5  A    between atoms: C_4  and  N_5
REMARK    6  A    between atoms: C_10  and  C_11
REMARK                            x       y       z     vdW  Elec       q    Type
REMARK                         _______ _______ _______ _____ _____    ______ ____
ROOT
ATOM      1  N   UNL     1      46.193   6.151  13.639  0.00  0.00    +0.000 N 
ATOM      2  C   UNL     1      45.247   5.557  12.826  0.00  0.00    +0.000 A 
ATOM      3  N   UNL     1      43.983   5.604  13.269  0.00  0.00    +0.000 NA
ATOM      4  C   UNL     1      43.063   4.953  12.543  0.00  0.00    +0.000 A 
ATOM      5  C   UNL     1      43.342   4.307  11.368  0.00  0.00    +0.000 A 
ATOM      6  C   UNL     1      44.657   4.347  10.947  0.00  0.00    +0.000 A 
ATOM      7  N   UNL     1      45.611   4.947  11.693  0.00  0.00    +0.000 NA
ATOM      8  H   UNL     1      45.782   7.014  13.989  0.00  0.00    +0.000 HD
ENDROOT
BRANCH   6   9
ATOM      9  C   UNL     1      45.125   3.735   9.693  0.00  0.00    +0.000 A 
ATOM     10  C   UNL     1      45.156   2.349   9.474  0.00  0.00    +0.000 A 
ATOM     11  C   UNL     1      45.621   1.830   8.265  0.00  0.00    +0.000 A 
ATOM     12  C   UNL     1      46.042   2.713   7.287  0.00  0.00    +0.000 A 
ATOM     13  N   UNL     1      46.020   4.051   7.435  0.00  0.00    +0.000 NA
ATOM     14  C   UNL     1      45.558   4.524   8.623  0.00  0.00    +0.000 A 
ENDBRANCH   6   9
BRANCH   1  15
ATOM     15  C   UNL     1      47.523   6.349  13.076  0.00  0.00    +0.000 C 
BRANCH  15  17
ATOM     16  C   UNL     1      47.985   7.997  14.946  0.00  0.00    +0.000 C 
ATOM     17  C   UNL     1      48.084   7.766  13.421  0.00  0.00    +0.000 C 
ATOM     18  C   UNL     1      49.574   7.775  13.011  0.00  0.00    +0.000 C 
BRANCH  17  19
ATOM     19  C   UNL     1      47.334   8.885  12.680  0.00  0.00    +0.000 A 
ATOM     20  C   UNL     1      48.026   9.874  11.977  0.00  0.00    +0.000 A 
ATOM     21  C   UNL     1      47.317  10.907  11.369  0.00  0.00    +0.000 A 
ATOM     22  C   UNL     1      45.933  10.935  11.468  0.00  0.00    +0.000 A 
ATOM     23  C   UNL     1      45.314   9.919  12.168  0.00  0.00    +0.000 A 
ATOM     24  N   UNL     1      45.980   8.907  12.769  0.00  0.00    +0.000 NA
ENDBRANCH  17  19
ENDBRANCH  15  17
ENDBRANCH   1  15
TORSDOF 4
ENDMDL
MODEL 4
REMARK VINA RESULT:    -6.820      1.897      3.413
REMARK INTER + INTRA:          -9.226
REMARK INTER:                  -8.570
REMARK INTRA:                  -0.656
REMARK UNBOUND:                -0.811
REMARK  Name = 
REMARK  6 active torsions:
REMARK  status: ('A' for Active; 'I' for Inactive)
REMARK    1  A    between atoms: C_1  and  C_2
REMARK    2  A    between atoms: C_2  and  C_3
REMARK    3  A    between atoms: C_2  and  C_4
REMARK    4  A    between atoms: C_2  and  C_18
REMARK    5  A    between atoms: C_4  and  N_5
REMARK    6  A    between atoms: C_10  and  C_11
REMARK                            x       y       z     vdW  Elec       q    Type
REMARK                         _______ _______ _______ _____ _____    ______ ____
ROOT
ATOM      1  N   UNL     1      45.920   6.515  13.308  0.00  0.00    +0.000 N 
ATOM      2  C   UNL     1      45.050   5.776  12.530  0.00  0.00    +0.000 A 
ATOM      3  N   UNL     1      43.775   5.751  12.942  0.00  0.00    +0.000 NA
ATOM      4  C   UNL     1      42.933   4.965  12.255  0.00  0.00    +0.000 A 
ATOM      5  C   UNL     1      43.297   4.250  11.145  0.00  0.00    +0.000 A 
ATOM      6  C   UNL     1      44.615   4.368  10.749  0.00  0.00    +0.000 A 
ATOM      7  N   UNL     1      45.495   5.108  11.460  0.00  0.00    +0.000 NA
ATOM      8  H   UNL     1      45.429   7.366  13.574  0.00  0.00    +0.000 HD
ENDROOT
BRANCH   6   9
ATOM      9  C   UNL     1      45.167   3.697   9.561  0.00  0.00    +0.000 A 
ATOM     10  C   UNL     1      45.237   2.302   9.424  0.00  0.00    +0.000 A 
ATOM     11  C   UNL     1      45.781   1.726   8.276  0.00  0.00    +0.000 A 
ATOM     12  C   UNL     1      46.241   2.561   7.274  0.00  0.00    +0.000 A 
ATOM     13  N   UNL     1      46.185   3.905   7.343  0.00  0.00    +0.000 NA
ATOM     14  C   UNL     1      45.646   4.434   8.473  0.00  0.00    +0.000 A 
ENDBRANCH   6   9
BRANCH   1  15
ATOM     15  C   UNL     1      47.243   6.780  12.756  0.00  0.00    +0.000 C 
BRANCH  15  17
ATOM     16  C   UNL     1      46.427   9.106  12.162  0.00  0.00    +0.000 C 
ATOM     17  C   UNL     1      47.585   8.304  12.799  0.00  0.00    +0.000 C 
ATOM     18  C   UNL     1      47.705   8.700  14.287  0.00  0.00    +0.000 C 
BRANCH  17  19
ATOM     19  C   UNL     1      48.898   8.627  12.068  0.00  0.00    +0.000 A 
ATOM     20  C   UNL     1      49.825   7.625  11.772  0.00  0.00    +0.000 A 
ATOM     21  C   UNL     1      51.031   7.963  11.163  0.00  0.00    +0.000 A 
ATOM     22  C   UNL     1      51.291   9.291  10.856  0.00  0.00    +0.000 A 
ATOM     23  C   UNL     1      50.325  10.228  11.166  0.00  0.00    +0.000 A 
ATOM     24  N   UNL     1      49.148   9.925  11.758  0.00  0.00    +0.000 NA
ENDBRANCH  17  19
ENDBRANCH  15  17
ENDBRANCH   1  15
TORSDOF 4
ENDMDL
MODEL 5
REMARK VINA RESULT:    -6.777      1.715      7.082
REMARK INTER + INTRA:          -9.173
REMARK INTER:                  -8.538
REMARK INTRA:                  -0.634
REMARK UNBOUND:                -0.811
REMARK  Name = 
REMARK  6 active torsions:
REMARK  status: ('A' for Active; 'I' for Inactive)
REMARK    1  A    between atoms: C_1  and  C_2
REMARK    2  A    between atoms: C_2  and  C_3
REMARK    3  A    between atoms: C_2  and  C_4
REMARK    4  A    between atoms: C_2  and  C_18
REMARK    5  A    between atoms: C_4  and  N_5
REMARK    6  A    between atoms: C_10  and  C_11
REMARK                            x       y       z     vdW  Elec       q    Type
REMARK                         _______ _______ _______ _____ _____    ______ ____
ROOT
ATOM      1  N   UNL     1      45.458   4.342  13.516  0.00  0.00    +0.000 N 
ATOM      2  C   UNL     1      46.509   4.724  14.327  0.00  0.00    +0.000 A 
ATOM      3  N   UNL     1      46.698   3.982  15.427  0.00  0.00    +0.000 NA
ATOM      4  C   UNL     1      47.653   4.390  16.275  0.00  0.00    +0.000 A 
ATOM      5  C   UNL     1      48.460   5.472  16.045  0.00  0.00    +0.000 A 
ATOM      6  C   UNL     1      48.242   6.156  14.865  0.00  0.00    +0.000 A 
ATOM      7  N   UNL     1      47.246   5.797  14.024  0.00  0.00    +0.000 NA
ATOM      8  H   UNL     1      45.468   3.324  13.477  0.00  0.00    +0.000 HD
ENDROOT
BRANCH   6   9
ATOM      9  C   UNL     1      49.038   7.320  14.444  0.00  0.00    +0.000 A 
ATOM     10  C   UNL     1      49.489   7.512  13.128  0.00  0.00    +0.000 A 
ATOM     11  C   UNL     1      50.250   8.632  12.794  0.00  0.00    +0.000 A 
ATOM     12  C   UNL     1      50.542   9.551  13.786  0.00  0.00    +0.000 A 
ATOM     13  N   UNL     1      50.123   9.427  15.060  0.00  0.00    +0.000 NA
ATOM     14  C   UNL     1      49.381   8.326  15.352  0.00  0.00    +0.000 A 
ENDBRANCH   6   9
BRANCH   1  15
ATOM     15  C   UNL     1      45.382   4.953  12.195  0.00  0.00    +0.000 C 
BRANCH  15  17
ATOM     16  C   UNL     1      43.731   3.034  12.063  0.00  0.00    +0.000 C 
ATOM     17  C   UNL     1      44.354   4.212  11.280  0.00  0.00    +0.000 C 
ATOM     18  C   UNL     1      43.240   5.226  10.937  0.00  0.00    +0.000 C 
BRANCH  17  19
ATOM     19  C   UNL     1      44.997   3.689   9.986  0.00  0.00    +0.000 A 
ATOM     20  C   UNL     1      45.463   4.567   9.005  0.00  0.00    +0.000 A 
ATOM     21  C   UNL     1      45.984   4.057   7.819  0.00  0.00    +0.000 A 
ATOM     22  C   UNL     1      46.037   2.683   7.632  0.00  0.00    +0.000 A 
ATOM     23  C   UNL     1      45.571   1.874   8.649  0.00  0.00    +0.000 A 
ATOM     24  N   UNL     1      45.059   2.344   9.809  0.00  0.00    +0.000 NA
ENDBRANCH  17  19
ENDBRANCH  15  17
ENDBRANCH   1  15
TORSDOF 4
ENDMDL
MODEL 6
REMARK VINA RESULT:    -6.655      1.922      7.542
REMARK INTER + INTRA:          -9.023
REMARK INTER:                  -8.139
REMARK INTRA:                  -0.884
REMARK UNBOUND:                -0.811
REMARK  Name = 
REMARK  6 active torsions:
REMARK  status: ('A' for Active; 'I' for Inactive)
REMARK    1  A    between atoms: C_1  and  C_2
REMARK    2  A    between atoms: C_2  and  C_3
REMARK    3  A    between atoms: C_2  and  C_4
REMARK    4  A    between atoms: C_2  and  C_18
REMARK    5  A    between atoms: C_4  and  N_5
REMARK    6  A    between atoms: C_10  and  C_11
REMARK                            x       y       z     vdW  Elec       q    Type
REMARK                         _______ _______ _______ _____ _____    ______ ____
ROOT
ATOM      1  N   UNL     1      46.606   4.278  13.510  0.00  0.00    +0.000 N 
ATOM      2  C   UNL     1      47.332   4.225  14.684  0.00  0.00    +0.000 A 
ATOM      3  N   UNL     1      47.536   3.002  15.190  0.00  0.00    +0.000 NA
ATOM      4  C   UNL     1      48.158   2.934  16.377  0.00  0.00    +0.000 A 
ATOM      5  C   UNL     1      48.631   4.029  17.049  0.00  0.00    +0.000 A 
ATOM      6  C   UNL     1      48.431   5.253  16.439  0.00  0.00    +0.000 A 
ATOM      7  N   UNL     1      47.755   5.349  15.272  0.00  0.00    +0.000 NA
ATOM      8  H   UNL     1      46.927   3.506  12.928  0.00  0.00    +0.000 HD
ENDROOT
BRANCH   6   9
ATOM      9  C   UNL     1      48.904   6.527  17.004  0.00  0.00    +0.000 A 
ATOM     10  C   UNL     1      49.444   6.646  18.294  0.00  0.00    +0.000 A 
ATOM     11  C   UNL     1      49.866   7.885  18.776  0.00  0.00    +0.000 A 
ATOM     12  C   UNL     1      49.746   8.989  17.952  0.00  0.00    +0.000 A 
ATOM     13  N   UNL     1      49.250   8.932  16.701  0.00  0.00    +0.000 NA
ATOM     14  C   UNL     1      48.851   7.709  16.260  0.00  0.00    +0.000 A 
ENDBRANCH   6   9
BRANCH   1  15
ATOM     15  C   UNL     1      46.586   5.549  12.797  0.00  0.00    +0.000 C 
BRANCH  15  17
ATOM     16  C   UNL     1      44.057   5.555  12.962  0.00  0.00    +0.000 C 
ATOM     17  C   UNL     1      45.254   5.739  12.003  0.00  0.00    +0.000 C 
ATOM     18  C   UNL     1      45.247   7.189  11.470  0.00  0.00    +0.000 C 
BRANCH  17  19
ATOM     19  C   UNL     1      45.130   4.754  10.830  0.00  0.00    +0.000 A 
ATOM     20  C   UNL     1      45.525   5.115   9.539  0.00  0.00    +0.000 A 
ATOM     21  C   UNL     1      45.342   4.218   8.489  0.00  0.00    +0.000 A 
ATOM     22  C   UNL     1      44.774   2.978   8.743  0.00  0.00    +0.000 A 
ATOM     23  C   UNL     1      44.419   2.683  10.044  0.00  0.00    +0.000 A 
ATOM     24  N   UNL     1      44.585   3.536  11.080  0.00  0.00    +0.000 NA
ENDBRANCH  17  19
ENDBRANCH  15  17
ENDBRANCH   1  15
TORSDOF 4
ENDMDL
MODEL 7
REMARK VINA RESULT:    -6.633      2.308      7.402
REMARK INTER + INTRA:          -8.995
REMARK INTER:                  -8.118
REMARK INTRA:                  -0.878
REMARK UNBOUND:                -0.811
REMARK  Name = 
REMARK  6 active torsions:
REMARK  status: ('A' for Active; 'I' for Inactive)
REMARK    1  A    between atoms: C_1  and  C_2
REMARK    2  A    between atoms: C_2  and  C_3
REMARK    3  A    between atoms: C_2  and  C_4
REMARK    4  A    between atoms: C_2  and  C_18
REMARK    5  A    between atoms: C_4  and  N_5
REMARK    6  A    between atoms: C_10  and  C_11
REMARK                            x       y       z     vdW  Elec       q    Type
REMARK                         _______ _______ _______ _____ _____    ______ ____
ROOT
ATOM      1  N   UNL     1      46.660   5.106  14.671  0.00  0.00    +0.000 N 
ATOM      2  C   UNL     1      47.337   4.545  15.737  0.00  0.00    +0.000 A 
ATOM      3  N   UNL     1      46.654   3.641  16.452  0.00  0.00    +0.000 NA
ATOM      4  C   UNL     1      47.258   3.152  17.545  0.00  0.00    +0.000 A 
ATOM      5  C   UNL     1      48.532   3.486  17.921  0.00  0.00    +0.000 A 
ATOM      6  C   UNL     1      49.194   4.383  17.105  0.00  0.00    +0.000 A 
ATOM      7  N   UNL     1      48.583   4.932  16.031  0.00  0.00    +0.000 NA
ATOM      8  H   UNL     1      46.139   4.355  14.223  0.00  0.00    +0.000 HD
ENDROOT
BRANCH   6   9
ATOM      9  C   UNL     1      50.578   4.824  17.340  0.00  0.00    +0.000 A 
ATOM     10  C   UNL     1      51.598   3.966  17.777  0.00  0.00    +0.000 A 
ATOM     11  C   UNL     1      52.890   4.448  17.992  0.00  0.00    +0.000 A 
ATOM     12  C   UNL     1      53.141   5.787  17.757  0.00  0.00    +0.000 A 
ATOM     13  N   UNL     1      52.206   6.654  17.323  0.00  0.00    +0.000 NA
ATOM     14  C   UNL     1      50.959   6.151  17.120  0.00  0.00    +0.000 A 
ENDBRANCH   6   9
BRANCH   1  15
ATOM     15  C   UNL     1      47.445   5.888  13.723  0.00  0.00    +0.000 C 
BRANCH  15  17
ATOM     16  C   UNL     1      46.098   7.982  13.245  0.00  0.00    +0.000 C 
ATOM     17  C   UNL     1      46.530   6.609  12.682  0.00  0.00    +0.000 C 
ATOM     18  C   UNL     1      47.382   6.837  11.413  0.00  0.00    +0.000 C 
BRANCH  17  19
ATOM     19  C   UNL     1      45.284   5.781  12.329  0.00  0.00    +0.000 A 
ATOM     20  C   UNL     1      45.205   5.072  11.128  0.00  0.00    +0.000 A 
ATOM     21  C   UNL     1      44.036   4.382  10.814  0.00  0.00    +0.000 A 
ATOM     22  C   UNL     1      42.971   4.406  11.703  0.00  0.00    +0.000 A 
ATOM     23  C   UNL     1      43.124   5.116  12.877  0.00  0.00    +0.000 A 
ATOM     24  N   UNL     1      44.246   5.795  13.204  0.00  0.00    +0.000 NA
ENDBRANCH  17  19
ENDBRANCH  15  17
ENDBRANCH   1  15
TORSDOF 4
ENDMDL
MODEL 8
REMARK VINA RESULT:    -6.599      2.553      4.923
REMARK INTER + INTRA:          -8.954
REMARK INTER:                  -8.307
REMARK INTRA:                  -0.646
REMARK UNBOUND:                -0.811
REMARK  Name = 
REMARK  6 active torsions:
REMARK  status: ('A' for Active; 'I' for Inactive)
REMARK    1  A    between atoms: C_1  and  C_2
REMARK    2  A    between atoms: C_2  and  C_3
REMARK    3  A    between atoms: C_2  and  C_4
REMARK    4  A    between atoms: C_2  and  C_18
REMARK    5  A    between atoms: C_4  and  N_5
REMARK    6  A    between atoms: C_10  and  C_11
REMARK                            x       y       z     vdW  Elec       q    Type
REMARK                         _______ _______ _______ _____ _____    ______ ____
ROOT
ATOM      1  N   UNL     1      47.163   3.737  14.877  0.00  0.00    +0.000 N 
ATOM      2  C   UNL     1      46.414   4.158  13.795  0.00  0.00    +0.000 A 
ATOM      3  N   UNL     1      45.852   3.188  13.061  0.00  0.00    +0.000 NA
ATOM      4  C   UNL     1      45.199   3.569  11.953  0.00  0.00    +0.000 A 
ATOM      5  C   UNL     1      45.038   4.877  11.580  0.00  0.00    +0.000 A 
ATOM      6  C   UNL     1      45.599   5.823  12.414  0.00  0.00    +0.000 A 
ATOM      7  N   UNL     1      46.311   5.459  13.504  0.00  0.00    +0.000 NA
ATOM      8  H   UNL     1      46.652   2.969  15.310  0.00  0.00    +0.000 HD
ENDROOT
BRANCH   6   9
ATOM      9  C   UNL     1      45.493   7.273  12.182  0.00  0.00    +0.000 A 
ATOM     10  C   UNL     1      46.394   8.208  12.715  0.00  0.00    +0.000 A 
ATOM     11  C   UNL     1      46.233   9.572  12.467  0.00  0.00    +0.000 A 
ATOM     12  C   UNL     1      45.171   9.978  11.678  0.00  0.00    +0.000 A 
ATOM     13  N   UNL     1      44.286   9.125  11.128  0.00  0.00    +0.000 NA
ATOM     14  C   UNL     1      44.473   7.803  11.387  0.00  0.00    +0.000 A 
ENDBRANCH   6   9
BRANCH   1  15
ATOM     15  C   UNL     1      47.568   4.755  15.840  0.00  0.00    +0.000 C 
BRANCH  15  17
ATOM     16  C   UNL     1      47.590   5.146  18.345  0.00  0.00    +0.000 C 
ATOM     17  C   UNL     1      47.906   4.124  17.229  0.00  0.00    +0.000 C 
ATOM     18  C   UNL     1      46.986   2.895  17.405  0.00  0.00    +0.000 C 
BRANCH  17  19
ATOM     19  C   UNL     1      49.377   3.690  17.330  0.00  0.00    +0.000 A 
ATOM     20  C   UNL     1      49.747   2.352  17.174  0.00  0.00    +0.000 A 
ATOM     21  C   UNL     1      51.081   1.986  17.332  0.00  0.00    +0.000 A 
ATOM     22  C   UNL     1      52.023   2.958  17.637  0.00  0.00    +0.000 A 
ATOM     23  C   UNL     1      51.589   4.262  17.763  0.00  0.00    +0.000 A 
ATOM     24  N   UNL     1      50.300   4.643  17.617  0.00  0.00    +0.000 NA
ENDBRANCH  17  19
ENDBRANCH  15  17
ENDBRANCH   1  15
TORSDOF 4
ENDMDL
MODEL 9
REMARK VINA RESULT:    -6.565      1.683      2.231
REMARK INTER + INTRA:          -8.911
REMARK INTER:                  -8.330
REMARK INTRA:                  -0.582
REMARK UNBOUND:                -0.811
REMARK  Name = 
REMARK  6 active torsions:
REMARK  status: ('A' for Active; 'I' for Inactive)
REMARK    1  A    between atoms: C_1  and  C_2
REMARK    2  A    between atoms: C_2  and  C_3
REMARK    3  A    between atoms: C_2  and  C_4
REMARK    4  A    between atoms: C_2  and  C_18
REMARK    5  A    between atoms: C_4  and  N_5
REMARK    6  A    between atoms: C_10  and  C_11
REMARK                            x       y       z     vdW  Elec       q    Type
REMARK                         _______ _______ _______ _____ _____    ______ ____
ROOT
ATOM      1  N   UNL     1      45.881   6.283  13.403  0.00  0.00    +0.000 N 
ATOM      2  C   UNL     1      45.022   5.668  12.513  0.00  0.00    +0.000 A 
ATOM      3  N   UNL     1      43.717   5.765  12.797  0.00  0.00    +0.000 NA
ATOM      4  C   UNL     1      42.872   5.097  11.998  0.00  0.00    +0.000 A 
ATOM      5  C   UNL     1      43.271   4.385  10.899  0.00  0.00    +0.000 A 
ATOM      6  C   UNL     1      44.627   4.374  10.638  0.00  0.00    +0.000 A 
ATOM      7  N   UNL     1      45.502   4.992  11.463  0.00  0.00    +0.000 NA
ATOM      8  H   UNL     1      45.455   7.173  13.658  0.00  0.00    +0.000 HD
ENDROOT
BRANCH   6   9
ATOM      9  C   UNL     1      45.224   3.689   9.481  0.00  0.00    +0.000 A 
ATOM     10  C   UNL     1      45.772   4.365   8.380  0.00  0.00    +0.000 A 
ATOM     11  C   UNL     1      46.315   3.657   7.308  0.00  0.00    +0.000 A 
ATOM     12  C   UNL     1      46.308   2.275   7.359  0.00  0.00    +0.000 A 
ATOM     13  N   UNL     1      45.810   1.573   8.396  0.00  0.00    +0.000 NA
ATOM     14  C   UNL     1      45.292   2.293   9.425  0.00  0.00    +0.000 A 
ENDBRANCH   6   9
BRANCH   1  15
ATOM     15  C   UNL     1      47.273   6.424  12.994  0.00  0.00    +0.000 C 
BRANCH  15  17
ATOM     16  C   UNL     1      48.636   8.304  11.977  0.00  0.00    +0.000 C 
ATOM     17  C   UNL     1      47.783   7.887  13.197  0.00  0.00    +0.000 C 
ATOM     18  C   UNL     1      46.536   8.796  13.266  0.00  0.00    +0.000 C 
BRANCH  17  19
ATOM     19  C   UNL     1      48.612   8.042  14.482  0.00  0.00    +0.000 A 
ATOM     20  C   UNL     1      49.774   7.295  14.686  0.00  0.00    +0.000 A 
ATOM     21  C   UNL     1      50.467   7.417  15.888  0.00  0.00    +0.000 A 
ATOM     22  C   UNL     1      49.993   8.283  16.863  0.00  0.00    +0.000 A 
ATOM     23  C   UNL     1      48.845   8.999  16.589  0.00  0.00    +0.000 A 
ATOM     24  N   UNL     1      48.154   8.898  15.431  0.00  0.00    +0.000 NA
ENDBRANCH  17  19
ENDBRANCH  15  17
ENDBRANCH   1  15
TORSDOF 4
ENDMDL
