MODEL 1
REMARK VINA RESULT:    -8.067      0.000      0.000
REMARK INTER + INTRA:         -11.883
REMARK INTER:                 -10.897
REMARK INTRA:                  -0.986
REMARK UNBOUND:                -0.986
REMARK  Name = 
REMARK  6 active torsions:
REMARK  status: ('A' for Active; 'I' for Inactive)
REMARK    1  A    between atoms: C_2  and  C_20
REMARK    2  A    between atoms: N_3  and  C_4
REMARK    3  A    between atoms: C_4  and  C_5
REMARK    4  A    between atoms: C_8  and  C_9
REMARK    5  A    between atoms: C_9  and  N_10
REMARK    6  A    between atoms: C_11  and  C_13
REMARK                            x       y       z     vdW  Elec       q    Type
REMARK                         _______ _______ _______ _____ _____    ______ ____
ROOT
ATOM      1  C   UNL     1      46.126   4.440  13.701  0.00  0.00    +0.000 A 
ATOM      2  C   UNL     1      45.845   3.282  12.964  0.00  0.00    +0.000 A 
ATOM      3  C   UNL     1      45.081   3.347  11.792  0.00  0.00    +0.000 A 
ATOM      4  C   UNL     1      44.601   4.576  11.319  0.00  0.00    +0.000 A 
ATOM      5  C   UNL     1      44.903   5.736  12.043  0.00  0.00    +0.000 A 
ATOM      6  C   UNL     1      45.666   5.671  13.214  0.00  0.00    +0.000 A 
ENDROOT
BRANCH   1   7
ATOM      7  C   UNL     1      46.883   4.357  15.002  0.00  0.00    +0.000 C 
BRANCH   7  10
ATOM      8  O   UNL     1      48.962   4.540  16.798  0.00  0.00    +0.000 OA
ATOM      9  C   UNL     1      48.631   5.562  16.202  0.00  0.00    +0.000 C 
ATOM     10  N   UNL     1      47.562   5.585  15.337  0.00  0.00    +0.000 N 
ATOM     11  H   UNL     1      47.443   6.372  14.708  0.00  0.00    +0.000 HD
BRANCH   9  12
ATOM     12  C   UNL     1      49.344   6.827  16.414  0.00  0.00    +0.000 A 
ATOM     13  C   UNL     1      49.582   7.277  17.706  0.00  0.00    +0.000 A 
ATOM     14  S   UNL     1      50.422   8.760  17.772  0.00  0.00    +0.000 S 
ATOM     15  C   UNL     1      50.543   8.828  16.077  0.00  0.00    +0.000 A 
ATOM     16  N   UNL     1      51.199   9.850  15.463  0.00  0.00    +0.000 NA
ATOM     17  C   UNL     1      51.247   9.754  14.177  0.00  0.00    +0.000 A 
ATOM     18  N   UNL     1      50.688   8.736  13.448  0.00  0.00    +0.000 N 
ATOM     19  C   UNL     1      49.979   7.709  14.021  0.00  0.00    +0.000 A 
ATOM     20  O   UNL     1      49.433   6.850  13.334  0.00  0.00    +0.000 OA
ATOM     21  C   UNL     1      49.922   7.751  15.468  0.00  0.00    +0.000 A 
ATOM     22  H   UNL     1      50.746   8.731  12.440  0.00  0.00    +0.000 HD
ENDBRANCH   9  12
ENDBRANCH   7  10
ENDBRANCH   1   7
BRANCH   4  23
ATOM     23  C   UNL     1      43.774   4.651  10.060  0.00  0.00    +0.000 C 
BRANCH  23  24
ATOM     24  N   UNL     1      44.302   3.826   9.003  0.00  0.00    +0.000 N 
ATOM     25  C   UNL     1      45.477   4.153   8.360  0.00  0.00    +0.000 C 
ATOM     26  O   UNL     1      46.057   5.223   8.521  0.00  0.00    +0.000 OA
ATOM     27  H   UNL     1      43.996   2.861   8.893  0.00  0.00    +0.000 HD
BRANCH  25  28
ATOM     28  C   UNL     1      45.976   3.087   7.371  0.00  0.00    +0.000 C 
ATOM     29  C   UNL     1      46.288   1.765   8.045  0.00  0.00    +0.000 C 
ATOM     30  C   UNL     1      47.216   1.090   7.053  0.00  0.00    +0.000 C 
ATOM     31  C   UNL     1      47.945   2.235   6.363  0.00  0.00    +0.000 C 
ATOM     32  N   UNL     1      47.288   3.475   6.787  0.00  0.00    +0.000 NA
ATOM     33  H   UNL     1      47.132   4.088   5.986  0.00  0.00    +0.000 HD
ENDBRANCH  25  28
ENDBRANCH  23  24
ENDBRANCH   4  23
TORSDOF 6
ENDMDL
MODEL 2
REMARK VINA RESULT:    -7.818      1.950      3.521
REMARK INTER + INTRA:         -11.546
REMARK INTER:                 -10.639
REMARK INTRA:                  -0.907
REMARK UNBOUND:                -0.986
REMARK  Name = 
REMARK  6 active torsions:
REMARK  status: ('A' for Active; 'I' for Inactive)
REMARK    1  A    between atoms: C_2  and  C_20
REMARK    2  A    between atoms: N_3  and  C_4
REMARK    3  A    between atoms: C_4  and  C_5
REMARK    4  A    between atoms: C_8  and  C_9
REMARK    5  A    between atoms: C_9  and  N_10
REMARK    6  A    between atoms: C_11  and  C_13
REMARK                            x       y       z     vdW  Elec       q    Type
REMARK                         _______ _______ _______ _____ _____    ______ ____
ROOT
ATOM      1  C   UNL     1      46.407   7.489  12.907  0.00  0.00    +0.000 A 
ATOM      2  C   UNL     1      45.327   8.089  12.245  0.00  0.00    +0.000 A 
ATOM      3  C   UNL     1      44.455   7.325  11.460  0.00  0.00    +0.000 A 
ATOM      4  C   UNL     1      44.630   5.940  11.337  0.00  0.00    +0.000 A 
ATOM      5  C   UNL     1      45.696   5.337  12.018  0.00  0.00    +0.000 A 
ATOM      6  C   UNL     1      46.567   6.101  12.803  0.00  0.00    +0.000 A 
ENDROOT
BRANCH   1   7
ATOM      7  C   UNL     1      47.388   8.324  13.689  0.00  0.00    +0.000 C 
BRANCH   7  10
ATOM      8  O   UNL     1      49.763   6.953  13.949  0.00  0.00    +0.000 OA
ATOM      9  C   UNL     1      49.061   7.076  14.951  0.00  0.00    +0.000 C 
ATOM     10  N   UNL     1      47.828   7.685  14.904  0.00  0.00    +0.000 N 
ATOM     11  H   UNL     1      47.372   7.958  15.768  0.00  0.00    +0.000 HD
BRANCH   9  12
ATOM     12  C   UNL     1      49.492   6.542  16.248  0.00  0.00    +0.000 A 
ATOM     13  C   UNL     1      50.544   7.144  16.927  0.00  0.00    +0.000 A 
ATOM     14  S   UNL     1      50.915   6.400  18.415  0.00  0.00    +0.000 S 
ATOM     15  C   UNL     1      49.650   5.277  18.230  0.00  0.00    +0.000 A 
ATOM     16  N   UNL     1      49.385   4.356  19.195  0.00  0.00    +0.000 NA
ATOM     17  C   UNL     1      48.375   3.594  18.941  0.00  0.00    +0.000 A 
ATOM     18  N   UNL     1      47.611   3.663  17.803  0.00  0.00    +0.000 N 
ATOM     19  C   UNL     1      47.868   4.547  16.783  0.00  0.00    +0.000 A 
ATOM     20  O   UNL     1      47.207   4.537  15.750  0.00  0.00    +0.000 OA
ATOM     21  C   UNL     1      48.975   5.448  17.033  0.00  0.00    +0.000 A 
ATOM     22  H   UNL     1      46.843   3.024  17.657  0.00  0.00    +0.000 HD
ENDBRANCH   9  12
ENDBRANCH   7  10
ENDBRANCH   1   7
BRANCH   4  23
ATOM     23  C   UNL     1      43.697   5.114  10.489  0.00  0.00    +0.000 C 
BRANCH  23  24
ATOM     24  N   UNL     1      44.352   4.551   9.335  0.00  0.00    +0.000 N 
ATOM     25  C   UNL     1      44.744   3.230   9.309  0.00  0.00    +0.000 C 
ATOM     26  O   UNL     1      44.714   2.499  10.295  0.00  0.00    +0.000 OA
ATOM     27  H   UNL     1      44.291   5.009   8.428  0.00  0.00    +0.000 HD
BRANCH  25  28
ATOM     28  C   UNL     1      45.281   2.755   7.949  0.00  0.00    +0.000 C 
ATOM     29  C   UNL     1      46.331   1.670   8.081  0.00  0.00    +0.000 C 
ATOM     30  C   UNL     1      47.061   1.743   6.753  0.00  0.00    +0.000 C 
ATOM     31  C   UNL     1      46.954   3.202   6.331  0.00  0.00    +0.000 C 
ATOM     32  N   UNL     1      46.020   3.846   7.259  0.00  0.00    +0.000 NA
ATOM     33  H   UNL     1      45.358   4.432   6.748  0.00  0.00    +0.000 HD
ENDBRANCH  25  28
ENDBRANCH  23  24
ENDBRANCH   4  23
TORSDOF 6
ENDMDL
MODEL 3
REMARK VINA RESULT:    -7.690      2.409      3.237
REMARK INTER + INTRA:         -11.373
REMARK INTER:                 -10.756
REMARK INTRA:                  -0.617
REMARK UNBOUND:                -0.986
REMARK  Name = 
REMARK  6 active torsions:
REMARK  status: ('A' for Active; 'I' for Inactive)
REMARK    1  A    between atoms: C_2  and  C_20
REMARK    2  A    between atoms: N_3  and  C_4
REMARK    3  A    between atoms: C_4  and  C_5
REMARK    4  A    between atoms: C_8  and  C_9
REMARK    5  A    between atoms: C_9  and  N_10
REMARK    6  A    between atoms: C_11  and  C_13
REMARK                            x       y       z     vdW  Elec       q    Type
REMARK                         _______ _______ _______ _____ _____    ______ ____
ROOT
ATOM      1  C   UNL     1      47.070   5.795  13.209  0.00  0.00    +0.000 A 
ATOM      2  C   UNL     1      46.448   6.682  12.320  0.00  0.00    +0.000 A 
ATOM      3  C   UNL     1      45.434   6.240  11.462  0.00  0.00    +0.000 A 
ATOM      4  C   UNL     1      45.002   4.907  11.490  0.00  0.00    +0.000 A 
ATOM      5  C   UNL     1      45.608   4.027  12.396  0.00  0.00    +0.000 A 
ATOM      6  C   UNL     1      46.622   4.469  13.254  0.00  0.00    +0.000 A 
ENDROOT
BRANCH   1   7
ATOM      7  C   UNL     1      48.213   6.254  14.078  0.00  0.00    +0.000 C 
BRANCH   7  10
ATOM      8  O   UNL     1      50.038   5.874  16.105  0.00  0.00    +0.000 OA
ATOM      9  C   UNL     1      48.878   6.130  16.420  0.00  0.00    +0.000 C 
ATOM     10  N   UNL     1      47.883   6.269  15.481  0.00  0.00    +0.000 N 
ATOM     11  H   UNL     1      46.996   6.683  15.749  0.00  0.00    +0.000 HD
BRANCH   9  12
ATOM     12  C   UNL     1      48.489   6.265  17.830  0.00  0.00    +0.000 A 
ATOM     13  C   UNL     1      48.568   5.166  18.675  0.00  0.00    +0.000 A 
ATOM     14  S   UNL     1      48.081   5.496  20.275  0.00  0.00    +0.000 S 
ATOM     15  C   UNL     1      47.796   7.132  19.908  0.00  0.00    +0.000 A 
ATOM     16  N   UNL     1      47.389   8.005  20.870  0.00  0.00    +0.000 NA
ATOM     17  C   UNL     1      47.249   9.221  20.460  0.00  0.00    +0.000 A 
ATOM     18  N   UNL     1      47.468   9.641  19.173  0.00  0.00    +0.000 N 
ATOM     19  C   UNL     1      47.836   8.788  18.160  0.00  0.00    +0.000 A 
ATOM     20  O   UNL     1      47.958   9.186  17.006  0.00  0.00    +0.000 OA
ATOM     21  C   UNL     1      48.038   7.415  18.575  0.00  0.00    +0.000 A 
ATOM     22  H   UNL     1      47.323  10.606  18.913  0.00  0.00    +0.000 HD
ENDBRANCH   9  12
ENDBRANCH   7  10
ENDBRANCH   1   7
BRANCH   4  23
ATOM     23  C   UNL     1      43.914   4.426  10.565  0.00  0.00    +0.000 C 
BRANCH  23  24
ATOM     24  N   UNL     1      44.416   3.568   9.521  0.00  0.00    +0.000 N 
ATOM     25  C   UNL     1      45.297   4.039   8.571  0.00  0.00    +0.000 C 
ATOM     26  O   UNL     1      45.585   5.225   8.449  0.00  0.00    +0.000 OA
ATOM     27  H   UNL     1      44.368   2.555   9.612  0.00  0.00    +0.000 HD
BRANCH  25  28
ATOM     28  C   UNL     1      45.852   2.956   7.631  0.00  0.00    +0.000 C 
ATOM     29  C   UNL     1      46.056   1.625   8.327  0.00  0.00    +0.000 C 
ATOM     30  C   UNL     1      47.051   0.920   7.424  0.00  0.00    +0.000 C 
ATOM     31  C   UNL     1      47.878   2.041   6.809  0.00  0.00    +0.000 C 
ATOM     32  N   UNL     1      47.225   3.301   7.174  0.00  0.00    +0.000 NA
ATOM     33  H   UNL     1      47.165   3.919   6.363  0.00  0.00    +0.000 HD
ENDBRANCH  25  28
ENDBRANCH  23  24
ENDBRANCH   4  23
TORSDOF 6
ENDMDL
MODEL 4
REMARK VINA RESULT:    -7.679      2.168      3.553
REMARK INTER + INTRA:         -11.359
REMARK INTER:                 -10.481
REMARK INTRA:                  -0.877
REMARK UNBOUND:                -0.986
REMARK  Name = 
REMARK  6 active torsions:
REMARK  status: ('A' for Active; 'I' for Inactive)
REMARK    1  A    between atoms: C_2  and  C_20
REMARK    2  A    between atoms: N_3  and  C_4
REMARK    3  A    between atoms: C_4  and  C_5
REMARK    4  A    between atoms: C_8  and  C_9
REMARK    5  A    between atoms: C_9  and  N_10
REMARK    6  A    between atoms: C_11  and  C_13
REMARK                            x       y       z     vdW  Elec       q    Type
REMARK                         _______ _______ _______ _____ _____    ______ ____
ROOT
ATOM      1  C   UNL     1      47.358   6.312  13.414  0.00  0.00    +0.000 A 
ATOM      2  C   UNL     1      47.150   5.039  13.962  0.00  0.00    +0.000 A 
ATOM      3  C   UNL     1      46.218   4.161  13.396  0.00  0.00    +0.000 A 
ATOM      4  C   UNL     1      45.491   4.526  12.255  0.00  0.00    +0.000 A 
ATOM      5  C   UNL     1      45.717   5.789  11.694  0.00  0.00    +0.000 A 
ATOM      6  C   UNL     1      46.649   6.667  12.259  0.00  0.00    +0.000 A 
ENDROOT
BRANCH   1   7
ATOM      7  C   UNL     1      48.305   7.284  14.069  0.00  0.00    +0.000 C 
BRANCH   7  10
ATOM      8  O   UNL     1      50.497   6.625  15.600  0.00  0.00    +0.000 OA
ATOM      9  C   UNL     1      49.458   6.920  16.187  0.00  0.00    +0.000 C 
ATOM     10  N   UNL     1      48.294   7.197  15.508  0.00  0.00    +0.000 N 
ATOM     11  H   UNL     1      47.522   7.637  15.998  0.00  0.00    +0.000 HD
BRANCH   9  12
ATOM     12  C   UNL     1      49.401   6.954  17.653  0.00  0.00    +0.000 A 
ATOM     13  C   UNL     1      49.577   8.159  18.322  0.00  0.00    +0.000 A 
ATOM     14  S   UNL     1      49.479   8.021  20.019  0.00  0.00    +0.000 S 
ATOM     15  C   UNL     1      49.146   6.355  19.918  0.00  0.00    +0.000 A 
ATOM     16  N   UNL     1      48.909   5.620  21.038  0.00  0.00    +0.000 NA
ATOM     17  C   UNL     1      48.633   4.380  20.811  0.00  0.00    +0.000 A 
ATOM     18  N   UNL     1      48.582   3.806  19.567  0.00  0.00    +0.000 N 
ATOM     19  C   UNL     1      48.856   4.498  18.412  0.00  0.00    +0.000 A 
ATOM     20  O   UNL     1      48.868   3.938  17.320  0.00  0.00    +0.000 OA
ATOM     21  C   UNL     1      49.143   5.905  18.609  0.00  0.00    +0.000 A 
ATOM     22  H   UNL     1      48.376   2.823  19.459  0.00  0.00    +0.000 HD
ENDBRANCH   9  12
ENDBRANCH   7  10
ENDBRANCH   1   7
BRANCH   4  23
ATOM     23  C   UNL     1      44.483   3.585  11.645  0.00  0.00    +0.000 C 
BRANCH  23  24
ATOM     24  N   UNL     1      44.948   3.001  10.412  0.00  0.00    +0.000 N 
ATOM     25  C   UNL     1      44.619   3.552   9.192  0.00  0.00    +0.000 C 
ATOM     26  O   UNL     1      43.798   4.455   9.060  0.00  0.00    +0.000 OA
ATOM     27  H   UNL     1      45.740   2.361  10.405  0.00  0.00    +0.000 HD
BRANCH  25  28
ATOM     28  C   UNL     1      45.326   2.901   7.991  0.00  0.00    +0.000 C 
ATOM     29  C   UNL     1      46.056   1.625   8.364  0.00  0.00    +0.000 C 
ATOM     30  C   UNL     1      47.059   1.468   7.237  0.00  0.00    +0.000 C 
ATOM     31  C   UNL     1      47.372   2.891   6.796  0.00  0.00    +0.000 C 
ATOM     32  N   UNL     1      46.422   3.769   7.483  0.00  0.00    +0.000 NA
ATOM     33  H   UNL     1      46.035   4.454   6.833  0.00  0.00    +0.000 HD
ENDBRANCH  25  28
ENDBRANCH  23  24
ENDBRANCH   4  23
TORSDOF 6
ENDMDL
MODEL 5
REMARK VINA RESULT:    -7.179      1.976      3.110
REMARK INTER + INTRA:         -10.683
REMARK INTER:                  -9.941
REMARK INTRA:                  -0.743
REMARK UNBOUND:                -0.986
REMARK  Name = 
REMARK  6 active torsions:
REMARK  status: ('A' for Active; 'I' for Inactive)
REMARK    1  A    between atoms: C_2  and  C_20
REMARK    2  A    between atoms: N_3  and  C_4
REMARK    3  A    between atoms: C_4  and  C_5
REMARK    4  A    between atoms: C_8  and  C_9
REMARK    5  A    between atoms: C_9  and  N_10
REMARK    6  A    between atoms: C_11  and  C_13
REMARK                            x       y       z     vdW  Elec       q    Type
REMARK                         _______ _______ _______ _____ _____    ______ ____
ROOT
ATOM      1  C   UNL     1      46.331   6.296  12.920  0.00  0.00    +0.000 A 
ATOM      2  C   UNL     1      45.442   6.578  11.873  0.00  0.00    +0.000 A 
ATOM      3  C   UNL     1      44.723   5.552  11.250  0.00  0.00    +0.000 A 
ATOM      4  C   UNL     1      44.858   4.223  11.674  0.00  0.00    +0.000 A 
ATOM      5  C   UNL     1      45.728   3.945  12.736  0.00  0.00    +0.000 A 
ATOM      6  C   UNL     1      46.448   4.971  13.359  0.00  0.00    +0.000 A 
ENDROOT
BRANCH   1   7
ATOM      7  C   UNL     1      47.161   7.391  13.538  0.00  0.00    +0.000 C 
BRANCH   7  10
ATOM      8  O   UNL     1      48.722   8.854  15.274  0.00  0.00    +0.000 OA
ATOM      9  C   UNL     1      49.047   7.689  15.055  0.00  0.00    +0.000 C 
ATOM     10  N   UNL     1      48.370   6.902  14.153  0.00  0.00    +0.000 N 
ATOM     11  H   UNL     1      48.525   5.899  14.149  0.00  0.00    +0.000 HD
BRANCH   9  12
ATOM     12  C   UNL     1      50.207   7.089  15.726  0.00  0.00    +0.000 A 
ATOM     13  C   UNL     1      51.470   7.636  15.541  0.00  0.00    +0.000 A 
ATOM     14  S   UNL     1      52.702   6.819  16.391  0.00  0.00    +0.000 S 
ATOM     15  C   UNL     1      51.584   5.736  17.078  0.00  0.00    +0.000 A 
ATOM     16  N   UNL     1      51.986   4.780  17.958  0.00  0.00    +0.000 NA
ATOM     17  C   UNL     1      51.028   4.054  18.429  0.00  0.00    +0.000 A 
ATOM     18  N   UNL     1      49.706   4.190  18.091  0.00  0.00    +0.000 N 
ATOM     19  C   UNL     1      49.260   5.111  17.174  0.00  0.00    +0.000 A 
ATOM     20  O   UNL     1      48.079   5.161  16.844  0.00  0.00    +0.000 OA
ATOM     21  C   UNL     1      50.293   5.974  16.638  0.00  0.00    +0.000 A 
ATOM     22  H   UNL     1      49.007   3.576  18.484  0.00  0.00    +0.000 HD
ENDBRANCH   9  12
ENDBRANCH   7  10
ENDBRANCH   1   7
BRANCH   4  23
ATOM     23  C   UNL     1      44.088   3.114  11.003  0.00  0.00    +0.000 C 
BRANCH  23  24
ATOM     24  N   UNL     1      44.781   2.575   9.859  0.00  0.00    +0.000 N 
ATOM     25  C   UNL     1      44.798   3.244   8.654  0.00  0.00    +0.000 C 
ATOM     26  O   UNL     1      44.111   4.235   8.424  0.00  0.00    +0.000 OA
ATOM     27  H   UNL     1      45.494   1.857   9.973  0.00  0.00    +0.000 HD
BRANCH  25  28
ATOM     28  C   UNL     1      45.711   2.610   7.591  0.00  0.00    +0.000 C 
ATOM     29  C   UNL     1      46.349   1.318   8.063  0.00  0.00    +0.000 C 
ATOM     30  C   UNL     1      47.543   1.174   7.139  0.00  0.00    +0.000 C 
ATOM     31  C   UNL     1      47.943   2.602   6.796  0.00  0.00    +0.000 C 
ATOM     32  N   UNL     1      46.888   3.476   7.315  0.00  0.00    +0.000 NA
ATOM     33  H   UNL     1      46.634   4.180   6.621  0.00  0.00    +0.000 HD
ENDBRANCH  25  28
ENDBRANCH  23  24
ENDBRANCH   4  23
TORSDOF 6
ENDMDL
MODEL 6
REMARK VINA RESULT:    -7.035      1.811      2.365
REMARK INTER + INTRA:         -10.488
REMARK INTER:                  -9.685
REMARK INTRA:                  -0.803
REMARK UNBOUND:                -0.986
REMARK  Name = 
REMARK  6 active torsions:
REMARK  status: ('A' for Active; 'I' for Inactive)
REMARK    1  A    between atoms: C_2  and  C_20
REMARK    2  A    between atoms: N_3  and  C_4
REMARK    3  A    between atoms: C_4  and  C_5
REMARK    4  A    between atoms: C_8  and  C_9
REMARK    5  A    between atoms: C_9  and  N_10
REMARK    6  A    between atoms: C_11  and  C_13
REMARK                            x       y       z     vdW  Elec       q    Type
REMARK                         _______ _______ _______ _____ _____    ______ ____
ROOT
ATOM      1  C   UNL     1      46.335   5.416  13.339  0.00  0.00    +0.000 A 
ATOM      2  C   UNL     1      46.040   4.091  12.990  0.00  0.00    +0.000 A 
ATOM      3  C   UNL     1      45.173   3.806  11.930  0.00  0.00    +0.000 A 
ATOM      4  C   UNL     1      44.597   4.840  11.178  0.00  0.00    +0.000 A 
ATOM      5  C   UNL     1      44.910   6.164  11.512  0.00  0.00    +0.000 A 
ATOM      6  C   UNL     1      45.778   6.448  12.573  0.00  0.00    +0.000 A 
ENDROOT
BRANCH   1   7
ATOM      7  C   UNL     1      47.208   5.721  14.529  0.00  0.00    +0.000 C 
BRANCH   7  10
ATOM      8  O   UNL     1      47.787   8.410  14.673  0.00  0.00    +0.000 OA
ATOM      9  C   UNL     1      48.688   7.649  14.328  0.00  0.00    +0.000 C 
ATOM     10  N   UNL     1      48.477   6.300  14.162  0.00  0.00    +0.000 N 
ATOM     11  H   UNL     1      49.272   5.674  14.086  0.00  0.00    +0.000 HD
BRANCH   9  12
ATOM     12  C   UNL     1      50.036   8.153  14.040  0.00  0.00    +0.000 A 
ATOM     13  C   UNL     1      50.217   9.107  13.046  0.00  0.00    +0.000 A 
ATOM     14  S   UNL     1      51.842   9.583  12.842  0.00  0.00    +0.000 S 
ATOM     15  C   UNL     1      52.354   8.570  14.109  0.00  0.00    +0.000 A 
ATOM     16  N   UNL     1      53.660   8.530  14.488  0.00  0.00    +0.000 NA
ATOM     17  C   UNL     1      53.900   7.748  15.486  0.00  0.00    +0.000 A 
ATOM     18  N   UNL     1      52.955   6.992  16.132  0.00  0.00    +0.000 N 
ATOM     19  C   UNL     1      51.634   6.967  15.755  0.00  0.00    +0.000 A 
ATOM     20  O   UNL     1      50.827   6.228  16.311  0.00  0.00    +0.000 OA
ATOM     21  C   UNL     1      51.305   7.853  14.657  0.00  0.00    +0.000 A 
ATOM     22  H   UNL     1      53.213   6.385  16.896  0.00  0.00    +0.000 HD
ENDBRANCH   9  12
ENDBRANCH   7  10
ENDBRANCH   1   7
BRANCH   4  23
ATOM     23  C   UNL     1      43.659   4.538  10.038  0.00  0.00    +0.000 C 
BRANCH  23  24
ATOM     24  N   UNL     1      44.259   3.690   9.038  0.00  0.00    +0.000 N 
ATOM     25  C   UNL     1      45.384   4.086   8.348  0.00  0.00    +0.000 C 
ATOM     26  O   UNL     1      45.851   5.220   8.413  0.00  0.00    +0.000 OA
ATOM     27  H   UNL     1      44.054   2.693   9.011  0.00  0.00    +0.000 HD
BRANCH  25  28
ATOM     28  C   UNL     1      45.982   3.001   7.437  0.00  0.00    +0.000 C 
ATOM     29  C   UNL     1      46.224   1.694   8.165  0.00  0.00    +0.000 C 
ATOM     30  C   UNL     1      47.249   1.002   7.286  0.00  0.00    +0.000 C 
ATOM     31  C   UNL     1      48.043   2.135   6.651  0.00  0.00    +0.000 C 
ATOM     32  N   UNL     1      47.347   3.381   6.982  0.00  0.00    +0.000 NA
ATOM     33  H   UNL     1      47.273   3.978   6.157  0.00  0.00    +0.000 HD
ENDBRANCH  25  28
ENDBRANCH  23  24
ENDBRANCH   4  23
TORSDOF 6
ENDMDL
MODEL 7
REMARK VINA RESULT:    -6.778      2.443      3.993
REMARK INTER + INTRA:         -10.142
REMARK INTER:                  -9.351
REMARK INTRA:                  -0.790
REMARK UNBOUND:                -0.986
REMARK  Name = 
REMARK  6 active torsions:
REMARK  status: ('A' for Active; 'I' for Inactive)
REMARK    1  A    between atoms: C_2  and  C_20
REMARK    2  A    between atoms: N_3  and  C_4
REMARK    3  A    between atoms: C_4  and  C_5
REMARK    4  A    between atoms: C_8  and  C_9
REMARK    5  A    between atoms: C_9  and  N_10
REMARK    6  A    between atoms: C_11  and  C_13
REMARK                            x       y       z     vdW  Elec       q    Type
REMARK                         _______ _______ _______ _____ _____    ______ ____
ROOT
ATOM      1  C   UNL     1      48.688   7.265  13.464  0.00  0.00    +0.000 A 
ATOM      2  C   UNL     1      48.599   7.707  12.137  0.00  0.00    +0.000 A 
ATOM      3  C   UNL     1      47.518   7.335  11.330  0.00  0.00    +0.000 A 
ATOM      4  C   UNL     1      46.488   6.531  11.839  0.00  0.00    +0.000 A 
ATOM      5  C   UNL     1      46.566   6.110  13.173  0.00  0.00    +0.000 A 
ATOM      6  C   UNL     1      47.647   6.482  13.979  0.00  0.00    +0.000 A 
ENDROOT
BRANCH   1   7
ATOM      7  C   UNL     1      49.891   7.603  14.307  0.00  0.00    +0.000 C 
BRANCH   7  10
ATOM      8  O   UNL     1      51.515   6.185  16.020  0.00  0.00    +0.000 OA
ATOM      9  C   UNL     1      50.552   6.776  16.504  0.00  0.00    +0.000 C 
ATOM     10  N   UNL     1      49.648   7.454  15.720  0.00  0.00    +0.000 N 
ATOM     11  H   UNL     1      48.995   8.100  16.154  0.00  0.00    +0.000 HD
BRANCH   9  12
ATOM     12  C   UNL     1      50.300   6.756  17.950  0.00  0.00    +0.000 A 
ATOM     13  C   UNL     1      50.631   7.861  18.723  0.00  0.00    +0.000 A 
ATOM     14  S   UNL     1      50.271   7.671  20.379  0.00  0.00    +0.000 S 
ATOM     15  C   UNL     1      49.612   6.126  20.114  0.00  0.00    +0.000 A 
ATOM     16  N   UNL     1      49.072   5.410  21.137  0.00  0.00    +0.000 NA
ATOM     17  C   UNL     1      48.574   4.272  20.786  0.00  0.00    +0.000 A 
ATOM     18  N   UNL     1      48.577   3.780  19.506  0.00  0.00    +0.000 N 
ATOM     19  C   UNL     1      49.149   4.447  18.450  0.00  0.00    +0.000 A 
ATOM     20  O   UNL     1      49.195   3.948  17.330  0.00  0.00    +0.000 OA
ATOM     21  C   UNL     1      49.696   5.747  18.785  0.00  0.00    +0.000 A 
ATOM     22  H   UNL     1      48.186   2.872  19.301  0.00  0.00    +0.000 HD
ENDBRANCH   9  12
ENDBRANCH   7  10
ENDBRANCH   1   7
BRANCH   4  23
ATOM     23  C   UNL     1      45.324   6.124  10.973  0.00  0.00    +0.000 C 
BRANCH  23  24
ATOM     24  N   UNL     1      45.694   5.161   9.966  0.00  0.00    +0.000 N 
ATOM     25  C   UNL     1      44.741   4.420   9.301  0.00  0.00    +0.000 C 
ATOM     26  O   UNL     1      43.555   4.406   9.619  0.00  0.00    +0.000 OA
ATOM     27  H   UNL     1      46.610   5.198   9.523  0.00  0.00    +0.000 HD
BRANCH  25  28
ATOM     28  C   UNL     1      45.295   3.559   8.154  0.00  0.00    +0.000 C 
ATOM     29  C   UNL     1      45.804   2.211   8.627  0.00  0.00    +0.000 C 
ATOM     30  C   UNL     1      46.737   1.790   7.508  0.00  0.00    +0.000 C 
ATOM     31  C   UNL     1      47.278   3.096   6.942  0.00  0.00    +0.000 C 
ATOM     32  N   UNL     1      46.511   4.179   7.562  0.00  0.00    +0.000 NA
ATOM     33  H   UNL     1      46.231   4.865   6.860  0.00  0.00    +0.000 HD
ENDBRANCH  25  28
ENDBRANCH  23  24
ENDBRANCH   4  23
TORSDOF 6
ENDMDL
MODEL 8
REMARK VINA RESULT:    -6.659      4.469      8.939
REMARK INTER + INTRA:          -9.981
REMARK INTER:                  -9.278
REMARK INTRA:                  -0.703
REMARK UNBOUND:                -0.986
REMARK  Name = 
REMARK  6 active torsions:
REMARK  status: ('A' for Active; 'I' for Inactive)
REMARK    1  A    between atoms: C_2  and  C_20
REMARK    2  A    between atoms: N_3  and  C_4
REMARK    3  A    between atoms: C_4  and  C_5
REMARK    4  A    between atoms: C_8  and  C_9
REMARK    5  A    between atoms: C_9  and  N_10
REMARK    6  A    between atoms: C_11  and  C_13
REMARK                            x       y       z     vdW  Elec       q    Type
REMARK                         _______ _______ _______ _____ _____    ______ ____
ROOT
ATOM      1  C   UNL     1      49.194   6.496  15.961  0.00  0.00    +0.000 A 
ATOM      2  C   UNL     1      48.219   5.556  16.321  0.00  0.00    +0.000 A 
ATOM      3  C   UNL     1      48.540   4.474  17.149  0.00  0.00    +0.000 A 
ATOM      4  C   UNL     1      49.838   4.320  17.655  0.00  0.00    +0.000 A 
ATOM      5  C   UNL     1      50.806   5.273  17.314  0.00  0.00    +0.000 A 
ATOM      6  C   UNL     1      50.485   6.355  16.486  0.00  0.00    +0.000 A 
ENDROOT
BRANCH   1   7
ATOM      7  C   UNL     1      48.866   7.616  15.008  0.00  0.00    +0.000 C 
BRANCH   7  10
ATOM      8  O   UNL     1      48.630   5.985  12.802  0.00  0.00    +0.000 OA
ATOM      9  C   UNL     1      47.609   6.516  13.232  0.00  0.00    +0.000 C 
ATOM     10  N   UNL     1      47.637   7.399  14.286  0.00  0.00    +0.000 N 
ATOM     11  H   UNL     1      46.771   7.654  14.748  0.00  0.00    +0.000 HD
BRANCH   9  12
ATOM     12  C   UNL     1      46.303   6.259  12.611  0.00  0.00    +0.000 A 
ATOM     13  C   UNL     1      45.639   7.285  11.952  0.00  0.00    +0.000 A 
ATOM     14  S   UNL     1      44.140   6.816  11.289  0.00  0.00    +0.000 S 
ATOM     15  C   UNL     1      44.348   5.212  11.815  0.00  0.00    +0.000 A 
ATOM     16  N   UNL     1      43.422   4.256  11.532  0.00  0.00    +0.000 NA
ATOM     17  C   UNL     1      43.727   3.077  11.958  0.00  0.00    +0.000 A 
ATOM     18  N   UNL     1      44.869   2.768  12.651  0.00  0.00    +0.000 N 
ATOM     19  C   UNL     1      45.810   3.707  12.998  0.00  0.00    +0.000 A 
ATOM     20  O   UNL     1      46.788   3.409  13.677  0.00  0.00    +0.000 OA
ATOM     21  C   UNL     1      45.530   5.045  12.515  0.00  0.00    +0.000 A 
ATOM     22  H   UNL     1      45.039   1.826  12.972  0.00  0.00    +0.000 HD
ENDBRANCH   9  12
ENDBRANCH   7  10
ENDBRANCH   1   7
BRANCH   4  23
ATOM     23  C   UNL     1      50.190   3.154  18.544  0.00  0.00    +0.000 C 
BRANCH  23  24
ATOM     24  N   UNL     1      51.590   2.818  18.486  0.00  0.00    +0.000 N 
ATOM     25  C   UNL     1      52.035   1.728  17.769  0.00  0.00    +0.000 C 
ATOM     26  O   UNL     1      51.282   0.894  17.276  0.00  0.00    +0.000 OA
ATOM     27  H   UNL     1      52.301   3.508  18.722  0.00  0.00    +0.000 HD
BRANCH  25  28
ATOM     28  C   UNL     1      53.565   1.608  17.683  0.00  0.00    +0.000 C 
ATOM     29  C   UNL     1      54.015   0.321  17.020  0.00  0.00    +0.000 C 
ATOM     30  C   UNL     1      55.444   0.171  17.506  0.00  0.00    +0.000 C 
ATOM     31  C   UNL     1      55.457   0.829  18.879  0.00  0.00    +0.000 C 
ATOM     32  N   UNL     1      54.168   1.506  19.040  0.00  0.00    +0.000 NA
ATOM     33  H   UNL     1      54.302   2.443  19.420  0.00  0.00    +0.000 HD
ENDBRANCH  25  28
ENDBRANCH  23  24
ENDBRANCH   4  23
TORSDOF 6
ENDMDL
MODEL 9
REMARK VINA RESULT:    -6.381      1.973      2.331
REMARK INTER + INTRA:          -9.604
REMARK INTER:                  -9.263
REMARK INTRA:                  -0.341
REMARK UNBOUND:                -0.986
REMARK  Name = 
REMARK  6 active torsions:
REMARK  status: ('A' for Active; 'I' for Inactive)
REMARK    1  A    between atoms: C_2  and  C_20
REMARK    2  A    between atoms: N_3  and  C_4
REMARK    3  A    between atoms: C_4  and  C_5
REMARK    4  A    between atoms: C_8  and  C_9
REMARK    5  A    between atoms: C_9  and  N_10
REMARK    6  A    between atoms: C_11  and  C_13
REMARK                            x       y       z     vdW  Elec       q    Type
REMARK                         _______ _______ _______ _____ _____    ______ ____
ROOT
ATOM      1  C   UNL     1      45.400   6.733  12.469  0.00  0.00    +0.000 A 
ATOM      2  C   UNL     1      46.129   5.549  12.647  0.00  0.00    +0.000 A 
ATOM      3  C   UNL     1      45.636   4.328  12.172  0.00  0.00    +0.000 A 
ATOM      4  C   UNL     1      44.414   4.266  11.489  0.00  0.00    +0.000 A 
ATOM      5  C   UNL     1      43.697   5.454  11.291  0.00  0.00    +0.000 A 
ATOM      6  C   UNL     1      44.190   6.675  11.765  0.00  0.00    +0.000 A 
ENDROOT
BRANCH   1   7
ATOM      7  C   UNL     1      45.896   8.034  13.047  0.00  0.00    +0.000 C 
BRANCH   7  10
ATOM      8  O   UNL     1      47.975   9.830  13.234  0.00  0.00    +0.000 OA
ATOM      9  C   UNL     1      47.996   8.852  13.978  0.00  0.00    +0.000 C 
ATOM     10  N   UNL     1      47.038   7.867  13.911  0.00  0.00    +0.000 N 
ATOM     11  H   UNL     1      46.961   7.192  14.665  0.00  0.00    +0.000 HD
BRANCH   9  12
ATOM     12  C   UNL     1      49.074   8.669  14.957  0.00  0.00    +0.000 A 
ATOM     13  C   UNL     1      48.783   8.687  16.315  0.00  0.00    +0.000 A 
ATOM     14  S   UNL     1      50.148   8.459  17.312  0.00  0.00    +0.000 S 
ATOM     15  C   UNL     1      51.169   8.276  15.963  0.00  0.00    +0.000 A 
ATOM     16  N   UNL     1      52.494   8.009  16.119  0.00  0.00    +0.000 NA
ATOM     17  C   UNL     1      53.140   7.856  15.012  0.00  0.00    +0.000 A 
ATOM     18  N   UNL     1      52.583   7.958  13.763  0.00  0.00    +0.000 N 
ATOM     19  C   UNL     1      51.261   8.270  13.556  0.00  0.00    +0.000 A 
ATOM     20  O   UNL     1      50.811   8.420  12.425  0.00  0.00    +0.000 OA
ATOM     21  C   UNL     1      50.483   8.420  14.770  0.00  0.00    +0.000 A 
ATOM     22  H   UNL     1      53.150   7.845  12.935  0.00  0.00    +0.000 HD
ENDBRANCH   9  12
ENDBRANCH   7  10
ENDBRANCH   1   7
BRANCH   4  23
ATOM     23  C   UNL     1      43.877   2.953  10.980  0.00  0.00    +0.000 C 
BRANCH  23  24
ATOM     24  N   UNL     1      44.608   2.461   9.840  0.00  0.00    +0.000 N 
ATOM     25  C   UNL     1      44.698   3.196   8.677  0.00  0.00    +0.000 C 
ATOM     26  O   UNL     1      44.046   4.217   8.474  0.00  0.00    +0.000 OA
ATOM     27  H   UNL     1      45.298   1.719   9.944  0.00  0.00    +0.000 HD
BRANCH  25  28
ATOM     28  C   UNL     1      45.643   2.600   7.622  0.00  0.00    +0.000 C 
ATOM     29  C   UNL     1      46.330   1.336   8.100  0.00  0.00    +0.000 C 
ATOM     30  C   UNL     1      47.536   1.240   7.184  0.00  0.00    +0.000 C 
ATOM     31  C   UNL     1      47.880   2.683   6.842  0.00  0.00    +0.000 C 
ATOM     32  N   UNL     1      46.786   3.513   7.353  0.00  0.00    +0.000 NA
ATOM     33  H   UNL     1      46.508   4.205   6.656  0.00  0.00    +0.000 HD
ENDBRANCH  25  28
ENDBRANCH  23  24
ENDBRANCH   4  23
TORSDOF 6
ENDMDL
