MODEL 1
REMARK VINA RESULT:    -9.299      0.000      0.000
REMARK INTER + INTRA:         -13.164
REMARK INTER:                 -12.561
REMARK INTRA:                  -0.604
REMARK UNBOUND:                -0.604
REMARK  Name = 
REMARK  6 active torsions:
REMARK  status: ('A' for Active; 'I' for Inactive)
REMARK    1  A    between atoms: C_2  and  C_3
REMARK    2  A    between atoms: C_6  and  C_7
REMARK    3  A    between atoms: C_7  and  N_8
REMARK    4  A    between atoms: C_11  and  C_12
REMARK    5  A    between atoms: C_12  and  N_13
REMARK    6  A    between atoms: C_14  and  C_16
REMARK                            x       y       z     vdW  Elec       q    Type
REMARK                         _______ _______ _______ _____ _____    ______ ____
ROOT
ATOM      1  C   UNL     1      46.389   7.239  12.085  0.00  0.00    +0.000 C 
ENDROOT
BRANCH   1   5
ATOM      2  N   UNL     1      44.123   4.758  10.900  0.00  0.00    +0.000 N 
ATOM      3  C   UNL     1      43.169   5.660  11.278  0.00  0.00    +0.000 A 
ATOM      4  C   UNL     1      43.851   6.753  11.755  0.00  0.00    +0.000 A 
ATOM      5  C   UNL     1      45.221   6.406  11.663  0.00  0.00    +0.000 A 
ATOM      6  N   UNL     1      45.384   5.177  11.148  0.00  0.00    +0.000 NA
BRANCH   2   7
ATOM      7  C   UNL     1      43.884   3.437  10.331  0.00  0.00    +0.000 C 
BRANCH   7  11
ATOM      8  C   UNL     1      46.731   2.473   7.210  0.00  0.00    +0.000 A 
ATOM      9  C   UNL     1      46.282   3.786   7.366  0.00  0.00    +0.000 A 
ATOM     10  C   UNL     1      45.361   4.099   8.376  0.00  0.00    +0.000 A 
ATOM     11  C   UNL     1      44.873   3.101   9.237  0.00  0.00    +0.000 A 
ATOM     12  C   UNL     1      45.338   1.788   9.077  0.00  0.00    +0.000 A 
ATOM     13  C   UNL     1      46.257   1.486   8.073  0.00  0.00    +0.000 A 
ATOM     14  F   UNL     1      46.679   0.218   7.954  0.00  0.00    +0.000 F 
BRANCH   8  16
ATOM     15  N   UNL     1      48.410   1.853   5.338  0.00  0.00    +0.000 NA
ATOM     16  C   UNL     1      47.667   2.144   6.183  0.00  0.00    +0.000 C 
ENDBRANCH   8  16
ENDBRANCH   7  11
ENDBRANCH   2   7
ENDBRANCH   1   5
BRANCH   1  17
ATOM     17  N   UNL     1      46.767   6.915  13.441  0.00  0.00    +0.000 N 
ATOM     18  C   UNL     1      48.026   6.490  13.762  0.00  0.00    +0.000 C 
ATOM     19  O   UNL     1      48.901   6.330  12.915  0.00  0.00    +0.000 OA
ATOM     20  H   UNL     1      46.067   7.059  14.160  0.00  0.00    +0.000 HD
BRANCH  18  21
ATOM     21  C   UNL     1      48.288   6.223  15.180  0.00  0.00    +0.000 A 
ATOM     22  C   UNL     1      48.802   7.228  15.988  0.00  0.00    +0.000 A 
ATOM     23  S   UNL     1      48.935   6.782  17.628  0.00  0.00    +0.000 S 
ATOM     24  C   UNL     1      48.258   5.251  17.321  0.00  0.00    +0.000 A 
ATOM     25  N   UNL     1      47.980   4.392  18.338  0.00  0.00    +0.000 NA
ATOM     26  C   UNL     1      47.477   3.264  17.961  0.00  0.00    +0.000 A 
ATOM     27  N   UNL     1      47.260   2.904  16.655  0.00  0.00    +0.000 N 
ATOM     28  C   UNL     1      47.542   3.732  15.593  0.00  0.00    +0.000 A 
ATOM     29  O   UNL     1      47.403   3.353  14.435  0.00  0.00    +0.000 OA
ATOM     30  C   UNL     1      48.041   5.041  15.971  0.00  0.00    +0.000 A 
ATOM     31  H   UNL     1      46.915   1.984  16.425  0.00  0.00    +0.000 HD
ENDBRANCH  18  21
ENDBRANCH   1  17
TORSDOF 6
ENDMDL
MODEL 2
REMARK VINA RESULT:    -8.973      1.888      2.902
REMARK INTER + INTRA:         -12.724
REMARK INTER:                 -11.906
REMARK INTRA:                  -0.818
REMARK UNBOUND:                -0.604
REMARK  Name = 
REMARK  6 active torsions:
REMARK  status: ('A' for Active; 'I' for Inactive)
REMARK    1  A    between atoms: C_2  and  C_3
REMARK    2  A    between atoms: C_6  and  C_7
REMARK    3  A    between atoms: C_7  and  N_8
REMARK    4  A    between atoms: C_11  and  C_12
REMARK    5  A    between atoms: C_12  and  N_13
REMARK    6  A    between atoms: C_14  and  C_16
REMARK                            x       y       z     vdW  Elec       q    Type
REMARK                         _______ _______ _______ _____ _____    ______ ____
ROOT
ATOM      1  C   UNL     1      46.874   3.654  14.311  0.00  0.00    +0.000 C 
ENDROOT
BRANCH   1   5
ATOM      2  N   UNL     1      44.695   4.386  11.588  0.00  0.00    +0.000 N 
ATOM      3  C   UNL     1      44.631   5.623  12.165  0.00  0.00    +0.000 A 
ATOM      4  C   UNL     1      45.457   5.572  13.261  0.00  0.00    +0.000 A 
ATOM      5  C   UNL     1      45.953   4.245  13.292  0.00  0.00    +0.000 A 
ATOM      6  N   UNL     1      45.475   3.518  12.270  0.00  0.00    +0.000 NA
BRANCH   2   7
ATOM      7  C   UNL     1      43.984   3.954  10.391  0.00  0.00    +0.000 C 
BRANCH   7  11
ATOM      8  C   UNL     1      46.696   2.545   7.319  0.00  0.00    +0.000 A 
ATOM      9  C   UNL     1      46.463   3.913   7.474  0.00  0.00    +0.000 A 
ATOM     10  C   UNL     1      45.587   4.370   8.468  0.00  0.00    +0.000 A 
ATOM     11  C   UNL     1      44.926   3.463   9.315  0.00  0.00    +0.000 A 
ATOM     12  C   UNL     1      45.174   2.092   9.156  0.00  0.00    +0.000 A 
ATOM     13  C   UNL     1      46.051   1.646   8.168  0.00  0.00    +0.000 A 
ATOM     14  F   UNL     1      46.264   0.327   8.052  0.00  0.00    +0.000 F 
BRANCH   8  16
ATOM     15  N   UNL     1      48.317   1.659   5.504  0.00  0.00    +0.000 NA
ATOM     16  C   UNL     1      47.585   2.070   6.309  0.00  0.00    +0.000 C 
ENDBRANCH   8  16
ENDBRANCH   7  11
ENDBRANCH   2   7
ENDBRANCH   1   5
BRANCH   1  17
ATOM     17  N   UNL     1      47.201   4.640  15.315  0.00  0.00    +0.000 N 
ATOM     18  C   UNL     1      47.296   4.322  16.642  0.00  0.00    +0.000 C 
ATOM     19  O   UNL     1      47.080   3.187  17.061  0.00  0.00    +0.000 OA
ATOM     20  H   UNL     1      47.403   5.578  14.990  0.00  0.00    +0.000 HD
BRANCH  18  21
ATOM     21  C   UNL     1      47.664   5.408  17.554  0.00  0.00    +0.000 A 
ATOM     22  C   UNL     1      47.039   5.514  18.789  0.00  0.00    +0.000 A 
ATOM     23  S   UNL     1      47.668   6.760  19.767  0.00  0.00    +0.000 S 
ATOM     24  C   UNL     1      48.834   7.162  18.595  0.00  0.00    +0.000 A 
ATOM     25  N   UNL     1      49.791   8.094  18.852  0.00  0.00    +0.000 NA
ATOM     26  C   UNL     1      50.605   8.306  17.871  0.00  0.00    +0.000 A 
ATOM     27  N   UNL     1      50.526   7.695  16.646  0.00  0.00    +0.000 N 
ATOM     28  C   UNL     1      49.565   6.761  16.335  0.00  0.00    +0.000 A 
ATOM     29  O   UNL     1      49.478   6.286  15.207  0.00  0.00    +0.000 OA
ATOM     30  C   UNL     1      48.671   6.434  17.430  0.00  0.00    +0.000 A 
ATOM     31  H   UNL     1      51.161   7.947  15.903  0.00  0.00    +0.000 HD
ENDBRANCH  18  21
ENDBRANCH   1  17
TORSDOF 6
ENDMDL
MODEL 3
REMARK VINA RESULT:    -8.638      2.237      3.099
REMARK INTER + INTRA:         -12.272
REMARK INTER:                 -11.211
REMARK INTRA:                  -1.061
REMARK UNBOUND:                -0.604
REMARK  Name = 
REMARK  6 active torsions:
REMARK  status: ('A' for Active; 'I' for Inactive)
REMARK    1  A    between atoms: C_2  and  C_3
REMARK    2  A    between atoms: C_6  and  C_7
REMARK    3  A    between atoms: C_7  and  N_8
REMARK    4  A    between atoms: C_11  and  C_12
REMARK    5  A    between atoms: C_12  and  N_13
REMARK    6  A    between atoms: C_14  and  C_16
REMARK                            x       y       z     vdW  Elec       q    Type
REMARK                         _______ _______ _______ _____ _____    ______ ____
ROOT
ATOM      1  C   UNL     1      46.594   4.842  14.145  0.00  0.00    +0.000 C 
ENDROOT
BRANCH   1   5
ATOM      2  N   UNL     1      44.387   4.426  11.379  0.00  0.00    +0.000 N 
ATOM      3  C   UNL     1      44.047   5.722  11.646  0.00  0.00    +0.000 A 
ATOM      4  C   UNL     1      44.834   6.109  12.702  0.00  0.00    +0.000 A 
ATOM      5  C   UNL     1      45.598   4.964  13.037  0.00  0.00    +0.000 A 
ATOM      6  N   UNL     1      45.313   3.930  12.230  0.00  0.00    +0.000 NA
BRANCH   2   7
ATOM      7  C   UNL     1      43.817   3.581  10.338  0.00  0.00    +0.000 C 
BRANCH   7  11
ATOM      8  C   UNL     1      46.751   2.509   7.334  0.00  0.00    +0.000 A 
ATOM      9  C   UNL     1      46.426   3.850   7.548  0.00  0.00    +0.000 A 
ATOM     10  C   UNL     1      45.477   4.198   8.520  0.00  0.00    +0.000 A 
ATOM     11  C   UNL     1      44.836   3.208   9.285  0.00  0.00    +0.000 A 
ATOM     12  C   UNL     1      45.176   1.865   9.067  0.00  0.00    +0.000 A 
ATOM     13  C   UNL     1      46.124   1.528   8.102  0.00  0.00    +0.000 A 
ATOM     14  F   UNL     1      46.425   0.232   7.927  0.00  0.00    +0.000 F 
BRANCH   8  16
ATOM     15  N   UNL     1      48.501   1.821   5.554  0.00  0.00    +0.000 NA
ATOM     16  C   UNL     1      47.714   2.145   6.345  0.00  0.00    +0.000 C 
ENDBRANCH   8  16
ENDBRANCH   7  11
ENDBRANCH   2   7
ENDBRANCH   1   5
BRANCH   1  17
ATOM     17  N   UNL     1      47.122   6.143  14.484  0.00  0.00    +0.000 N 
ATOM     18  C   UNL     1      48.227   6.662  13.867  0.00  0.00    +0.000 C 
ATOM     19  O   UNL     1      48.853   6.042  13.012  0.00  0.00    +0.000 OA
ATOM     20  H   UNL     1      46.610   6.682  15.173  0.00  0.00    +0.000 HD
BRANCH  18  21
ATOM     21  C   UNL     1      48.642   8.006  14.282  0.00  0.00    +0.000 A 
ATOM     22  C   UNL     1      48.851   8.989  13.326  0.00  0.00    +0.000 A 
ATOM     23  S   UNL     1      49.214  10.518  13.988  0.00  0.00    +0.000 S 
ATOM     24  C   UNL     1      49.049   9.927  15.575  0.00  0.00    +0.000 A 
ATOM     25  N   UNL     1      49.120  10.765  16.645  0.00  0.00    +0.000 NA
ATOM     26  C   UNL     1      48.985  10.181  17.788  0.00  0.00    +0.000 A 
ATOM     27  N   UNL     1      48.821   8.831  17.961  0.00  0.00    +0.000 N 
ATOM     28  C   UNL     1      48.761   7.943  16.912  0.00  0.00    +0.000 A 
ATOM     29  O   UNL     1      48.685   6.734  17.103  0.00  0.00    +0.000 OA
ATOM     30  C   UNL     1      48.833   8.561  15.601  0.00  0.00    +0.000 A 
ATOM     31  H   UNL     1      48.777   8.431  18.887  0.00  0.00    +0.000 HD
ENDBRANCH  18  21
ENDBRANCH   1  17
TORSDOF 6
ENDMDL
MODEL 4
REMARK VINA RESULT:    -8.467      1.843      2.117
REMARK INTER + INTRA:         -12.040
REMARK INTER:                 -11.076
REMARK INTRA:                  -0.964
REMARK UNBOUND:                -0.604
REMARK  Name = 
REMARK  6 active torsions:
REMARK  status: ('A' for Active; 'I' for Inactive)
REMARK    1  A    between atoms: C_2  and  C_3
REMARK    2  A    between atoms: C_6  and  C_7
REMARK    3  A    between atoms: C_7  and  N_8
REMARK    4  A    between atoms: C_11  and  C_12
REMARK    5  A    between atoms: C_12  and  N_13
REMARK    6  A    between atoms: C_14  and  C_16
REMARK                            x       y       z     vdW  Elec       q    Type
REMARK                         _______ _______ _______ _____ _____    ______ ____
ROOT
ATOM      1  C   UNL     1      46.452   7.129  13.250  0.00  0.00    +0.000 C 
ENDROOT
BRANCH   1   5
ATOM      2  N   UNL     1      44.723   4.532  11.527  0.00  0.00    +0.000 N 
ATOM      3  C   UNL     1      45.018   3.800  12.641  0.00  0.00    +0.000 A 
ATOM      4  C   UNL     1      45.684   4.651  13.488  0.00  0.00    +0.000 A 
ATOM      5  C   UNL     1      45.783   5.876  12.783  0.00  0.00    +0.000 A 
ATOM      6  N   UNL     1      45.201   5.796  11.576  0.00  0.00    +0.000 NA
BRANCH   2   7
ATOM      7  C   UNL     1      44.018   4.058  10.343  0.00  0.00    +0.000 C 
BRANCH   7  11
ATOM      8  C   UNL     1      46.743   2.542   7.335  0.00  0.00    +0.000 A 
ATOM      9  C   UNL     1      46.514   3.915   7.443  0.00  0.00    +0.000 A 
ATOM     10  C   UNL     1      45.632   4.407   8.417  0.00  0.00    +0.000 A 
ATOM     11  C   UNL     1      44.965   3.530   9.289  0.00  0.00    +0.000 A 
ATOM     12  C   UNL     1      45.209   2.154   9.177  0.00  0.00    +0.000 A 
ATOM     13  C   UNL     1      46.091   1.673   8.209  0.00  0.00    +0.000 A 
ATOM     14  F   UNL     1      46.301   0.351   8.138  0.00  0.00    +0.000 F 
BRANCH   8  16
ATOM     15  N   UNL     1      48.346   1.626   5.518  0.00  0.00    +0.000 NA
ATOM     16  C   UNL     1      47.637   2.032   6.346  0.00  0.00    +0.000 C 
ENDBRANCH   8  16
ENDBRANCH   7  11
ENDBRANCH   2   7
ENDBRANCH   1   5
BRANCH   1  17
ATOM     17  N   UNL     1      47.717   6.815  13.872  0.00  0.00    +0.000 N 
ATOM     18  C   UNL     1      48.346   7.686  14.718  0.00  0.00    +0.000 C 
ATOM     19  O   UNL     1      47.890   8.797  14.975  0.00  0.00    +0.000 OA
ATOM     20  H   UNL     1      48.103   5.896  13.690  0.00  0.00    +0.000 HD
BRANCH  18  21
ATOM     21  C   UNL     1      49.611   7.233  15.306  0.00  0.00    +0.000 A 
ATOM     22  C   UNL     1      50.796   7.871  14.969  0.00  0.00    +0.000 A 
ATOM     23  S   UNL     1      52.149   7.295  15.831  0.00  0.00    +0.000 S 
ATOM     24  C   UNL     1      51.185   6.213  16.723  0.00  0.00    +0.000 A 
ATOM     25  N   UNL     1      51.715   5.479  17.739  0.00  0.00    +0.000 NA
ATOM     26  C   UNL     1      50.872   4.694  18.324  0.00  0.00    +0.000 A 
ATOM     27  N   UNL     1      49.557   4.551  17.962  0.00  0.00    +0.000 N 
ATOM     28  C   UNL     1      48.983   5.259  16.931  0.00  0.00    +0.000 A 
ATOM     29  O   UNL     1      47.823   5.056  16.587  0.00  0.00    +0.000 OA
ATOM     30  C   UNL     1      49.872   6.209  16.290  0.00  0.00    +0.000 A 
ATOM     31  H   UNL     1      48.965   3.878  18.426  0.00  0.00    +0.000 HD
ENDBRANCH  18  21
ENDBRANCH   1  17
TORSDOF 6
ENDMDL
MODEL 5
REMARK VINA RESULT:    -8.262      1.408      1.863
REMARK INTER + INTRA:         -11.764
REMARK INTER:                 -10.892
REMARK INTRA:                  -0.873
REMARK UNBOUND:                -0.604
REMARK  Name = 
REMARK  6 active torsions:
REMARK  status: ('A' for Active; 'I' for Inactive)
REMARK    1  A    between atoms: C_2  and  C_3
REMARK    2  A    between atoms: C_6  and  C_7
REMARK    3  A    between atoms: C_7  and  N_8
REMARK    4  A    between atoms: C_11  and  C_12
REMARK    5  A    between atoms: C_12  and  N_13
REMARK    6  A    between atoms: C_14  and  C_16
REMARK                            x       y       z     vdW  Elec       q    Type
REMARK                         _______ _______ _______ _____ _____    ______ ____
ROOT
ATOM      1  C   UNL     1      48.271   7.332  12.142  0.00  0.00    +0.000 C 
ENDROOT
BRANCH   1   5
ATOM      2  N   UNL     1      44.990   6.273  11.238  0.00  0.00    +0.000 N 
ATOM      3  C   UNL     1      44.639   7.539  11.612  0.00  0.00    +0.000 A 
ATOM      4  C   UNL     1      45.806   8.161  11.983  0.00  0.00    +0.000 A 
ATOM      5  C   UNL     1      46.815   7.177  11.837  0.00  0.00    +0.000 A 
ATOM      6  N   UNL     1      46.309   6.017  11.390  0.00  0.00    +0.000 NA
BRANCH   2   7
ATOM      7  C   UNL     1      44.088   5.231  10.765  0.00  0.00    +0.000 C 
BRANCH   7  11
ATOM      8  C   UNL     1      46.062   2.428   8.114  0.00  0.00    +0.000 A 
ATOM      9  C   UNL     1      45.288   1.960   9.177  0.00  0.00    +0.000 A 
ATOM     10  C   UNL     1      44.649   2.865  10.036  0.00  0.00    +0.000 A 
ATOM     11  C   UNL     1      44.782   4.251   9.844  0.00  0.00    +0.000 A 
ATOM     12  C   UNL     1      45.553   4.711   8.768  0.00  0.00    +0.000 A 
ATOM     13  C   UNL     1      46.182   3.803   7.916  0.00  0.00    +0.000 A 
ATOM     14  F   UNL     1      46.909   4.283   6.896  0.00  0.00    +0.000 F 
BRANCH   8  16
ATOM     15  N   UNL     1      47.232   0.776   6.499  0.00  0.00    +0.000 NA
ATOM     16  C   UNL     1      46.718   1.514   7.236  0.00  0.00    +0.000 C 
ENDBRANCH   8  16
ENDBRANCH   7  11
ENDBRANCH   2   7
ENDBRANCH   1   5
BRANCH   1  17
ATOM     17  N   UNL     1      48.589   6.678  13.390  0.00  0.00    +0.000 N 
ATOM     18  C   UNL     1      48.549   7.338  14.587  0.00  0.00    +0.000 C 
ATOM     19  O   UNL     1      48.270   8.532  14.669  0.00  0.00    +0.000 OA
ATOM     20  H   UNL     1      48.802   5.688  13.349  0.00  0.00    +0.000 HD
BRANCH  18  21
ATOM     21  C   UNL     1      48.865   6.551  15.783  0.00  0.00    +0.000 A 
ATOM     22  C   UNL     1      49.774   7.041  16.711  0.00  0.00    +0.000 A 
ATOM     23  S   UNL     1      49.935   6.056  18.093  0.00  0.00    +0.000 S 
ATOM     24  C   UNL     1      48.753   4.973  17.522  0.00  0.00    +0.000 A 
ATOM     25  N   UNL     1      48.319   3.940  18.295  0.00  0.00    +0.000 NA
ATOM     26  C   UNL     1      47.427   3.194  17.734  0.00  0.00    +0.000 A 
ATOM     27  N   UNL     1      46.956   3.366  16.458  0.00  0.00    +0.000 N 
ATOM     28  C   UNL     1      47.377   4.384  15.634  0.00  0.00    +0.000 A 
ATOM     29  O   UNL     1      46.988   4.468  14.474  0.00  0.00    +0.000 OA
ATOM     30  C   UNL     1      48.326   5.295  16.247  0.00  0.00    +0.000 A 
ATOM     31  H   UNL     1      46.298   2.713  16.059  0.00  0.00    +0.000 HD
ENDBRANCH  18  21
ENDBRANCH   1  17
TORSDOF 6
ENDMDL
MODEL 6
REMARK VINA RESULT:    -8.212      3.120      4.011
REMARK INTER + INTRA:         -11.696
REMARK INTER:                 -10.890
REMARK INTRA:                  -0.805
REMARK UNBOUND:                -0.604
REMARK  Name = 
REMARK  6 active torsions:
REMARK  status: ('A' for Active; 'I' for Inactive)
REMARK    1  A    between atoms: C_2  and  C_3
REMARK    2  A    between atoms: C_6  and  C_7
REMARK    3  A    between atoms: C_7  and  N_8
REMARK    4  A    between atoms: C_11  and  C_12
REMARK    5  A    between atoms: C_12  and  N_13
REMARK    6  A    between atoms: C_14  and  C_16
REMARK                            x       y       z     vdW  Elec       q    Type
REMARK                         _______ _______ _______ _____ _____    ______ ____
ROOT
ATOM      1  C   UNL     1      45.270   8.055  12.554  0.00  0.00    +0.000 C 
ENDROOT
BRANCH   1   5
ATOM      2  N   UNL     1      44.443   4.787  11.398  0.00  0.00    +0.000 N 
ATOM      3  C   UNL     1      45.154   4.382  12.491  0.00  0.00    +0.000 A 
ATOM      4  C   UNL     1      45.557   5.530  13.127  0.00  0.00    +0.000 A 
ATOM      5  C   UNL     1      45.075   6.591  12.322  0.00  0.00    +0.000 A 
ATOM      6  N   UNL     1      44.400   6.131  11.256  0.00  0.00    +0.000 NA
BRANCH   2   7
ATOM      7  C   UNL     1      43.811   3.922  10.409  0.00  0.00    +0.000 C 
BRANCH   7  11
ATOM      8  C   UNL     1      46.636   2.527   7.435  0.00  0.00    +0.000 A 
ATOM      9  C   UNL     1      46.395   3.894   7.584  0.00  0.00    +0.000 A 
ATOM     10  C   UNL     1      45.482   4.347   8.547  0.00  0.00    +0.000 A 
ATOM     11  C   UNL     1      44.793   3.436   9.366  0.00  0.00    +0.000 A 
ATOM     12  C   UNL     1      45.049   2.067   9.214  0.00  0.00    +0.000 A 
ATOM     13  C   UNL     1      45.962   1.625   8.257  0.00  0.00    +0.000 A 
ATOM     14  F   UNL     1      46.182   0.306   8.146  0.00  0.00    +0.000 F 
BRANCH   8  16
ATOM     15  N   UNL     1      48.339   1.692   5.671  0.00  0.00    +0.000 NA
ATOM     16  C   UNL     1      47.563   2.056   6.456  0.00  0.00    +0.000 C 
ENDBRANCH   8  16
ENDBRANCH   7  11
ENDBRANCH   2   7
ENDBRANCH   1   5
BRANCH   1  17
ATOM     17  N   UNL     1      46.611   8.442  12.184  0.00  0.00    +0.000 N 
ATOM     18  C   UNL     1      47.541   8.820  13.112  0.00  0.00    +0.000 C 
ATOM     19  O   UNL     1      47.283   8.882  14.311  0.00  0.00    +0.000 OA
ATOM     20  H   UNL     1      46.853   8.379  11.201  0.00  0.00    +0.000 HD
BRANCH  18  21
ATOM     21  C   UNL     1      48.875   9.160  12.607  0.00  0.00    +0.000 A 
ATOM     22  C   UNL     1      49.009  10.095  11.590  0.00  0.00    +0.000 A 
ATOM     23  S   UNL     1      50.631  10.456  11.207  0.00  0.00    +0.000 S 
ATOM     24  C   UNL     1      51.205   9.416  12.426  0.00  0.00    +0.000 A 
ATOM     25  N   UNL     1      52.532   9.343  12.715  0.00  0.00    +0.000 NA
ATOM     26  C   UNL     1      52.827   8.509  13.656  0.00  0.00    +0.000 A 
ATOM     27  N   UNL     1      51.918   7.716  14.308  0.00  0.00    +0.000 N 
ATOM     28  C   UNL     1      50.570   7.742  14.038  0.00  0.00    +0.000 A 
ATOM     29  O   UNL     1      49.793   6.969  14.589  0.00  0.00    +0.000 OA
ATOM     30  C   UNL     1      50.179   8.718  13.038  0.00  0.00    +0.000 A 
ATOM     31  H   UNL     1      52.222   7.043  14.997  0.00  0.00    +0.000 HD
ENDBRANCH  18  21
ENDBRANCH   1  17
TORSDOF 6
ENDMDL
MODEL 7
REMARK VINA RESULT:    -7.931      2.211      2.974
REMARK INTER + INTRA:         -11.317
REMARK INTER:                 -10.655
REMARK INTRA:                  -0.662
REMARK UNBOUND:                -0.604
REMARK  Name = 
REMARK  6 active torsions:
REMARK  status: ('A' for Active; 'I' for Inactive)
REMARK    1  A    between atoms: C_2  and  C_3
REMARK    2  A    between atoms: C_6  and  C_7
REMARK    3  A    between atoms: C_7  and  N_8
REMARK    4  A    between atoms: C_11  and  C_12
REMARK    5  A    between atoms: C_12  and  N_13
REMARK    6  A    between atoms: C_14  and  C_16
REMARK                            x       y       z     vdW  Elec       q    Type
REMARK                         _______ _______ _______ _____ _____    ______ ____
ROOT
ATOM      1  C   UNL     1      47.517   6.677  13.173  0.00  0.00    +0.000 C 
ENDROOT
BRANCH   1   5
ATOM      2  N   UNL     1      44.965   4.792  11.552  0.00  0.00    +0.000 N 
ATOM      3  C   UNL     1      44.818   4.213  12.780  0.00  0.00    +0.000 A 
ATOM      4  C   UNL     1      45.722   4.839  13.603  0.00  0.00    +0.000 A 
ATOM      5  C   UNL     1      46.404   5.762  12.773  0.00  0.00    +0.000 A 
ATOM      6  N   UNL     1      45.944   5.722  11.512  0.00  0.00    +0.000 NA
BRANCH   2   7
ATOM      7  C   UNL     1      44.219   4.458  10.345  0.00  0.00    +0.000 C 
BRANCH   7  11
ATOM      8  C   UNL     1      46.761   2.703   7.306  0.00  0.00    +0.000 A 
ATOM      9  C   UNL     1      46.628   4.091   7.392  0.00  0.00    +0.000 A 
ATOM     10  C   UNL     1      45.806   4.660   8.375  0.00  0.00    +0.000 A 
ATOM     11  C   UNL     1      45.102   3.847   9.280  0.00  0.00    +0.000 A 
ATOM     12  C   UNL     1      45.250   2.455   9.190  0.00  0.00    +0.000 A 
ATOM     13  C   UNL     1      46.073   1.898   8.212  0.00  0.00    +0.000 A 
ATOM     14  F   UNL     1      46.191   0.563   8.162  0.00  0.00    +0.000 F 
BRANCH   8  16
ATOM     15  N   UNL     1      48.247   1.631   5.476  0.00  0.00    +0.000 NA
ATOM     16  C   UNL     1      47.594   2.115   6.307  0.00  0.00    +0.000 C 
ENDBRANCH   8  16
ENDBRANCH   7  11
ENDBRANCH   2   7
ENDBRANCH   1   5
BRANCH   1  17
ATOM     17  N   UNL     1      47.818   6.509  14.576  0.00  0.00    +0.000 N 
ATOM     18  C   UNL     1      49.026   6.866  15.107  0.00  0.00    +0.000 C 
ATOM     19  O   UNL     1      49.936   7.323  14.420  0.00  0.00    +0.000 OA
ATOM     20  H   UNL     1      47.075   6.153  15.166  0.00  0.00    +0.000 HD
BRANCH  18  21
ATOM     21  C   UNL     1      49.193   6.671  16.551  0.00  0.00    +0.000 A 
ATOM     22  C   UNL     1      49.577   5.429  17.039  0.00  0.00    +0.000 A 
ATOM     23  S   UNL     1      49.837   5.411  18.724  0.00  0.00    +0.000 S 
ATOM     24  C   UNL     1      49.501   7.074  18.847  0.00  0.00    +0.000 A 
ATOM     25  N   UNL     1      49.658   7.734  20.026  0.00  0.00    +0.000 NA
ATOM     26  C   UNL     1      49.359   8.990  19.977  0.00  0.00    +0.000 A 
ATOM     27  N   UNL     1      48.884   9.636  18.865  0.00  0.00    +0.000 N 
ATOM     28  C   UNL     1      48.693   9.007  17.657  0.00  0.00    +0.000 A 
ATOM     29  O   UNL     1      48.199   9.597  16.701  0.00  0.00    +0.000 OA
ATOM     30  C   UNL     1      49.084   7.610  17.641  0.00  0.00    +0.000 A 
ATOM     31  H   UNL     1      48.617  10.609  18.909  0.00  0.00    +0.000 HD
ENDBRANCH  18  21
ENDBRANCH   1  17
TORSDOF 6
ENDMDL
MODEL 8
REMARK VINA RESULT:    -7.439      2.035      2.548
REMARK INTER + INTRA:         -10.653
REMARK INTER:                  -9.952
REMARK INTRA:                  -0.700
REMARK UNBOUND:                -0.604
REMARK  Name = 
REMARK  6 active torsions:
REMARK  status: ('A' for Active; 'I' for Inactive)
REMARK    1  A    between atoms: C_2  and  C_3
REMARK    2  A    between atoms: C_6  and  C_7
REMARK    3  A    between atoms: C_7  and  N_8
REMARK    4  A    between atoms: C_11  and  C_12
REMARK    5  A    between atoms: C_12  and  N_13
REMARK    6  A    between atoms: C_14  and  C_16
REMARK                            x       y       z     vdW  Elec       q    Type
REMARK                         _______ _______ _______ _____ _____    ______ ____
ROOT
ATOM      1  C   UNL     1      48.188   6.908  13.619  0.00  0.00    +0.000 C 
ENDROOT
BRANCH   1   5
ATOM      2  N   UNL     1      45.210   5.549  12.210  0.00  0.00    +0.000 N 
ATOM      3  C   UNL     1      44.719   6.808  12.408  0.00  0.00    +0.000 A 
ATOM      4  C   UNL     1      45.754   7.539  12.938  0.00  0.00    +0.000 A 
ATOM      5  C   UNL     1      46.829   6.625  13.063  0.00  0.00    +0.000 A 
ATOM      6  N   UNL     1      46.488   5.403  12.625  0.00  0.00    +0.000 NA
BRANCH   2   7
ATOM      7  C   UNL     1      44.479   4.413  11.664  0.00  0.00    +0.000 C 
BRANCH   7  11
ATOM      8  C   UNL     1      45.990   3.220   7.782  0.00  0.00    +0.000 A 
ATOM      9  C   UNL     1      45.939   4.572   8.128  0.00  0.00    +0.000 A 
ATOM     10  C   UNL     1      45.451   4.959   9.384  0.00  0.00    +0.000 A 
ATOM     11  C   UNL     1      45.001   3.999  10.306  0.00  0.00    +0.000 A 
ATOM     12  C   UNL     1      45.064   2.644   9.951  0.00  0.00    +0.000 A 
ATOM     13  C   UNL     1      45.555   2.267   8.702  0.00  0.00    +0.000 A 
ATOM     14  F   UNL     1      45.604   0.961   8.402  0.00  0.00    +0.000 F 
BRANCH   8  16
ATOM     15  N   UNL     1      46.867   2.511   5.450  0.00  0.00    +0.000 NA
ATOM     16  C   UNL     1      46.483   2.817   6.504  0.00  0.00    +0.000 C 
ENDBRANCH   8  16
ENDBRANCH   7  11
ENDBRANCH   2   7
ENDBRANCH   1   5
BRANCH   1  17
ATOM     17  N   UNL     1      48.080   7.363  14.986  0.00  0.00    +0.000 N 
ATOM     18  C   UNL     1      48.904   6.900  15.973  0.00  0.00    +0.000 C 
ATOM     19  O   UNL     1      49.764   6.048  15.765  0.00  0.00    +0.000 OA
ATOM     20  H   UNL     1      47.390   8.081  15.178  0.00  0.00    +0.000 HD
BRANCH  18  21
ATOM     21  C   UNL     1      48.709   7.465  17.312  0.00  0.00    +0.000 A 
ATOM     22  C   UNL     1      48.871   8.828  17.516  0.00  0.00    +0.000 A 
ATOM     23  S   UNL     1      48.493   9.330  19.100  0.00  0.00    +0.000 S 
ATOM     24  C   UNL     1      48.047   7.751  19.550  0.00  0.00    +0.000 A 
ATOM     25  N   UNL     1      47.508   7.498  20.773  0.00  0.00    +0.000 NA
ATOM     26  C   UNL     1      47.225   6.256  20.983  0.00  0.00    +0.000 A 
ATOM     27  N   UNL     1      47.465   5.239  20.095  0.00  0.00    +0.000 N 
ATOM     28  C   UNL     1      48.024   5.444  18.855  0.00  0.00    +0.000 A 
ATOM     29  O   UNL     1      48.291   4.505  18.112  0.00  0.00    +0.000 OA
ATOM     30  C   UNL     1      48.292   6.836  18.542  0.00  0.00    +0.000 A 
ATOM     31  H   UNL     1      47.270   4.280  20.343  0.00  0.00    +0.000 HD
ENDBRANCH  18  21
ENDBRANCH   1  17
TORSDOF 6
ENDMDL
MODEL 9
REMARK VINA RESULT:    -7.348      4.017      8.424
REMARK INTER + INTRA:         -10.530
REMARK INTER:                  -9.554
REMARK INTRA:                  -0.975
REMARK UNBOUND:                -0.604
REMARK  Name = 
REMARK  6 active torsions:
REMARK  status: ('A' for Active; 'I' for Inactive)
REMARK    1  A    between atoms: C_2  and  C_3
REMARK    2  A    between atoms: C_6  and  C_7
REMARK    3  A    between atoms: C_7  and  N_8
REMARK    4  A    between atoms: C_11  and  C_12
REMARK    5  A    between atoms: C_12  and  N_13
REMARK    6  A    between atoms: C_14  and  C_16
REMARK                            x       y       z     vdW  Elec       q    Type
REMARK                         _______ _______ _______ _____ _____    ______ ____
ROOT
ATOM      1  C   UNL     1      48.490   6.854  14.279  0.00  0.00    +0.000 C 
ENDROOT
BRANCH   1   5
ATOM      2  N   UNL     1      48.903   5.196  17.406  0.00  0.00    +0.000 N 
ATOM      3  C   UNL     1      48.959   6.467  17.904  0.00  0.00    +0.000 A 
ATOM      4  C   UNL     1      48.783   7.303  16.828  0.00  0.00    +0.000 A 
ATOM      5  C   UNL     1      48.666   6.446  15.706  0.00  0.00    +0.000 A 
ATOM      6  N   UNL     1      48.750   5.154  16.064  0.00  0.00    +0.000 NA
BRANCH   2   7
ATOM      7  C   UNL     1      49.039   3.963  18.171  0.00  0.00    +0.000 C 
BRANCH   7  11
ATOM      8  C   UNL     1      53.081   2.403  18.079  0.00  0.00    +0.000 A 
ATOM      9  C   UNL     1      52.815   3.623  18.705  0.00  0.00    +0.000 A 
ATOM     10  C   UNL     1      51.508   4.128  18.736  0.00  0.00    +0.000 A 
ATOM     11  C   UNL     1      50.451   3.423  18.134  0.00  0.00    +0.000 A 
ATOM     12  C   UNL     1      50.728   2.195  17.516  0.00  0.00    +0.000 A 
ATOM     13  C   UNL     1      52.030   1.697  17.494  0.00  0.00    +0.000 A 
ATOM     14  F   UNL     1      52.253   0.518  16.896  0.00  0.00    +0.000 F 
BRANCH   8  16
ATOM     15  N   UNL     1      55.502   1.486  18.015  0.00  0.00    +0.000 NA
ATOM     16  C   UNL     1      54.409   1.882  18.041  0.00  0.00    +0.000 C 
ENDBRANCH   8  16
ENDBRANCH   7  11
ENDBRANCH   2   7
ENDBRANCH   1   5
BRANCH   1  17
ATOM     17  N   UNL     1      47.191   6.442  13.801  0.00  0.00    +0.000 N 
ATOM     18  C   UNL     1      46.756   6.732  12.538  0.00  0.00    +0.000 C 
ATOM     19  O   UNL     1      47.430   7.385  11.745  0.00  0.00    +0.000 OA
ATOM     20  H   UNL     1      46.625   5.884  14.431  0.00  0.00    +0.000 HD
BRANCH  18  21
ATOM     21  C   UNL     1      45.429   6.231  12.167  0.00  0.00    +0.000 A 
ATOM     22  C   UNL     1      44.495   7.094  11.611  0.00  0.00    +0.000 A 
ATOM     23  S   UNL     1      43.052   6.322  11.134  0.00  0.00    +0.000 S 
ATOM     24  C   UNL     1      43.650   4.800  11.603  0.00  0.00    +0.000 A 
ATOM     25  N   UNL     1      42.943   3.664  11.356  0.00  0.00    +0.000 NA
ATOM     26  C   UNL     1      43.511   2.582  11.773  0.00  0.00    +0.000 A 
ATOM     27  N   UNL     1      44.705   2.537  12.446  0.00  0.00    +0.000 N 
ATOM     28  C   UNL     1      45.446   3.660  12.734  0.00  0.00    +0.000 A 
ATOM     29  O   UNL     1      46.475   3.592  13.400  0.00  0.00    +0.000 OA
ATOM     30  C   UNL     1      44.885   4.895  12.220  0.00  0.00    +0.000 A 
ATOM     31  H   UNL     1      45.068   1.662  12.794  0.00  0.00    +0.000 HD
ENDBRANCH  18  21
ENDBRANCH   1  17
TORSDOF 6
ENDMDL
