MODEL 1
REMARK VINA RESULT:    -8.283      0.000      0.000
REMARK INTER + INTRA:         -13.475
REMARK INTER:                 -12.157
REMARK INTRA:                  -1.317
REMARK UNBOUND:                -1.317
REMARK  Name = 
REMARK  9 active torsions:
REMARK  status: ('A' for Active; 'I' for Inactive)
REMARK    1  A    between atoms: C_1  and  C_2
REMARK    2  A    between atoms: C_2  and  C_3
REMARK    3  A    between atoms: C_3  and  N_4
REMARK    4  A    between atoms: C_3  and  C_26
REMARK    5  A    between atoms: N_4  and  C_5
REMARK    6  A    between atoms: C_5  and  C_6
REMARK    7  A    between atoms: C_9  and  C_10
REMARK    8  A    between atoms: C_10  and  N_11
REMARK    9  A    between atoms: C_12  and  C_14
REMARK                            x       y       z     vdW  Elec       q    Type
REMARK                         _______ _______ _______ _____ _____    ______ ____
ROOT
ATOM      1  C   UNL     1      45.441   6.485  11.193  0.00  0.00    +0.000 C 
ATOM      2  C   UNL     1      44.486   6.055  12.311  0.00  0.00    +0.000 C 
ATOM      3  C   UNL     1      45.117   5.031  13.250  0.00  0.00    +0.000 C 
ATOM      4  C   UNL     1      46.433   5.543  13.863  0.00  0.00    +0.000 C 
ATOM      5  C   UNL     1      47.400   6.049  12.779  0.00  0.00    +0.000 C 
ATOM      6  C   UNL     1      46.734   7.040  11.822  0.00  0.00    +0.000 C 
ENDROOT
BRANCH   1   7
ATOM      7  C   UNL     1      45.780   5.361  10.189  0.00  0.00    +0.000 C 
BRANCH   7   8
ATOM      8  N   UNL     1      44.626   4.911   9.410  0.00  0.00    +0.000 NA
ATOM      9  H   UNL     1      43.770   5.296   9.803  0.00  0.00    +0.000 HD
BRANCH   8  10
ATOM     10  C   UNL     1      44.491   3.442   9.331  0.00  0.00    +0.000 C 
BRANCH  10  11
ATOM     11  C   UNL     1      45.432   2.848   8.283  0.00  0.00    +0.000 A 
ATOM     12  C   UNL     1      45.861   3.635   7.202  0.00  0.00    +0.000 A 
ATOM     13  C   UNL     1      46.783   3.136   6.278  0.00  0.00    +0.000 A 
ATOM     14  C   UNL     1      47.299   1.851   6.423  0.00  0.00    +0.000 A 
ATOM     15  C   UNL     1      46.891   1.058   7.494  0.00  0.00    +0.000 A 
ATOM     16  C   UNL     1      45.963   1.550   8.411  0.00  0.00    +0.000 A 
ENDBRANCH  10  11
BRANCH  10  18
ATOM     17  C   UNL     1      43.267   2.634  11.481  0.00  0.00    +0.000 C 
ATOM     18  C   UNL     1      44.569   2.703  10.693  0.00  0.00    +0.000 C 
ENDBRANCH  10  18
ENDBRANCH   8  10
ENDBRANCH   7   8
ENDBRANCH   1   7
BRANCH   4  19
ATOM     19  C   UNL     1      47.125   4.468  14.718  0.00  0.00    +0.000 C 
BRANCH  19  20
ATOM     20  N   UNL     1      47.244   4.874  16.102  0.00  0.00    +0.000 N 
ATOM     21  C   UNL     1      48.372   5.475  16.602  0.00  0.00    +0.000 C 
ATOM     22  O   UNL     1      49.336   5.759  15.900  0.00  0.00    +0.000 OA
ATOM     23  H   UNL     1      46.627   4.416  16.764  0.00  0.00    +0.000 HD
BRANCH  21  24
ATOM     24  C   UNL     1      48.328   5.832  18.027  0.00  0.00    +0.000 A 
ATOM     25  C   UNL     1      48.341   4.825  18.983  0.00  0.00    +0.000 A 
ATOM     26  S   UNL     1      48.353   5.405  20.586  0.00  0.00    +0.000 S 
ATOM     27  C   UNL     1      48.288   7.021  20.058  0.00  0.00    +0.000 A 
ATOM     28  N   UNL     1      48.251   8.047  20.951  0.00  0.00    +0.000 NA
ATOM     29  C   UNL     1      48.171   9.220  20.416  0.00  0.00    +0.000 A 
ATOM     30  N   UNL     1      48.130   9.459  19.066  0.00  0.00    +0.000 N 
ATOM     31  C   UNL     1      48.199   8.460  18.127  0.00  0.00    +0.000 A 
ATOM     32  O   UNL     1      48.216   8.711  16.925  0.00  0.00    +0.000 OA
ATOM     33  C   UNL     1      48.274   7.118  18.678  0.00  0.00    +0.000 A 
ATOM     34  H   UNL     1      48.072  10.403  18.713  0.00  0.00    +0.000 HD
ENDBRANCH  21  24
ENDBRANCH  19  20
ENDBRANCH   4  19
TORSDOF 8
ENDMDL
MODEL 2
REMARK VINA RESULT:    -8.152      1.589      2.254
REMARK INTER + INTRA:         -13.282
REMARK INTER:                 -12.173
REMARK INTRA:                  -1.109
REMARK UNBOUND:                -1.317
REMARK  Name = 
REMARK  9 active torsions:
REMARK  status: ('A' for Active; 'I' for Inactive)
REMARK    1  A    between atoms: C_1  and  C_2
REMARK    2  A    between atoms: C_2  and  C_3
REMARK    3  A    between atoms: C_3  and  N_4
REMARK    4  A    between atoms: C_3  and  C_26
REMARK    5  A    between atoms: N_4  and  C_5
REMARK    6  A    between atoms: C_5  and  C_6
REMARK    7  A    between atoms: C_9  and  C_10
REMARK    8  A    between atoms: C_10  and  N_11
REMARK    9  A    between atoms: C_12  and  C_14
REMARK                            x       y       z     vdW  Elec       q    Type
REMARK                         _______ _______ _______ _____ _____    ______ ____
ROOT
ATOM      1  C   UNL     1      44.827   6.282  11.436  0.00  0.00    +0.000 C 
ATOM      2  C   UNL     1      44.807   5.602  12.809  0.00  0.00    +0.000 C 
ATOM      3  C   UNL     1      46.197   5.519  13.434  0.00  0.00    +0.000 C 
ATOM      4  C   UNL     1      46.862   6.902  13.551  0.00  0.00    +0.000 C 
ATOM      5  C   UNL     1      46.845   7.650  12.207  0.00  0.00    +0.000 C 
ATOM      6  C   UNL     1      45.451   7.683  11.577  0.00  0.00    +0.000 C 
ENDROOT
BRANCH   1   7
ATOM      7  C   UNL     1      45.571   5.476  10.348  0.00  0.00    +0.000 C 
BRANCH   7   8
ATOM      8  N   UNL     1      44.687   4.952   9.306  0.00  0.00    +0.000 NA
ATOM      9  H   UNL     1      43.752   5.339   9.417  0.00  0.00    +0.000 HD
BRANCH   8  10
ATOM     10  C   UNL     1      44.588   3.478   9.289  0.00  0.00    +0.000 C 
BRANCH  10  11
ATOM     11  C   UNL     1      45.521   2.867   8.243  0.00  0.00    +0.000 A 
ATOM     12  C   UNL     1      45.990   3.654   7.178  0.00  0.00    +0.000 A 
ATOM     13  C   UNL     1      46.905   3.136   6.258  0.00  0.00    +0.000 A 
ATOM     14  C   UNL     1      47.374   1.831   6.390  0.00  0.00    +0.000 A 
ATOM     15  C   UNL     1      46.925   1.038   7.444  0.00  0.00    +0.000 A 
ATOM     16  C   UNL     1      46.004   1.548   8.358  0.00  0.00    +0.000 A 
ENDBRANCH  10  11
BRANCH  10  18
ATOM     17  C   UNL     1      43.418   2.641  11.457  0.00  0.00    +0.000 C 
ATOM     18  C   UNL     1      44.716   2.797  10.677  0.00  0.00    +0.000 C 
ENDBRANCH  10  18
ENDBRANCH   8  10
ENDBRANCH   7   8
ENDBRANCH   1   7
BRANCH   4  19
ATOM     19  C   UNL     1      48.305   6.803  14.074  0.00  0.00    +0.000 C 
BRANCH  19  20
ATOM     20  N   UNL     1      48.363   6.899  15.516  0.00  0.00    +0.000 N 
ATOM     21  C   UNL     1      49.525   6.714  16.224  0.00  0.00    +0.000 C 
ATOM     22  O   UNL     1      50.605   6.510  15.679  0.00  0.00    +0.000 OA
ATOM     23  H   UNL     1      47.489   6.774  16.015  0.00  0.00    +0.000 HD
BRANCH  21  24
ATOM     24  C   UNL     1      49.415   6.854  17.682  0.00  0.00    +0.000 A 
ATOM     25  C   UNL     1      49.612   8.099  18.264  0.00  0.00    +0.000 A 
ATOM     26  S   UNL     1      49.384   8.107  19.953  0.00  0.00    +0.000 S 
ATOM     27  C   UNL     1      49.064   6.436  19.972  0.00  0.00    +0.000 A 
ATOM     28  N   UNL     1      48.802   5.787  21.139  0.00  0.00    +0.000 NA
ATOM     29  C   UNL     1      48.609   4.516  21.013  0.00  0.00    +0.000 A 
ATOM     30  N   UNL     1      48.648   3.836  19.823  0.00  0.00    +0.000 N 
ATOM     31  C   UNL     1      48.875   4.453  18.617  0.00  0.00    +0.000 A 
ATOM     32  O   UNL     1      48.849   3.824  17.562  0.00  0.00    +0.000 OA
ATOM     33  C   UNL     1      49.114   5.882  18.705  0.00  0.00    +0.000 A 
ATOM     34  H   UNL     1      48.484   2.841  19.794  0.00  0.00    +0.000 HD
ENDBRANCH  21  24
ENDBRANCH  19  20
ENDBRANCH   4  19
TORSDOF 8
ENDMDL
MODEL 3
REMARK VINA RESULT:    -7.836      2.278      3.282
REMARK INTER + INTRA:         -12.818
REMARK INTER:                 -11.219
REMARK INTRA:                  -1.599
REMARK UNBOUND:                -1.317
REMARK  Name = 
REMARK  9 active torsions:
REMARK  status: ('A' for Active; 'I' for Inactive)
REMARK    1  A    between atoms: C_1  and  C_2
REMARK    2  A    between atoms: C_2  and  C_3
REMARK    3  A    between atoms: C_3  and  N_4
REMARK    4  A    between atoms: C_3  and  C_26
REMARK    5  A    between atoms: N_4  and  C_5
REMARK    6  A    between atoms: C_5  and  C_6
REMARK    7  A    between atoms: C_9  and  C_10
REMARK    8  A    between atoms: C_10  and  N_11
REMARK    9  A    between atoms: C_12  and  C_14
REMARK                            x       y       z     vdW  Elec       q    Type
REMARK                         _______ _______ _______ _____ _____    ______ ____
ROOT
ATOM      1  C   UNL     1      45.992   6.863  11.933  0.00  0.00    +0.000 C 
ATOM      2  C   UNL     1      45.736   8.215  12.606  0.00  0.00    +0.000 C 
ATOM      3  C   UNL     1      46.776   8.535  13.676  0.00  0.00    +0.000 C 
ATOM      4  C   UNL     1      48.210   8.498  13.119  0.00  0.00    +0.000 C 
ATOM      5  C   UNL     1      48.490   7.181  12.375  0.00  0.00    +0.000 C 
ATOM      6  C   UNL     1      47.413   6.858  11.338  0.00  0.00    +0.000 C 
ENDROOT
BRANCH   1   7
ATOM      7  C   UNL     1      45.805   5.649  12.871  0.00  0.00    +0.000 C 
BRANCH   7   8
ATOM      8  N   UNL     1      45.436   4.421  12.165  0.00  0.00    +0.000 NA
ATOM      9  H   UNL     1      46.274   3.927  11.867  0.00  0.00    +0.000 HD
BRANCH   8  10
ATOM     10  C   UNL     1      44.574   4.642  10.987  0.00  0.00    +0.000 C 
BRANCH  10  11
ATOM     11  C   UNL     1      45.108   3.910   9.755  0.00  0.00    +0.000 A 
ATOM     12  C   UNL     1      45.744   4.634   8.733  0.00  0.00    +0.000 A 
ATOM     13  C   UNL     1      46.309   3.974   7.639  0.00  0.00    +0.000 A 
ATOM     14  C   UNL     1      46.259   2.585   7.551  0.00  0.00    +0.000 A 
ATOM     15  C   UNL     1      45.638   1.851   8.559  0.00  0.00    +0.000 A 
ATOM     16  C   UNL     1      45.064   2.507   9.647  0.00  0.00    +0.000 A 
ENDBRANCH  10  11
BRANCH  10  18
ATOM     17  C   UNL     1      42.276   5.564  11.788  0.00  0.00    +0.000 C 
ATOM     18  C   UNL     1      43.061   4.388  11.224  0.00  0.00    +0.000 C 
ENDBRANCH  10  18
ENDBRANCH   8  10
ENDBRANCH   7   8
ENDBRANCH   1   7
BRANCH   4  19
ATOM     19  C   UNL     1      49.261   8.707  14.222  0.00  0.00    +0.000 C 
BRANCH  19  20
ATOM     20  N   UNL     1      49.129   7.731  15.283  0.00  0.00    +0.000 N 
ATOM     21  C   UNL     1      50.200   7.032  15.782  0.00  0.00    +0.000 C 
ATOM     22  O   UNL     1      51.350   7.225  15.401  0.00  0.00    +0.000 OA
ATOM     23  H   UNL     1      48.207   7.332  15.421  0.00  0.00    +0.000 HD
BRANCH  21  24
ATOM     24  C   UNL     1      49.897   6.085  16.863  0.00  0.00    +0.000 A 
ATOM     25  C   UNL     1      50.615   6.153  18.049  0.00  0.00    +0.000 A 
ATOM     26  S   UNL     1      50.099   5.032  19.225  0.00  0.00    +0.000 S 
ATOM     27  C   UNL     1      48.932   4.382  18.171  0.00  0.00    +0.000 A 
ATOM     28  N   UNL     1      48.138   3.348  18.559  0.00  0.00    +0.000 NA
ATOM     29  C   UNL     1      47.318   2.932  17.652  0.00  0.00    +0.000 A 
ATOM     30  N   UNL     1      47.219   3.461  16.390  0.00  0.00    +0.000 N 
ATOM     31  C   UNL     1      47.975   4.526  15.965  0.00  0.00    +0.000 A 
ATOM     32  O   UNL     1      47.823   5.012  14.848  0.00  0.00    +0.000 OA
ATOM     33  C   UNL     1      48.925   5.022  16.944  0.00  0.00    +0.000 A 
ATOM     34  H   UNL     1      46.553   3.091  15.729  0.00  0.00    +0.000 HD
ENDBRANCH  21  24
ENDBRANCH  19  20
ENDBRANCH   4  19
TORSDOF 8
ENDMDL
MODEL 4
REMARK VINA RESULT:    -7.243      4.041      9.303
REMARK INTER + INTRA:         -11.948
REMARK INTER:                 -10.467
REMARK INTRA:                  -1.481
REMARK UNBOUND:                -1.317
REMARK  Name = 
REMARK  9 active torsions:
REMARK  status: ('A' for Active; 'I' for Inactive)
REMARK    1  A    between atoms: C_1  and  C_2
REMARK    2  A    between atoms: C_2  and  C_3
REMARK    3  A    between atoms: C_3  and  N_4
REMARK    4  A    between atoms: C_3  and  C_26
REMARK    5  A    between atoms: N_4  and  C_5
REMARK    6  A    between atoms: C_5  and  C_6
REMARK    7  A    between atoms: C_9  and  C_10
REMARK    8  A    between atoms: C_10  and  N_11
REMARK    9  A    between atoms: C_12  and  C_14
REMARK                            x       y       z     vdW  Elec       q    Type
REMARK                         _______ _______ _______ _____ _____    ______ ____
ROOT
ATOM      1  C   UNL     1      48.868   5.651  20.160  0.00  0.00    +0.000 C 
ATOM      2  C   UNL     1      47.662   6.233  19.415  0.00  0.00    +0.000 C 
ATOM      3  C   UNL     1      47.531   5.675  18.001  0.00  0.00    +0.000 C 
ATOM      4  C   UNL     1      47.452   4.138  17.991  0.00  0.00    +0.000 C 
ATOM      5  C   UNL     1      48.610   3.510  18.785  0.00  0.00    +0.000 C 
ATOM      6  C   UNL     1      48.752   4.115  20.183  0.00  0.00    +0.000 C 
ENDROOT
BRANCH   1   7
ATOM      7  C   UNL     1      50.233   6.071  19.570  0.00  0.00    +0.000 C 
BRANCH   7   8
ATOM      8  N   UNL     1      51.287   5.077  19.779  0.00  0.00    +0.000 NA
ATOM      9  H   UNL     1      51.864   5.345  20.573  0.00  0.00    +0.000 HD
BRANCH   8  10
ATOM     10  C   UNL     1      52.161   4.874  18.607  0.00  0.00    +0.000 C 
BRANCH  10  11
ATOM     11  C   UNL     1      52.436   3.389  18.363  0.00  0.00    +0.000 A 
ATOM     12  C   UNL     1      51.496   2.608  17.672  0.00  0.00    +0.000 A 
ATOM     13  C   UNL     1      51.764   1.271  17.370  0.00  0.00    +0.000 A 
ATOM     14  C   UNL     1      52.975   0.694  17.744  0.00  0.00    +0.000 A 
ATOM     15  C   UNL     1      53.923   1.455  18.424  0.00  0.00    +0.000 A 
ATOM     16  C   UNL     1      53.654   2.788  18.736  0.00  0.00    +0.000 A 
ENDBRANCH  10  11
BRANCH  10  18
ATOM     17  C   UNL     1      52.836   6.241  16.499  0.00  0.00    +0.000 C 
ATOM     18  C   UNL     1      51.716   5.619  17.320  0.00  0.00    +0.000 C 
ENDBRANCH  10  18
ENDBRANCH   8  10
ENDBRANCH   7   8
ENDBRANCH   1   7
BRANCH   4  19
ATOM     19  C   UNL     1      47.435   3.573  16.560  0.00  0.00    +0.000 C 
BRANCH  19  20
ATOM     20  N   UNL     1      46.833   4.497  15.623  0.00  0.00    +0.000 N 
ATOM     21  C   UNL     1      46.766   4.246  14.276  0.00  0.00    +0.000 C 
ATOM     22  O   UNL     1      47.163   3.197  13.779  0.00  0.00    +0.000 OA
ATOM     23  H   UNL     1      46.762   5.464  15.921  0.00  0.00    +0.000 HD
BRANCH  21  24
ATOM     24  C   UNL     1      46.116   5.282  13.463  0.00  0.00    +0.000 A 
ATOM     25  C   UNL     1      46.777   6.481  13.230  0.00  0.00    +0.000 A 
ATOM     26  S   UNL     1      45.918   7.549  12.217  0.00  0.00    +0.000 S 
ATOM     27  C   UNL     1      44.610   6.468  12.097  0.00  0.00    +0.000 A 
ATOM     28  N   UNL     1      43.503   6.787  11.372  0.00  0.00    +0.000 NA
ATOM     29  C   UNL     1      42.573   5.891  11.391  0.00  0.00    +0.000 A 
ATOM     30  N   UNL     1      42.653   4.701  12.067  0.00  0.00    +0.000 N 
ATOM     31  C   UNL     1      43.761   4.320  12.783  0.00  0.00    +0.000 A 
ATOM     32  O   UNL     1      43.823   3.223  13.332  0.00  0.00    +0.000 OA
ATOM     33  C   UNL     1      44.831   5.301  12.806  0.00  0.00    +0.000 A 
ATOM     34  H   UNL     1      41.890   4.041  12.037  0.00  0.00    +0.000 HD
ENDBRANCH  21  24
ENDBRANCH  19  20
ENDBRANCH   4  19
TORSDOF 8
ENDMDL
MODEL 5
REMARK VINA RESULT:    -7.153      1.819      2.337
REMARK INTER + INTRA:         -11.816
REMARK INTER:                 -10.072
REMARK INTRA:                  -1.744
REMARK UNBOUND:                -1.317
REMARK  Name = 
REMARK  9 active torsions:
REMARK  status: ('A' for Active; 'I' for Inactive)
REMARK    1  A    between atoms: C_1  and  C_2
REMARK    2  A    between atoms: C_2  and  C_3
REMARK    3  A    between atoms: C_3  and  N_4
REMARK    4  A    between atoms: C_3  and  C_26
REMARK    5  A    between atoms: N_4  and  C_5
REMARK    6  A    between atoms: C_5  and  C_6
REMARK    7  A    between atoms: C_9  and  C_10
REMARK    8  A    between atoms: C_10  and  N_11
REMARK    9  A    between atoms: C_12  and  C_14
REMARK                            x       y       z     vdW  Elec       q    Type
REMARK                         _______ _______ _______ _____ _____    ______ ____
ROOT
ATOM      1  C   UNL     1      46.231   6.778  11.777  0.00  0.00    +0.000 C 
ATOM      2  C   UNL     1      45.630   8.113  12.227  0.00  0.00    +0.000 C 
ATOM      3  C   UNL     1      46.349   8.690  13.443  0.00  0.00    +0.000 C 
ATOM      4  C   UNL     1      47.859   8.860  13.196  0.00  0.00    +0.000 C 
ATOM      5  C   UNL     1      48.494   7.559  12.678  0.00  0.00    +0.000 C 
ATOM      6  C   UNL     1      47.732   6.973  11.487  0.00  0.00    +0.000 C 
ENDROOT
BRANCH   1   7
ATOM      7  C   UNL     1      46.032   5.626  12.788  0.00  0.00    +0.000 C 
BRANCH   7   8
ATOM      8  N   UNL     1      45.550   4.389  12.173  0.00  0.00    +0.000 NA
ATOM      9  H   UNL     1      46.337   3.836  11.843  0.00  0.00    +0.000 HD
BRANCH   8  10
ATOM     10  C   UNL     1      44.618   4.603  11.047  0.00  0.00    +0.000 C 
BRANCH  10  11
ATOM     11  C   UNL     1      45.093   3.887   9.782  0.00  0.00    +0.000 A 
ATOM     12  C   UNL     1      45.734   4.614   8.766  0.00  0.00    +0.000 A 
ATOM     13  C   UNL     1      46.245   3.965   7.639  0.00  0.00    +0.000 A 
ATOM     14  C   UNL     1      46.135   2.583   7.512  0.00  0.00    +0.000 A 
ATOM     15  C   UNL     1      45.509   1.844   8.514  0.00  0.00    +0.000 A 
ATOM     16  C   UNL     1      44.988   2.490   9.634  0.00  0.00    +0.000 A 
ENDBRANCH  10  11
BRANCH  10  18
ATOM     17  C   UNL     1      42.286   5.543  11.717  0.00  0.00    +0.000 C 
ATOM     18  C   UNL     1      43.126   4.322  11.369  0.00  0.00    +0.000 C 
ENDBRANCH  10  18
ENDBRANCH   8  10
ENDBRANCH   7   8
ENDBRANCH   1   7
BRANCH   4  19
ATOM     19  C   UNL     1      48.598   9.334  14.459  0.00  0.00    +0.000 C 
BRANCH  19  20
ATOM     20  N   UNL     1      48.302   8.498  15.602  0.00  0.00    +0.000 N 
ATOM     21  C   UNL     1      49.199   7.591  16.108  0.00  0.00    +0.000 C 
ATOM     22  O   UNL     1      50.335   7.466  15.662  0.00  0.00    +0.000 OA
ATOM     23  H   UNL     1      47.321   8.351  15.815  0.00  0.00    +0.000 HD
BRANCH  21  24
ATOM     24  C   UNL     1      48.745   6.827  17.277  0.00  0.00    +0.000 A 
ATOM     25  C   UNL     1      48.714   5.440  17.215  0.00  0.00    +0.000 A 
ATOM     26  S   UNL     1      48.228   4.701  18.672  0.00  0.00    +0.000 S 
ATOM     27  C   UNL     1      47.992   6.211  19.421  0.00  0.00    +0.000 A 
ATOM     28  N   UNL     1      47.548   6.292  20.705  0.00  0.00    +0.000 NA
ATOM     29  C   UNL     1      47.382   7.498  21.138  0.00  0.00    +0.000 A 
ATOM     30  N   UNL     1      47.626   8.630  20.404  0.00  0.00    +0.000 N 
ATOM     31  C   UNL     1      48.106   8.598  19.118  0.00  0.00    +0.000 A 
ATOM     32  O   UNL     1      48.367   9.631  18.506  0.00  0.00    +0.000 OA
ATOM     33  C   UNL     1      48.295   7.264  18.577  0.00  0.00    +0.000 A 
ATOM     34  H   UNL     1      47.479   9.545  20.805  0.00  0.00    +0.000 HD
ENDBRANCH  21  24
ENDBRANCH  19  20
ENDBRANCH   4  19
TORSDOF 8
ENDMDL
MODEL 6
REMARK VINA RESULT:    -7.116      3.864      9.606
REMARK INTER + INTRA:         -11.761
REMARK INTER:                  -9.801
REMARK INTRA:                  -1.959
REMARK UNBOUND:                -1.317
REMARK  Name = 
REMARK  9 active torsions:
REMARK  status: ('A' for Active; 'I' for Inactive)
REMARK    1  A    between atoms: C_1  and  C_2
REMARK    2  A    between atoms: C_2  and  C_3
REMARK    3  A    between atoms: C_3  and  N_4
REMARK    4  A    between atoms: C_3  and  C_26
REMARK    5  A    between atoms: N_4  and  C_5
REMARK    6  A    between atoms: C_5  and  C_6
REMARK    7  A    between atoms: C_9  and  C_10
REMARK    8  A    between atoms: C_10  and  N_11
REMARK    9  A    between atoms: C_12  and  C_14
REMARK                            x       y       z     vdW  Elec       q    Type
REMARK                         _______ _______ _______ _____ _____    ______ ____
ROOT
ATOM      1  C   UNL     1      51.193   4.793  18.344  0.00  0.00    +0.000 C 
ATOM      2  C   UNL     1      50.976   3.302  18.066  0.00  0.00    +0.000 C 
ATOM      3  C   UNL     1      49.507   2.966  17.828  0.00  0.00    +0.000 C 
ATOM      4  C   UNL     1      48.900   3.799  16.685  0.00  0.00    +0.000 C 
ATOM      5  C   UNL     1      49.153   5.303  16.889  0.00  0.00    +0.000 C 
ATOM      6  C   UNL     1      50.624   5.612  17.170  0.00  0.00    +0.000 C 
ENDROOT
BRANCH   1   7
ATOM      7  C   UNL     1      50.580   5.278  19.677  0.00  0.00    +0.000 C 
BRANCH   7   8
ATOM      8  N   UNL     1      50.375   6.726  19.729  0.00  0.00    +0.000 NA
ATOM      9  H   UNL     1      51.122   7.164  20.264  0.00  0.00    +0.000 HD
BRANCH   8  10
ATOM     10  C   UNL     1      49.079   7.129  20.310  0.00  0.00    +0.000 C 
BRANCH  10  11
ATOM     11  C   UNL     1      48.501   8.353  19.599  0.00  0.00    +0.000 A 
ATOM     12  C   UNL     1      47.563   9.165  20.256  0.00  0.00    +0.000 A 
ATOM     13  C   UNL     1      47.084  10.332  19.653  0.00  0.00    +0.000 A 
ATOM     14  C   UNL     1      47.539  10.712  18.394  0.00  0.00    +0.000 A 
ATOM     15  C   UNL     1      48.475   9.922  17.730  0.00  0.00    +0.000 A 
ATOM     16  C   UNL     1      48.947   8.752  18.323  0.00  0.00    +0.000 A 
ENDBRANCH  10  11
BRANCH  10  18
ATOM     17  C   UNL     1      46.970   5.918  19.385  0.00  0.00    +0.000 C 
ATOM     18  C   UNL     1      48.044   5.982  20.462  0.00  0.00    +0.000 C 
ENDBRANCH  10  18
ENDBRANCH   8  10
ENDBRANCH   7   8
ENDBRANCH   1   7
BRANCH   4  19
ATOM     19  C   UNL     1      47.393   3.541  16.523  0.00  0.00    +0.000 C 
BRANCH  19  20
ATOM     20  N   UNL     1      46.784   4.468  15.593  0.00  0.00    +0.000 N 
ATOM     21  C   UNL     1      46.745   4.240  14.240  0.00  0.00    +0.000 C 
ATOM     22  O   UNL     1      47.173   3.209  13.731  0.00  0.00    +0.000 OA
ATOM     23  H   UNL     1      46.688   5.428  15.906  0.00  0.00    +0.000 HD
BRANCH  21  24
ATOM     24  C   UNL     1      46.084   5.276  13.436  0.00  0.00    +0.000 A 
ATOM     25  C   UNL     1      46.737   6.480  13.205  0.00  0.00    +0.000 A 
ATOM     26  S   UNL     1      45.866   7.548  12.201  0.00  0.00    +0.000 S 
ATOM     27  C   UNL     1      44.564   6.458  12.082  0.00  0.00    +0.000 A 
ATOM     28  N   UNL     1      43.453   6.775  11.364  0.00  0.00    +0.000 NA
ATOM     29  C   UNL     1      42.529   5.872  11.382  0.00  0.00    +0.000 A 
ATOM     30  N   UNL     1      42.619   4.679  12.052  0.00  0.00    +0.000 N 
ATOM     31  C   UNL     1      43.733   4.302  12.761  0.00  0.00    +0.000 A 
ATOM     32  O   UNL     1      43.804   3.203  13.304  0.00  0.00    +0.000 OA
ATOM     33  C   UNL     1      44.796   5.290  12.784  0.00  0.00    +0.000 A 
ATOM     34  H   UNL     1      41.860   4.014  12.022  0.00  0.00    +0.000 HD
ENDBRANCH  21  24
ENDBRANCH  19  20
ENDBRANCH   4  19
TORSDOF 8
ENDMDL
MODEL 7
REMARK VINA RESULT:    -7.058      3.793      9.089
REMARK INTER + INTRA:         -11.676
REMARK INTER:                  -9.451
REMARK INTRA:                  -2.224
REMARK UNBOUND:                -1.317
REMARK  Name = 
REMARK  9 active torsions:
REMARK  status: ('A' for Active; 'I' for Inactive)
REMARK    1  A    between atoms: C_1  and  C_2
REMARK    2  A    between atoms: C_2  and  C_3
REMARK    3  A    between atoms: C_3  and  N_4
REMARK    4  A    between atoms: C_3  and  C_26
REMARK    5  A    between atoms: N_4  and  C_5
REMARK    6  A    between atoms: C_5  and  C_6
REMARK    7  A    between atoms: C_9  and  C_10
REMARK    8  A    between atoms: C_10  and  N_11
REMARK    9  A    between atoms: C_12  and  C_14
REMARK                            x       y       z     vdW  Elec       q    Type
REMARK                         _______ _______ _______ _____ _____    ______ ____
ROOT
ATOM      1  C   UNL     1      50.154   6.119  18.914  0.00  0.00    +0.000 C 
ATOM      2  C   UNL     1      49.996   4.656  19.342  0.00  0.00    +0.000 C 
ATOM      3  C   UNL     1      48.745   4.013  18.751  0.00  0.00    +0.000 C 
ATOM      4  C   UNL     1      48.716   4.108  17.215  0.00  0.00    +0.000 C 
ATOM      5  C   UNL     1      48.938   5.553  16.737  0.00  0.00    +0.000 C 
ATOM      6  C   UNL     1      50.172   6.194  17.375  0.00  0.00    +0.000 C 
ENDROOT
BRANCH   1   7
ATOM      7  C   UNL     1      49.066   7.059  19.479  0.00  0.00    +0.000 C 
BRANCH   7   8
ATOM      8  N   UNL     1      49.532   8.432  19.678  0.00  0.00    +0.000 NA
ATOM      9  H   UNL     1      49.577   8.644  20.672  0.00  0.00    +0.000 HD
BRANCH   8  10
ATOM     10  C   UNL     1      48.694   9.452  19.015  0.00  0.00    +0.000 C 
BRANCH  10  11
ATOM     11  C   UNL     1      49.002   9.547  17.521  0.00  0.00    +0.000 A 
ATOM     12  C   UNL     1      50.296   9.891  17.094  0.00  0.00    +0.000 A 
ATOM     13  C   UNL     1      50.618   9.905  15.735  0.00  0.00    +0.000 A 
ATOM     14  C   UNL     1      49.661   9.569  14.781  0.00  0.00    +0.000 A 
ATOM     15  C   UNL     1      48.374   9.219  15.186  0.00  0.00    +0.000 A 
ATOM     16  C   UNL     1      48.047   9.214  16.541  0.00  0.00    +0.000 A 
ENDBRANCH  10  11
BRANCH  10  18
ATOM     17  C   UNL     1      46.590  10.434  20.190  0.00  0.00    +0.000 C 
ATOM     18  C   UNL     1      47.173   9.340  19.306  0.00  0.00    +0.000 C 
ENDBRANCH  10  18
ENDBRANCH   8  10
ENDBRANCH   7   8
ENDBRANCH   1   7
BRANCH   4  19
ATOM     19  C   UNL     1      47.403   3.562  16.630  0.00  0.00    +0.000 C 
BRANCH  19  20
ATOM     20  N   UNL     1      46.813   4.480  15.679  0.00  0.00    +0.000 N 
ATOM     21  C   UNL     1      46.758   4.217  14.333  0.00  0.00    +0.000 C 
ATOM     22  O   UNL     1      47.153   3.161  13.850  0.00  0.00    +0.000 OA
ATOM     23  H   UNL     1      46.746   5.450  15.967  0.00  0.00    +0.000 HD
BRANCH  21  24
ATOM     24  C   UNL     1      46.120   5.249  13.506  0.00  0.00    +0.000 A 
ATOM     25  C   UNL     1      46.785   6.446  13.276  0.00  0.00    +0.000 A 
ATOM     26  S   UNL     1      45.942   7.509  12.244  0.00  0.00    +0.000 S 
ATOM     27  C   UNL     1      44.634   6.428  12.111  0.00  0.00    +0.000 A 
ATOM     28  N   UNL     1      43.539   6.744  11.369  0.00  0.00    +0.000 NA
ATOM     29  C   UNL     1      42.608   5.849  11.379  0.00  0.00    +0.000 A 
ATOM     30  N   UNL     1      42.677   4.662  12.063  0.00  0.00    +0.000 N 
ATOM     31  C   UNL     1      43.774   4.285  12.797  0.00  0.00    +0.000 A 
ATOM     32  O   UNL     1      43.827   3.191  13.353  0.00  0.00    +0.000 OA
ATOM     33  C   UNL     1      44.845   5.265  12.830  0.00  0.00    +0.000 A 
ATOM     34  H   UNL     1      41.914   4.002  12.026  0.00  0.00    +0.000 HD
ENDBRANCH  21  24
ENDBRANCH  19  20
ENDBRANCH   4  19
TORSDOF 8
ENDMDL
MODEL 8
REMARK VINA RESULT:    -7.028      2.800      3.861
REMARK INTER + INTRA:         -11.632
REMARK INTER:                  -9.916
REMARK INTRA:                  -1.716
REMARK UNBOUND:                -1.317
REMARK  Name = 
REMARK  9 active torsions:
REMARK  status: ('A' for Active; 'I' for Inactive)
REMARK    1  A    between atoms: C_1  and  C_2
REMARK    2  A    between atoms: C_2  and  C_3
REMARK    3  A    between atoms: C_3  and  N_4
REMARK    4  A    between atoms: C_3  and  C_26
REMARK    5  A    between atoms: N_4  and  C_5
REMARK    6  A    between atoms: C_5  and  C_6
REMARK    7  A    between atoms: C_9  and  C_10
REMARK    8  A    between atoms: C_10  and  N_11
REMARK    9  A    between atoms: C_12  and  C_14
REMARK                            x       y       z     vdW  Elec       q    Type
REMARK                         _______ _______ _______ _____ _____    ______ ____
ROOT
ATOM      1  C   UNL     1      46.964   7.180  11.872  0.00  0.00    +0.000 C 
ATOM      2  C   UNL     1      46.488   8.273  12.835  0.00  0.00    +0.000 C 
ATOM      3  C   UNL     1      47.381   8.388  14.066  0.00  0.00    +0.000 C 
ATOM      4  C   UNL     1      48.853   8.635  13.692  0.00  0.00    +0.000 C 
ATOM      5  C   UNL     1      49.356   7.598  12.674  0.00  0.00    +0.000 C 
ATOM      6  C   UNL     1      48.423   7.466  11.469  0.00  0.00    +0.000 C 
ENDROOT
BRANCH   1   7
ATOM      7  C   UNL     1      46.841   5.748  12.438  0.00  0.00    +0.000 C 
BRANCH   7   8
ATOM      8  N   UNL     1      45.489   5.197  12.336  0.00  0.00    +0.000 NA
ATOM      9  H   UNL     1      45.518   4.184  12.428  0.00  0.00    +0.000 HD
BRANCH   8  10
ATOM     10  C   UNL     1      44.795   5.538  11.078  0.00  0.00    +0.000 C 
BRANCH  10  11
ATOM     11  C   UNL     1      45.097   4.520   9.978  0.00  0.00    +0.000 A 
ATOM     12  C   UNL     1      45.813   4.916   8.836  0.00  0.00    +0.000 A 
ATOM     13  C   UNL     1      46.167   3.983   7.858  0.00  0.00    +0.000 A 
ATOM     14  C   UNL     1      45.822   2.643   8.006  0.00  0.00    +0.000 A 
ATOM     15  C   UNL     1      45.117   2.230   9.135  0.00  0.00    +0.000 A 
ATOM     16  C   UNL     1      44.753   3.161  10.108  0.00  0.00    +0.000 A 
ENDBRANCH  10  11
BRANCH  10  18
ATOM     17  C   UNL     1      42.616   5.262  12.473  0.00  0.00    +0.000 C 
ATOM     18  C   UNL     1      43.277   5.829  11.224  0.00  0.00    +0.000 C 
ENDBRANCH  10  18
ENDBRANCH   8  10
ENDBRANCH   7   8
ENDBRANCH   1   7
BRANCH   4  19
ATOM     19  C   UNL     1      49.768   8.637  14.929  0.00  0.00    +0.000 C 
BRANCH  19  20
ATOM     20  N   UNL     1      49.966   7.303  15.454  0.00  0.00    +0.000 N 
ATOM     21  C   UNL     1      49.426   6.889  16.646  0.00  0.00    +0.000 C 
ATOM     22  O   UNL     1      48.692   7.603  17.322  0.00  0.00    +0.000 OA
ATOM     23  H   UNL     1      50.770   6.793  15.105  0.00  0.00    +0.000 HD
BRANCH  21  24
ATOM     24  C   UNL     1      49.716   5.502  17.032  0.00  0.00    +0.000 A 
ATOM     25  C   UNL     1      48.671   4.599  17.166  0.00  0.00    +0.000 A 
ATOM     26  S   UNL     1      49.179   3.018  17.553  0.00  0.00    +0.000 S 
ATOM     27  C   UNL     1      50.810   3.498  17.606  0.00  0.00    +0.000 A 
ATOM     28  N   UNL     1      51.791   2.607  17.912  0.00  0.00    +0.000 NA
ATOM     29  C   UNL     1      52.980   3.110  17.948  0.00  0.00    +0.000 A 
ATOM     30  N   UNL     1      53.276   4.427  17.702  0.00  0.00    +0.000 N 
ATOM     31  C   UNL     1      52.325   5.355  17.357  0.00  0.00    +0.000 A 
ATOM     32  O   UNL     1      52.630   6.514  17.088  0.00  0.00    +0.000 OA
ATOM     33  C   UNL     1      50.967   4.842  17.317  0.00  0.00    +0.000 A 
ATOM     34  H   UNL     1      54.230   4.755  17.743  0.00  0.00    +0.000 HD
ENDBRANCH  21  24
ENDBRANCH  19  20
ENDBRANCH   4  19
TORSDOF 8
ENDMDL
MODEL 9
REMARK VINA RESULT:    -6.879      2.807      4.372
REMARK INTER + INTRA:         -11.414
REMARK INTER:                  -9.276
REMARK INTRA:                  -2.138
REMARK UNBOUND:                -1.317
REMARK  Name = 
REMARK  9 active torsions:
REMARK  status: ('A' for Active; 'I' for Inactive)
REMARK    1  A    between atoms: C_1  and  C_2
REMARK    2  A    between atoms: C_2  and  C_3
REMARK    3  A    between atoms: C_3  and  N_4
REMARK    4  A    between atoms: C_3  and  C_26
REMARK    5  A    between atoms: N_4  and  C_5
REMARK    6  A    between atoms: C_5  and  C_6
REMARK    7  A    between atoms: C_9  and  C_10
REMARK    8  A    between atoms: C_10  and  N_11
REMARK    9  A    between atoms: C_12  and  C_14
REMARK                            x       y       z     vdW  Elec       q    Type
REMARK                         _______ _______ _______ _____ _____    ______ ____
ROOT
ATOM      1  C   UNL     1      47.531   8.545  12.116  0.00  0.00    +0.000 C 
ATOM      2  C   UNL     1      48.161   9.907  12.425  0.00  0.00    +0.000 C 
ATOM      3  C   UNL     1      49.231   9.818  13.510  0.00  0.00    +0.000 C 
ATOM      4  C   UNL     1      50.334   8.806  13.152  0.00  0.00    +0.000 C 
ATOM      5  C   UNL     1      49.742   7.439  12.770  0.00  0.00    +0.000 C 
ATOM      6  C   UNL     1      48.642   7.556  11.714  0.00  0.00    +0.000 C 
ENDROOT
BRANCH   1   7
ATOM      7  C   UNL     1      46.697   7.962  13.279  0.00  0.00    +0.000 C 
BRANCH   7   8
ATOM      8  N   UNL     1      45.457   7.321  12.840  0.00  0.00    +0.000 NA
ATOM      9  H   UNL     1      44.679   7.640  13.414  0.00  0.00    +0.000 HD
BRANCH   8  10
ATOM     10  C   UNL     1      45.498   5.845  12.877  0.00  0.00    +0.000 C 
BRANCH  10  11
ATOM     11  C   UNL     1      45.191   5.241  11.506  0.00  0.00    +0.000 A 
ATOM     12  C   UNL     1      45.877   5.702  10.370  0.00  0.00    +0.000 A 
ATOM     13  C   UNL     1      45.669   5.108   9.123  0.00  0.00    +0.000 A 
ATOM     14  C   UNL     1      44.783   4.042   8.989  0.00  0.00    +0.000 A 
ATOM     15  C   UNL     1      44.098   3.568  10.106  0.00  0.00    +0.000 A 
ATOM     16  C   UNL     1      44.296   4.165  11.351  0.00  0.00    +0.000 A 
ENDBRANCH  10  11
BRANCH  10  18
ATOM     17  C   UNL     1      46.809   3.722  13.614  0.00  0.00    +0.000 C 
ATOM     18  C   UNL     1      46.772   5.242  13.525  0.00  0.00    +0.000 C 
ENDBRANCH  10  18
ENDBRANCH   8  10
ENDBRANCH   7   8
ENDBRANCH   1   7
BRANCH   4  19
ATOM     19  C   UNL     1      51.348   8.634  14.296  0.00  0.00    +0.000 C 
BRANCH  19  20
ATOM     20  N   UNL     1      51.161   7.382  14.998  0.00  0.00    +0.000 N 
ATOM     21  C   UNL     1      51.535   7.205  16.306  0.00  0.00    +0.000 C 
ATOM     22  O   UNL     1      52.003   8.111  16.988  0.00  0.00    +0.000 OA
ATOM     23  H   UNL     1      51.061   6.551  14.425  0.00  0.00    +0.000 HD
BRANCH  21  24
ATOM     24  C   UNL     1      51.268   5.877  16.873  0.00  0.00    +0.000 A 
ATOM     25  C   UNL     1      52.329   5.102  17.323  0.00  0.00    +0.000 A 
ATOM     26  S   UNL     1      51.848   3.619  18.012  0.00  0.00    +0.000 S 
ATOM     27  C   UNL     1      50.208   3.938  17.686  0.00  0.00    +0.000 A 
ATOM     28  N   UNL     1      49.242   3.038  18.013  0.00  0.00    +0.000 NA
ATOM     29  C   UNL     1      48.045   3.392  17.681  0.00  0.00    +0.000 A 
ATOM     30  N   UNL     1      47.727   4.570  17.055  0.00  0.00    +0.000 N 
ATOM     31  C   UNL     1      48.663   5.523  16.736  0.00  0.00    +0.000 A 
ATOM     32  O   UNL     1      48.338   6.592  16.225  0.00  0.00    +0.000 OA
ATOM     33  C   UNL     1      50.028   5.166  17.075  0.00  0.00    +0.000 A 
ATOM     34  H   UNL     1      46.769   4.788  16.826  0.00  0.00    +0.000 HD
ENDBRANCH  21  24
ENDBRANCH  19  20
ENDBRANCH   4  19
TORSDOF 8
ENDMDL
