MODEL 1
REMARK VINA RESULT:    -6.959      0.000      0.000
REMARK INTER + INTRA:          -9.341
REMARK INTER:                  -8.790
REMARK INTRA:                  -0.551
REMARK UNBOUND:                -0.551
REMARK  Name = 
REMARK  5 active torsions:
REMARK  status: ('A' for Active; 'I' for Inactive)
REMARK    1  A    between atoms: N_1  and  C_2
REMARK    2  A    between atoms: C_2  and  C_3
REMARK    3  A    between atoms: C_8  and  N_9
REMARK    4  A    between atoms: N_9  and  C_10
REMARK    5  A    between atoms: C_10  and  C_11
REMARK                            x       y       z     vdW  Elec       q    Type
REMARK                         _______ _______ _______ _____ _____    ______ ____
ROOT
ATOM      1  C   UNL     1      44.448   4.259  12.214  0.00  0.00    +0.000 A 
ATOM      2  C   UNL     1      45.206   4.899  13.215  0.00  0.00    +0.000 A 
ATOM      3  C   UNL     1      46.157   5.854  12.889  0.00  0.00    +0.000 A 
ATOM      4  C   UNL     1      46.322   6.154  11.558  0.00  0.00    +0.000 A 
ATOM      5  N   UNL     1      45.626   5.560  10.563  0.00  0.00    +0.000 NA
ATOM      6  C   UNL     1      44.710   4.613  10.878  0.00  0.00    +0.000 A 
ENDROOT
BRANCH   6   7
ATOM      7  N   UNL     1      44.183   4.025   9.740  0.00  0.00    +0.000 N 
ATOM      8  H   UNL     1      44.149   3.030   9.969  0.00  0.00    +0.000 HD
BRANCH   7   9
ATOM      9  C   UNL     1      44.723   4.286   8.422  0.00  0.00    +0.000 C 
BRANCH   9  10
ATOM     10  C   UNL     1      45.559   3.150   7.886  0.00  0.00    +0.000 A 
ATOM     11  C   UNL     1      46.447   3.271   6.812  0.00  0.00    +0.000 A 
ATOM     12  C   UNL     1      47.257   2.193   6.458  0.00  0.00    +0.000 A 
ATOM     13  C   UNL     1      47.166   1.028   7.200  0.00  0.00    +0.000 A 
ATOM     14  N   UNL     1      46.338   0.875   8.254  0.00  0.00    +0.000 NA
ATOM     15  C   UNL     1      45.564   1.936   8.572  0.00  0.00    +0.000 A 
ENDBRANCH   9  10
ENDBRANCH   7   9
ENDBRANCH   6   7
BRANCH   1  16
ATOM     16  C   UNL     1      43.413   3.226  12.590  0.00  0.00    +0.000 C 
BRANCH  16  17
ATOM     17  N   UNL     1      43.293   2.080  11.684  0.00  0.00    +0.000 NA
ATOM     18  H   UNL     1      42.420   1.594  11.891  0.00  0.00    +0.000 HD
ATOM     19  H   UNL     1      44.035   1.414  11.897  0.00  0.00    +0.000 HD
ENDBRANCH  16  17
ENDBRANCH   1  16
TORSDOF 5
ENDMDL
MODEL 2
REMARK VINA RESULT:    -6.735      1.682      2.312
REMARK INTER + INTRA:          -9.058
REMARK INTER:                  -8.740
REMARK INTRA:                  -0.318
REMARK UNBOUND:                -0.551
REMARK  Name = 
REMARK  5 active torsions:
REMARK  status: ('A' for Active; 'I' for Inactive)
REMARK    1  A    between atoms: N_1  and  C_2
REMARK    2  A    between atoms: C_2  and  C_3
REMARK    3  A    between atoms: C_8  and  N_9
REMARK    4  A    between atoms: N_9  and  C_10
REMARK    5  A    between atoms: C_10  and  C_11
REMARK                            x       y       z     vdW  Elec       q    Type
REMARK                         _______ _______ _______ _____ _____    ______ ____
ROOT
ATOM      1  C   UNL     1      45.041   3.931  12.586  0.00  0.00    +0.000 A 
ATOM      2  C   UNL     1      44.355   4.973  13.243  0.00  0.00    +0.000 A 
ATOM      3  C   UNL     1      43.145   5.447  12.758  0.00  0.00    +0.000 A 
ATOM      4  C   UNL     1      42.645   4.858  11.622  0.00  0.00    +0.000 A 
ATOM      5  N   UNL     1      43.271   3.865  10.953  0.00  0.00    +0.000 NA
ATOM      6  C   UNL     1      44.461   3.412  11.415  0.00  0.00    +0.000 A 
ENDROOT
BRANCH   6   7
ATOM      7  N   UNL     1      45.019   2.487  10.548  0.00  0.00    +0.000 N 
ATOM      8  H   UNL     1      46.020   2.688  10.582  0.00  0.00    +0.000 HD
BRANCH   7   9
ATOM      9  C   UNL     1      44.523   2.305   9.199  0.00  0.00    +0.000 C 
BRANCH   9  10
ATOM     10  C   UNL     1      45.615   2.300   8.159  0.00  0.00    +0.000 A 
ATOM     11  C   UNL     1      45.991   3.423   7.414  0.00  0.00    +0.000 A 
ATOM     12  C   UNL     1      47.085   3.349   6.553  0.00  0.00    +0.000 A 
ATOM     13  C   UNL     1      47.783   2.156   6.474  0.00  0.00    +0.000 A 
ATOM     14  N   UNL     1      47.466   1.055   7.188  0.00  0.00    +0.000 NA
ATOM     15  C   UNL     1      46.400   1.157   8.013  0.00  0.00    +0.000 A 
ENDBRANCH   9  10
ENDBRANCH   7   9
ENDBRANCH   6   7
BRANCH   1  16
ATOM     16  C   UNL     1      46.353   3.425  13.135  0.00  0.00    +0.000 C 
BRANCH  16  17
ATOM     17  N   UNL     1      46.755   3.967  14.438  0.00  0.00    +0.000 NA
ATOM     18  H   UNL     1      47.268   4.834  14.282  0.00  0.00    +0.000 HD
ATOM     19  H   UNL     1      47.421   3.326  14.868  0.00  0.00    +0.000 HD
ENDBRANCH  16  17
ENDBRANCH   1  16
TORSDOF 5
ENDMDL
MODEL 3
REMARK VINA RESULT:    -6.639      1.259      2.516
REMARK INTER + INTRA:          -8.936
REMARK INTER:                  -8.631
REMARK INTRA:                  -0.305
REMARK UNBOUND:                -0.551
REMARK  Name = 
REMARK  5 active torsions:
REMARK  status: ('A' for Active; 'I' for Inactive)
REMARK    1  A    between atoms: N_1  and  C_2
REMARK    2  A    between atoms: C_2  and  C_3
REMARK    3  A    between atoms: C_8  and  N_9
REMARK    4  A    between atoms: N_9  and  C_10
REMARK    5  A    between atoms: C_10  and  C_11
REMARK                            x       y       z     vdW  Elec       q    Type
REMARK                         _______ _______ _______ _____ _____    ______ ____
ROOT
ATOM      1  C   UNL     1      44.429   5.810  11.737  0.00  0.00    +0.000 A 
ATOM      2  C   UNL     1      43.723   5.529  12.924  0.00  0.00    +0.000 A 
ATOM      3  C   UNL     1      43.271   4.247  13.199  0.00  0.00    +0.000 A 
ATOM      4  C   UNL     1      43.545   3.268  12.275  0.00  0.00    +0.000 A 
ATOM      5  N   UNL     1      44.209   3.491  11.119  0.00  0.00    +0.000 NA
ATOM      6  C   UNL     1      44.635   4.746  10.840  0.00  0.00    +0.000 A 
ENDROOT
BRANCH   6   7
ATOM      7  N   UNL     1      45.183   4.821   9.570  0.00  0.00    +0.000 N 
ATOM      8  H   UNL     1      45.266   5.823   9.395  0.00  0.00    +0.000 HD
BRANCH   7   9
ATOM      9  C   UNL     1      44.622   4.093   8.450  0.00  0.00    +0.000 C 
BRANCH   9  10
ATOM     10  C   UNL     1      45.591   3.118   7.829  0.00  0.00    +0.000 A 
ATOM     11  C   UNL     1      46.433   3.427   6.756  0.00  0.00    +0.000 A 
ATOM     12  C   UNL     1      47.373   2.494   6.321  0.00  0.00    +0.000 A 
ATOM     13  C   UNL     1      47.454   1.281   6.984  0.00  0.00    +0.000 A 
ATOM     14  N   UNL     1      46.674   0.949   8.034  0.00  0.00    +0.000 NA
ATOM     15  C   UNL     1      45.772   1.873   8.432  0.00  0.00    +0.000 A 
ENDBRANCH   9  10
ENDBRANCH   7   9
ENDBRANCH   6   7
BRANCH   1  16
ATOM     16  C   UNL     1      44.919   7.210  11.460  0.00  0.00    +0.000 C 
BRANCH  16  17
ATOM     17  N   UNL     1      44.881   8.138  12.596  0.00  0.00    +0.000 NA
ATOM     18  H   UNL     1      44.260   7.753  13.307  0.00  0.00    +0.000 HD
ATOM     19  H   UNL     1      44.447   9.009  12.293  0.00  0.00    +0.000 HD
ENDBRANCH  16  17
ENDBRANCH   1  16
TORSDOF 5
ENDMDL
MODEL 4
REMARK VINA RESULT:    -6.231      1.934      2.430
REMARK INTER + INTRA:          -8.421
REMARK INTER:                  -8.027
REMARK INTRA:                  -0.394
REMARK UNBOUND:                -0.551
REMARK  Name = 
REMARK  5 active torsions:
REMARK  status: ('A' for Active; 'I' for Inactive)
REMARK    1  A    between atoms: N_1  and  C_2
REMARK    2  A    between atoms: C_2  and  C_3
REMARK    3  A    between atoms: C_8  and  N_9
REMARK    4  A    between atoms: N_9  and  C_10
REMARK    5  A    between atoms: C_10  and  C_11
REMARK                            x       y       z     vdW  Elec       q    Type
REMARK                         _______ _______ _______ _____ _____    ______ ____
ROOT
ATOM      1  C   UNL     1      46.076   4.759  12.914  0.00  0.00    +0.000 A 
ATOM      2  C   UNL     1      46.377   6.100  13.227  0.00  0.00    +0.000 A 
ATOM      3  C   UNL     1      45.679   7.145  12.640  0.00  0.00    +0.000 A 
ATOM      4  C   UNL     1      44.683   6.819  11.752  0.00  0.00    +0.000 A 
ATOM      5  N   UNL     1      44.365   5.550  11.413  0.00  0.00    +0.000 NA
ATOM      6  C   UNL     1      45.058   4.529  11.971  0.00  0.00    +0.000 A 
ENDROOT
BRANCH   6   7
ATOM      7  N   UNL     1      44.689   3.311  11.423  0.00  0.00    +0.000 N 
ATOM      8  H   UNL     1      45.503   2.714  11.576  0.00  0.00    +0.000 HD
BRANCH   7   9
ATOM      9  C   UNL     1      44.151   3.206  10.083  0.00  0.00    +0.000 C 
BRANCH   9  10
ATOM     10  C   UNL     1      45.215   3.032   9.028  0.00  0.00    +0.000 A 
ATOM     11  C   UNL     1      45.750   1.795   8.653  0.00  0.00    +0.000 A 
ATOM     12  C   UNL     1      46.651   1.723   7.591  0.00  0.00    +0.000 A 
ATOM     13  C   UNL     1      46.979   2.891   6.923  0.00  0.00    +0.000 A 
ATOM     14  N   UNL     1      46.472   4.100   7.240  0.00  0.00    +0.000 NA
ATOM     15  C   UNL     1      45.603   4.139   8.274  0.00  0.00    +0.000 A 
ENDBRANCH   9  10
ENDBRANCH   7   9
ENDBRANCH   6   7
BRANCH   1  16
ATOM     16  C   UNL     1      46.844   3.637  13.569  0.00  0.00    +0.000 C 
BRANCH  16  17
ATOM     17  N   UNL     1      47.232   3.857  14.967  0.00  0.00    +0.000 NA
ATOM     18  H   UNL     1      48.215   3.609  15.072  0.00  0.00    +0.000 HD
ATOM     19  H   UNL     1      46.718   3.203  15.557  0.00  0.00    +0.000 HD
ENDBRANCH  16  17
ENDBRANCH   1  16
TORSDOF 5
ENDMDL
MODEL 5
REMARK VINA RESULT:    -5.812      1.784      3.064
REMARK INTER + INTRA:          -7.891
REMARK INTER:                  -7.709
REMARK INTRA:                  -0.182
REMARK UNBOUND:                -0.551
REMARK  Name = 
REMARK  5 active torsions:
REMARK  status: ('A' for Active; 'I' for Inactive)
REMARK    1  A    between atoms: N_1  and  C_2
REMARK    2  A    between atoms: C_2  and  C_3
REMARK    3  A    between atoms: C_8  and  N_9
REMARK    4  A    between atoms: N_9  and  C_10
REMARK    5  A    between atoms: C_10  and  C_11
REMARK                            x       y       z     vdW  Elec       q    Type
REMARK                         _______ _______ _______ _____ _____    ______ ____
ROOT
ATOM      1  C   UNL     1      45.491   6.092  12.426  0.00  0.00    +0.000 A 
ATOM      2  C   UNL     1      46.634   6.270  13.231  0.00  0.00    +0.000 A 
ATOM      3  C   UNL     1      47.244   5.192  13.854  0.00  0.00    +0.000 A 
ATOM      4  C   UNL     1      46.693   3.950  13.649  0.00  0.00    +0.000 A 
ATOM      5  N   UNL     1      45.593   3.731  12.895  0.00  0.00    +0.000 NA
ATOM      6  C   UNL     1      44.986   4.786  12.301  0.00  0.00    +0.000 A 
ENDROOT
BRANCH   6   7
ATOM      7  N   UNL     1      43.811   4.402  11.673  0.00  0.00    +0.000 N 
ATOM      8  H   UNL     1      43.118   4.407  12.423  0.00  0.00    +0.000 HD
BRANCH   7   9
ATOM      9  C   UNL     1      43.739   3.220  10.839  0.00  0.00    +0.000 C 
BRANCH   9  10
ATOM     10  C   UNL     1      44.724   3.237   9.697  0.00  0.00    +0.000 A 
ATOM     11  C   UNL     1      45.339   2.093   9.177  0.00  0.00    +0.000 A 
ATOM     12  C   UNL     1      46.152   2.195   8.050  0.00  0.00    +0.000 A 
ATOM     13  C   UNL     1      46.315   3.439   7.464  0.00  0.00    +0.000 A 
ATOM     14  N   UNL     1      45.727   4.563   7.922  0.00  0.00    +0.000 NA
ATOM     15  C   UNL     1      44.946   4.434   9.017  0.00  0.00    +0.000 A 
ENDBRANCH   9  10
ENDBRANCH   7   9
ENDBRANCH   6   7
BRANCH   1  16
ATOM     16  C   UNL     1      44.847   7.279  11.752  0.00  0.00    +0.000 C 
BRANCH  16  17
ATOM     17  N   UNL     1      44.790   8.513  12.543  0.00  0.00    +0.000 NA
ATOM     18  H   UNL     1      43.811   8.772  12.667  0.00  0.00    +0.000 HD
ATOM     19  H   UNL     1      45.209   9.269  12.003  0.00  0.00    +0.000 HD
ENDBRANCH  16  17
ENDBRANCH   1  16
TORSDOF 5
ENDMDL
MODEL 6
REMARK VINA RESULT:    -5.434      4.605      6.508
REMARK INTER + INTRA:          -7.414
REMARK INTER:                  -6.980
REMARK INTRA:                  -0.434
REMARK UNBOUND:                -0.551
REMARK  Name = 
REMARK  5 active torsions:
REMARK  status: ('A' for Active; 'I' for Inactive)
REMARK    1  A    between atoms: N_1  and  C_2
REMARK    2  A    between atoms: C_2  and  C_3
REMARK    3  A    between atoms: C_8  and  N_9
REMARK    4  A    between atoms: N_9  and  C_10
REMARK    5  A    between atoms: C_10  and  C_11
REMARK                            x       y       z     vdW  Elec       q    Type
REMARK                         _______ _______ _______ _____ _____    ______ ____
ROOT
ATOM      1  C   UNL     1      48.224   4.362  17.449  0.00  0.00    +0.000 A 
ATOM      2  C   UNL     1      49.230   3.606  18.083  0.00  0.00    +0.000 A 
ATOM      3  C   UNL     1      49.725   2.447  17.503  0.00  0.00    +0.000 A 
ATOM      4  C   UNL     1      49.201   2.075  16.289  0.00  0.00    +0.000 A 
ATOM      5  N   UNL     1      48.230   2.762  15.648  0.00  0.00    +0.000 NA
ATOM      6  C   UNL     1      47.733   3.883  16.221  0.00  0.00    +0.000 A 
ENDROOT
BRANCH   6   7
ATOM      7  N   UNL     1      46.666   4.390  15.495  0.00  0.00    +0.000 N 
ATOM      8  H   UNL     1      45.913   3.721  15.663  0.00  0.00    +0.000 HD
BRANCH   7   9
ATOM      9  C   UNL     1      46.796   4.760  14.101  0.00  0.00    +0.000 C 
BRANCH   9  10
ATOM     10  C   UNL     1      45.531   4.545  13.308  0.00  0.00    +0.000 A 
ATOM     11  C   UNL     1      44.511   5.495  13.191  0.00  0.00    +0.000 A 
ATOM     12  C   UNL     1      43.429   5.249  12.347  0.00  0.00    +0.000 A 
ATOM     13  C   UNL     1      43.406   4.063  11.632  0.00  0.00    +0.000 A 
ATOM     14  N   UNL     1      44.377   3.129  11.702  0.00  0.00    +0.000 NA
ATOM     15  C   UNL     1      45.412   3.395  12.529  0.00  0.00    +0.000 A 
ENDBRANCH   9  10
ENDBRANCH   7   9
ENDBRANCH   6   7
BRANCH   1  16
ATOM     16  C   UNL     1      47.704   5.624  18.094  0.00  0.00    +0.000 C 
BRANCH  16  17
ATOM     17  N   UNL     1      46.389   5.520  18.735  0.00  0.00    +0.000 NA
ATOM     18  H   UNL     1      46.402   6.074  19.591  0.00  0.00    +0.000 HD
ATOM     19  H   UNL     1      46.244   4.556  19.033  0.00  0.00    +0.000 HD
ENDBRANCH  16  17
ENDBRANCH   1  16
TORSDOF 5
ENDMDL
MODEL 7
REMARK VINA RESULT:    -5.432      4.485      7.047
REMARK INTER + INTRA:          -7.412
REMARK INTER:                  -6.855
REMARK INTRA:                  -0.557
REMARK UNBOUND:                -0.551
REMARK  Name = 
REMARK  5 active torsions:
REMARK  status: ('A' for Active; 'I' for Inactive)
REMARK    1  A    between atoms: N_1  and  C_2
REMARK    2  A    between atoms: C_2  and  C_3
REMARK    3  A    between atoms: C_8  and  N_9
REMARK    4  A    between atoms: N_9  and  C_10
REMARK    5  A    between atoms: C_10  and  C_11
REMARK                            x       y       z     vdW  Elec       q    Type
REMARK                         _______ _______ _______ _____ _____    ______ ____
ROOT
ATOM      1  C   UNL     1      45.793   5.050  12.829  0.00  0.00    +0.000 A 
ATOM      2  C   UNL     1      45.922   6.147  11.954  0.00  0.00    +0.000 A 
ATOM      3  C   UNL     1      47.085   6.903  11.923  0.00  0.00    +0.000 A 
ATOM      4  C   UNL     1      48.101   6.534  12.771  0.00  0.00    +0.000 A 
ATOM      5  N   UNL     1      48.020   5.497  13.634  0.00  0.00    +0.000 NA
ATOM      6  C   UNL     1      46.879   4.769  13.679  0.00  0.00    +0.000 A 
ENDROOT
BRANCH   6   7
ATOM      7  N   UNL     1      46.920   3.830  14.697  0.00  0.00    +0.000 N 
ATOM      8  H   UNL     1      46.090   3.257  14.538  0.00  0.00    +0.000 HD
BRANCH   7   9
ATOM      9  C   UNL     1      47.090   4.212  16.084  0.00  0.00    +0.000 C 
BRANCH   9  10
ATOM     10  C   UNL     1      48.383   3.717  16.682  0.00  0.00    +0.000 A 
ATOM     11  C   UNL     1      48.824   2.392  16.604  0.00  0.00    +0.000 A 
ATOM     12  C   UNL     1      50.085   2.052  17.093  0.00  0.00    +0.000 A 
ATOM     13  C   UNL     1      50.875   3.052  17.633  0.00  0.00    +0.000 A 
ATOM     14  N   UNL     1      50.496   4.345  17.711  0.00  0.00    +0.000 NA
ATOM     15  C   UNL     1      49.269   4.644  17.231  0.00  0.00    +0.000 A 
ENDBRANCH   9  10
ENDBRANCH   7   9
ENDBRANCH   6   7
BRANCH   1  16
ATOM     16  C   UNL     1      44.522   4.237  12.842  0.00  0.00    +0.000 C 
BRANCH  16  17
ATOM     17  N   UNL     1      44.679   2.798  12.607  0.00  0.00    +0.000 NA
ATOM     18  H   UNL     1      45.151   2.388  13.413  0.00  0.00    +0.000 HD
ATOM     19  H   UNL     1      45.312   2.661  11.819  0.00  0.00    +0.000 HD
ENDBRANCH  16  17
ENDBRANCH   1  16
TORSDOF 5
ENDMDL
MODEL 8
REMARK VINA RESULT:    -5.214      3.551      5.837
REMARK INTER + INTRA:          -7.137
REMARK INTER:                  -6.599
REMARK INTRA:                  -0.538
REMARK UNBOUND:                -0.551
REMARK  Name = 
REMARK  5 active torsions:
REMARK  status: ('A' for Active; 'I' for Inactive)
REMARK    1  A    between atoms: N_1  and  C_2
REMARK    2  A    between atoms: C_2  and  C_3
REMARK    3  A    between atoms: C_8  and  N_9
REMARK    4  A    between atoms: N_9  and  C_10
REMARK    5  A    between atoms: C_10  and  C_11
REMARK                            x       y       z     vdW  Elec       q    Type
REMARK                         _______ _______ _______ _____ _____    ______ ____
ROOT
ATOM      1  C   UNL     1      45.377   4.577  12.833  0.00  0.00    +0.000 A 
ATOM      2  C   UNL     1      44.991   3.388  12.182  0.00  0.00    +0.000 A 
ATOM      3  C   UNL     1      43.986   3.392  11.226  0.00  0.00    +0.000 A 
ATOM      4  C   UNL     1      43.391   4.597  10.939  0.00  0.00    +0.000 A 
ATOM      5  N   UNL     1      43.720   5.760  11.544  0.00  0.00    +0.000 NA
ATOM      6  C   UNL     1      44.689   5.755  12.490  0.00  0.00    +0.000 A 
ENDROOT
BRANCH   6   7
ATOM      7  N   UNL     1      44.813   6.998  13.090  0.00  0.00    +0.000 N 
ATOM      8  H   UNL     1      43.852   7.259  13.318  0.00  0.00    +0.000 HD
BRANCH   7   9
ATOM      9  C   UNL     1      45.564   8.073  12.477  0.00  0.00    +0.000 C 
BRANCH   9  10
ATOM     10  C   UNL     1      47.053   7.952  12.682  0.00  0.00    +0.000 A 
ATOM     11  C   UNL     1      47.931   7.410  11.738  0.00  0.00    +0.000 A 
ATOM     12  C   UNL     1      49.305   7.439  11.972  0.00  0.00    +0.000 A 
ATOM     13  C   UNL     1      49.763   8.025  13.141  0.00  0.00    +0.000 A 
ATOM     14  N   UNL     1      48.953   8.575  14.068  0.00  0.00    +0.000 NA
ATOM     15  C   UNL     1      47.626   8.530  13.815  0.00  0.00    +0.000 A 
ENDBRANCH   9  10
ENDBRANCH   7   9
ENDBRANCH   6   7
BRANCH   1  16
ATOM     16  C   UNL     1      46.478   4.552  13.865  0.00  0.00    +0.000 C 
BRANCH  16  17
ATOM     17  N   UNL     1      47.177   3.272  14.025  0.00  0.00    +0.000 NA
ATOM     18  H   UNL     1      48.172   3.425  13.863  0.00  0.00    +0.000 HD
ATOM     19  H   UNL     1      46.872   2.638  13.287  0.00  0.00    +0.000 HD
ENDBRANCH  16  17
ENDBRANCH   1  16
TORSDOF 5
ENDMDL
MODEL 9
REMARK VINA RESULT:    -5.112      3.875      6.222
REMARK INTER + INTRA:          -7.008
REMARK INTER:                  -6.245
REMARK INTRA:                  -0.763
REMARK UNBOUND:                -0.551
REMARK  Name = 
REMARK  5 active torsions:
REMARK  status: ('A' for Active; 'I' for Inactive)
REMARK    1  A    between atoms: N_1  and  C_2
REMARK    2  A    between atoms: C_2  and  C_3
REMARK    3  A    between atoms: C_8  and  N_9
REMARK    4  A    between atoms: N_9  and  C_10
REMARK    5  A    between atoms: C_10  and  C_11
REMARK                            x       y       z     vdW  Elec       q    Type
REMARK                         _______ _______ _______ _____ _____    ______ ____
ROOT
ATOM      1  C   UNL     1      44.372   5.947  11.836  0.00  0.00    +0.000 A 
ATOM      2  C   UNL     1      43.432   5.249  11.051  0.00  0.00    +0.000 A 
ATOM      3  C   UNL     1      43.089   3.937  11.345  0.00  0.00    +0.000 A 
ATOM      4  C   UNL     1      43.697   3.354  12.431  0.00  0.00    +0.000 A 
ATOM      5  N   UNL     1      44.610   3.979  13.206  0.00  0.00    +0.000 NA
ATOM      6  C   UNL     1      44.959   5.253  12.910  0.00  0.00    +0.000 A 
ENDROOT
BRANCH   6   7
ATOM      7  N   UNL     1      45.990   5.695  13.724  0.00  0.00    +0.000 N 
ATOM      8  H   UNL     1      45.769   6.678  13.890  0.00  0.00    +0.000 HD
BRANCH   7   9
ATOM      9  C   UNL     1      47.381   5.475  13.385  0.00  0.00    +0.000 C 
BRANCH   9  10
ATOM     10  C   UNL     1      48.143   6.753  13.143  0.00  0.00    +0.000 A 
ATOM     11  C   UNL     1      48.342   7.318  11.878  0.00  0.00    +0.000 A 
ATOM     12  C   UNL     1      48.966   8.559  11.764  0.00  0.00    +0.000 A 
ATOM     13  C   UNL     1      49.361   9.209  12.922  0.00  0.00    +0.000 A 
ATOM     14  N   UNL     1      49.172   8.709  14.161  0.00  0.00    +0.000 NA
ATOM     15  C   UNL     1      48.566   7.503  14.240  0.00  0.00    +0.000 A 
ENDBRANCH   9  10
ENDBRANCH   7   9
ENDBRANCH   6   7
BRANCH   1  16
ATOM     16  C   UNL     1      44.725   7.376  11.503  0.00  0.00    +0.000 C 
BRANCH  16  17
ATOM     17  N   UNL     1      44.868   8.284  12.646  0.00  0.00    +0.000 NA
ATOM     18  H   UNL     1      45.490   7.849  13.328  0.00  0.00    +0.000 HD
ATOM     19  H   UNL     1      43.965   8.368  13.113  0.00  0.00    +0.000 HD
ENDBRANCH  16  17
ENDBRANCH   1  16
TORSDOF 5
ENDMDL
