MODEL 1
REMARK VINA RESULT:    -7.882      0.000      0.000
REMARK INTER + INTRA:         -11.412
REMARK INTER:                 -10.877
REMARK INTRA:                  -0.535
REMARK UNBOUND:                -0.535
REMARK  Name = 
REMARK  11 active torsions:
REMARK  status: ('A' for Active; 'I' for Inactive)
REMARK    1  A    between atoms: C_1  and  N_2
REMARK    2  A    between atoms: N_2  and  C_3
REMARK    3  A    between atoms: N_2  and  C_4
REMARK    4  A    between atoms: C_4  and  C_5
REMARK    5  A    between atoms: C_4  and  C_6
REMARK    6  A    between atoms: C_4  and  C_7
REMARK    7  A    between atoms: C_8  and  C_9
REMARK    8  A    between atoms: C_13  and  C_14
REMARK    9  A    between atoms: C_14  and  O_15
REMARK   10  A    between atoms: C_14  and  C_16
REMARK   11  A    between atoms: C_17  and  C_18
REMARK                            x       y       z     vdW  Elec       q    Type
REMARK                         _______ _______ _______ _____ _____    ______ ____
ROOT
ATOM      1  C   UNL     1      46.489   5.683  13.623  0.00  0.00    +0.000 A 
ATOM      2  C   UNL     1      46.676   7.015  13.283  0.00  0.00    +0.000 A 
ATOM      3  N   UNL     1      46.103   7.576  12.189  0.00  0.00    +0.000 NA
ATOM      4  C   UNL     1      45.339   6.740  11.447  0.00  0.00    +0.000 A 
ATOM      5  C   UNL     1      45.144   5.399  11.774  0.00  0.00    +0.000 A 
ATOM      6  N   UNL     1      45.720   4.843  12.885  0.00  0.00    +0.000 NA
ENDROOT
BRANCH   1   8
ATOM      7  C   UNL     1      47.639   4.624  15.865  0.00  0.00    +0.000 C 
ATOM      8  C   UNL     1      47.105   5.129  14.788  0.00  0.00    +0.000 C 
BRANCH   7   9
ATOM      9  C   UNL     1      48.262   4.035  17.120  0.00  0.00    +0.000 C 
ATOM     10  C   UNL     1      47.413   2.804  17.513  0.00  0.00    +0.000 C 
ATOM     11  C   UNL     1      48.110   5.102  18.227  0.00  0.00    +0.000 C 
BRANCH   9  13
ATOM     12  C   UNL     1      50.631   4.622  17.555  0.00  0.00    +0.000 C 
ATOM     13  N   UNL     1      49.695   3.724  16.872  0.00  0.00    +0.000 NA
ATOM     14  C   UNL     1      50.067   2.336  17.186  0.00  0.00    +0.000 C 
ENDBRANCH   9  13
ENDBRANCH   7   9
ENDBRANCH   1   8
BRANCH   5  15
ATOM     15  C   UNL     1      44.304   4.518  10.863  0.00  0.00    +0.000 C 
BRANCH  15  16
ATOM     16  O   UNL     1      43.357   5.309  10.142  0.00  0.00    +0.000 OA
ATOM     17  H   UNL     1      42.810   5.735  10.832  0.00  0.00    +0.000 HD
ENDBRANCH  15  16
BRANCH  15  18
ATOM     18  C   UNL     1      45.029   3.707   9.826  0.00  0.00    +0.000 C 
ATOM     19  C   UNL     1      45.281   4.012   8.542  0.00  0.00    +0.000 C 
BRANCH  19  20
ATOM     20  C   UNL     1      46.008   3.069   7.690  0.00  0.00    +0.000 A 
ATOM     21  C   UNL     1      46.255   1.761   8.128  0.00  0.00    +0.000 A 
ATOM     22  C   UNL     1      46.990   0.881   7.332  0.00  0.00    +0.000 A 
ATOM     23  C   UNL     1      47.485   1.299   6.100  0.00  0.00    +0.000 A 
ATOM     24  C   UNL     1      47.239   2.600   5.657  0.00  0.00    +0.000 A 
ATOM     25  C   UNL     1      46.504   3.480   6.448  0.00  0.00    +0.000 A 
ENDBRANCH  19  20
ENDBRANCH  15  18
ENDBRANCH   5  15
TORSDOF 7
ENDMDL
MODEL 2
REMARK VINA RESULT:    -7.238      1.804      2.407
REMARK INTER + INTRA:         -10.523
REMARK INTER:                  -9.985
REMARK INTRA:                  -0.538
REMARK UNBOUND:                -0.535
REMARK  Name = 
REMARK  11 active torsions:
REMARK  status: ('A' for Active; 'I' for Inactive)
REMARK    1  A    between atoms: C_1  and  N_2
REMARK    2  A    between atoms: N_2  and  C_3
REMARK    3  A    between atoms: N_2  and  C_4
REMARK    4  A    between atoms: C_4  and  C_5
REMARK    5  A    between atoms: C_4  and  C_6
REMARK    6  A    between atoms: C_4  and  C_7
REMARK    7  A    between atoms: C_8  and  C_9
REMARK    8  A    between atoms: C_13  and  C_14
REMARK    9  A    between atoms: C_14  and  O_15
REMARK   10  A    between atoms: C_14  and  C_16
REMARK   11  A    between atoms: C_17  and  C_18
REMARK                            x       y       z     vdW  Elec       q    Type
REMARK                         _______ _______ _______ _____ _____    ______ ____
ROOT
ATOM      1  C   UNL     1      46.575   7.694  13.038  0.00  0.00    +0.000 A 
ATOM      2  C   UNL     1      46.188   8.947  12.584  0.00  0.00    +0.000 A 
ATOM      3  N   UNL     1      45.168   9.124  11.709  0.00  0.00    +0.000 NA
ATOM      4  C   UNL     1      44.556   7.987  11.302  0.00  0.00    +0.000 A 
ATOM      5  C   UNL     1      44.934   6.720  11.746  0.00  0.00    +0.000 A 
ATOM      6  N   UNL     1      45.960   6.552  12.636  0.00  0.00    +0.000 NA
ENDROOT
BRANCH   1   8
ATOM      7  C   UNL     1      48.655   7.428  14.790  0.00  0.00    +0.000 C 
ATOM      8  C   UNL     1      47.652   7.548  13.965  0.00  0.00    +0.000 C 
BRANCH   7   9
ATOM      9  C   UNL     1      49.825   7.288  15.751  0.00  0.00    +0.000 C 
ATOM     10  C   UNL     1      49.608   8.317  16.883  0.00  0.00    +0.000 C 
ATOM     11  C   UNL     1      51.091   7.692  14.962  0.00  0.00    +0.000 C 
BRANCH   9  13
ATOM     12  C   UNL     1      51.066   5.618  17.100  0.00  0.00    +0.000 C 
ATOM     13  N   UNL     1      49.919   5.881  16.225  0.00  0.00    +0.000 NA
ATOM     14  C   UNL     1      48.703   5.395  16.893  0.00  0.00    +0.000 C 
ENDBRANCH   9  13
ENDBRANCH   7   9
ENDBRANCH   1   8
BRANCH   5  15
ATOM     15  C   UNL     1      44.220   5.491  11.206  0.00  0.00    +0.000 C 
BRANCH  15  16
ATOM     16  O   UNL     1      43.038   5.873  10.499  0.00  0.00    +0.000 OA
ATOM     17  H   UNL     1      42.924   6.823  10.699  0.00  0.00    +0.000 HD
ENDBRANCH  15  16
BRANCH  15  18
ATOM     18  C   UNL     1      44.987   4.604  10.266  0.00  0.00    +0.000 C 
ATOM     19  C   UNL     1      44.587   4.060   9.105  0.00  0.00    +0.000 C 
BRANCH  19  20
ATOM     20  C   UNL     1      45.499   3.212   8.335  0.00  0.00    +0.000 A 
ATOM     21  C   UNL     1      45.608   1.845   8.622  0.00  0.00    +0.000 A 
ATOM     22  C   UNL     1      46.513   1.050   7.917  0.00  0.00    +0.000 A 
ATOM     23  C   UNL     1      47.315   1.612   6.927  0.00  0.00    +0.000 A 
ATOM     24  C   UNL     1      47.208   2.973   6.635  0.00  0.00    +0.000 A 
ATOM     25  C   UNL     1      46.303   3.769   7.335  0.00  0.00    +0.000 A 
ENDBRANCH  19  20
ENDBRANCH  15  18
ENDBRANCH   5  15
TORSDOF 7
ENDMDL
MODEL 3
REMARK VINA RESULT:    -6.848      2.594      4.118
REMARK INTER + INTRA:          -9.986
REMARK INTER:                  -9.331
REMARK INTRA:                  -0.654
REMARK UNBOUND:                -0.535
REMARK  Name = 
REMARK  11 active torsions:
REMARK  status: ('A' for Active; 'I' for Inactive)
REMARK    1  A    between atoms: C_1  and  N_2
REMARK    2  A    between atoms: N_2  and  C_3
REMARK    3  A    between atoms: N_2  and  C_4
REMARK    4  A    between atoms: C_4  and  C_5
REMARK    5  A    between atoms: C_4  and  C_6
REMARK    6  A    between atoms: C_4  and  C_7
REMARK    7  A    between atoms: C_8  and  C_9
REMARK    8  A    between atoms: C_13  and  C_14
REMARK    9  A    between atoms: C_14  and  O_15
REMARK   10  A    between atoms: C_14  and  C_16
REMARK   11  A    between atoms: C_17  and  C_18
REMARK                            x       y       z     vdW  Elec       q    Type
REMARK                         _______ _______ _______ _____ _____    ______ ____
ROOT
ATOM      1  C   UNL     1      46.720   6.076  12.725  0.00  0.00    +0.000 A 
ATOM      2  C   UNL     1      46.489   5.512  13.971  0.00  0.00    +0.000 A 
ATOM      3  N   UNL     1      45.536   4.570  14.181  0.00  0.00    +0.000 NA
ATOM      4  C   UNL     1      44.820   4.224  13.086  0.00  0.00    +0.000 A 
ATOM      5  C   UNL     1      45.037   4.783  11.828  0.00  0.00    +0.000 A 
ATOM      6  N   UNL     1      46.007   5.728  11.624  0.00  0.00    +0.000 NA
ENDROOT
BRANCH   1   8
ATOM      7  C   UNL     1      48.686   7.946  12.394  0.00  0.00    +0.000 C 
ATOM      8  C   UNL     1      47.738   7.063  12.542  0.00  0.00    +0.000 C 
BRANCH   7   9
ATOM      9  C   UNL     1      49.792   8.975  12.222  0.00  0.00    +0.000 C 
ATOM     10  C   UNL     1      49.195  10.152  11.417  0.00  0.00    +0.000 C 
ATOM     11  C   UNL     1      50.885   8.303  11.362  0.00  0.00    +0.000 C 
BRANCH   9  13
ATOM     12  C   UNL     1      49.323   9.940  14.457  0.00  0.00    +0.000 C 
ATOM     13  N   UNL     1      50.326   9.366  13.554  0.00  0.00    +0.000 NA
ATOM     14  C   UNL     1      51.021   8.280  14.259  0.00  0.00    +0.000 C 
ENDBRANCH   9  13
ENDBRANCH   7   9
ENDBRANCH   1   8
BRANCH   5  15
ATOM     15  C   UNL     1      44.158   4.368  10.658  0.00  0.00    +0.000 C 
BRANCH  15  16
ATOM     16  O   UNL     1      43.324   5.456  10.253  0.00  0.00    +0.000 OA
ATOM     17  H   UNL     1      43.921   6.230  10.222  0.00  0.00    +0.000 HD
ENDBRANCH  15  16
BRANCH  15  18
ATOM     18  C   UNL     1      44.848   3.897   9.409  0.00  0.00    +0.000 C 
ATOM     19  C   UNL     1      45.530   2.759   9.201  0.00  0.00    +0.000 C 
BRANCH  19  20
ATOM     20  C   UNL     1      46.136   2.491   7.895  0.00  0.00    +0.000 A 
ATOM     21  C   UNL     1      46.797   1.279   7.655  0.00  0.00    +0.000 A 
ATOM     22  C   UNL     1      47.413   1.048   6.424  0.00  0.00    +0.000 A 
ATOM     23  C   UNL     1      47.378   2.022   5.430  0.00  0.00    +0.000 A 
ATOM     24  C   UNL     1      46.719   3.230   5.663  0.00  0.00    +0.000 A 
ATOM     25  C   UNL     1      46.100   3.463   6.889  0.00  0.00    +0.000 A 
ENDBRANCH  19  20
ENDBRANCH  15  18
ENDBRANCH   5  15
TORSDOF 7
ENDMDL
MODEL 4
REMARK VINA RESULT:    -6.633      2.871      8.770
REMARK INTER + INTRA:          -9.688
REMARK INTER:                  -9.309
REMARK INTRA:                  -0.379
REMARK UNBOUND:                -0.535
REMARK  Name = 
REMARK  11 active torsions:
REMARK  status: ('A' for Active; 'I' for Inactive)
REMARK    1  A    between atoms: C_1  and  N_2
REMARK    2  A    between atoms: N_2  and  C_3
REMARK    3  A    between atoms: N_2  and  C_4
REMARK    4  A    between atoms: C_4  and  C_5
REMARK    5  A    between atoms: C_4  and  C_6
REMARK    6  A    between atoms: C_4  and  C_7
REMARK    7  A    between atoms: C_8  and  C_9
REMARK    8  A    between atoms: C_13  and  C_14
REMARK    9  A    between atoms: C_14  and  O_15
REMARK   10  A    between atoms: C_14  and  C_16
REMARK   11  A    between atoms: C_17  and  C_18
REMARK                            x       y       z     vdW  Elec       q    Type
REMARK                         _______ _______ _______ _____ _____    ______ ____
ROOT
ATOM      1  C   UNL     1      46.740   5.102  14.025  0.00  0.00    +0.000 A 
ATOM      2  C   UNL     1      47.551   6.207  13.812  0.00  0.00    +0.000 A 
ATOM      3  N   UNL     1      48.501   6.597  14.697  0.00  0.00    +0.000 NA
ATOM      4  C   UNL     1      48.597   5.833  15.811  0.00  0.00    +0.000 A 
ATOM      5  C   UNL     1      47.788   4.722  16.042  0.00  0.00    +0.000 A 
ATOM      6  N   UNL     1      46.837   4.331  15.137  0.00  0.00    +0.000 NA
ENDROOT
BRANCH   1   8
ATOM      7  C   UNL     1      44.830   4.373  12.210  0.00  0.00    +0.000 C 
ATOM      8  C   UNL     1      45.753   4.719  13.064  0.00  0.00    +0.000 C 
BRANCH   7   9
ATOM      9  C   UNL     1      43.754   3.971  11.215  0.00  0.00    +0.000 C 
ATOM     10  C   UNL     1      42.589   4.974  11.376  0.00  0.00    +0.000 C 
ATOM     11  C   UNL     1      43.257   2.574  11.649  0.00  0.00    +0.000 C 
BRANCH   9  13
ATOM     12  C   UNL     1      45.376   4.929   9.602  0.00  0.00    +0.000 C 
ATOM     13  N   UNL     1      44.329   3.931   9.844  0.00  0.00    +0.000 NA
ATOM     14  C   UNL     1      44.844   2.611   9.452  0.00  0.00    +0.000 C 
ENDBRANCH   9  13
ENDBRANCH   7   9
ENDBRANCH   1   8
BRANCH   5  15
ATOM     15  C   UNL     1      47.933   3.942  17.339  0.00  0.00    +0.000 C 
BRANCH  15  16
ATOM     16  O   UNL     1      46.886   2.977  17.458  0.00  0.00    +0.000 OA
ATOM     17  H   UNL     1      46.792   2.598  16.561  0.00  0.00    +0.000 HD
ENDBRANCH  15  16
BRANCH  15  18
ATOM     18  C   UNL     1      49.212   3.183  17.550  0.00  0.00    +0.000 C 
ATOM     19  C   UNL     1      50.456   3.659  17.728  0.00  0.00    +0.000 C 
BRANCH  19  20
ATOM     20  C   UNL     1      51.578   2.738  17.914  0.00  0.00    +0.000 A 
ATOM     21  C   UNL     1      52.771   3.183  18.501  0.00  0.00    +0.000 A 
ATOM     22  C   UNL     1      53.854   2.313  18.633  0.00  0.00    +0.000 A 
ATOM     23  C   UNL     1      53.758   1.000  18.179  0.00  0.00    +0.000 A 
ATOM     24  C   UNL     1      52.571   0.552  17.597  0.00  0.00    +0.000 A 
ATOM     25  C   UNL     1      51.486   1.416  17.466  0.00  0.00    +0.000 A 
ENDBRANCH  19  20
ENDBRANCH  15  18
ENDBRANCH   5  15
TORSDOF 7
ENDMDL
MODEL 5
REMARK VINA RESULT:    -6.596      2.247      2.969
REMARK INTER + INTRA:          -9.637
REMARK INTER:                  -9.065
REMARK INTRA:                  -0.572
REMARK UNBOUND:                -0.535
REMARK  Name = 
REMARK  11 active torsions:
REMARK  status: ('A' for Active; 'I' for Inactive)
REMARK    1  A    between atoms: C_1  and  N_2
REMARK    2  A    between atoms: N_2  and  C_3
REMARK    3  A    between atoms: N_2  and  C_4
REMARK    4  A    between atoms: C_4  and  C_5
REMARK    5  A    between atoms: C_4  and  C_6
REMARK    6  A    between atoms: C_4  and  C_7
REMARK    7  A    between atoms: C_8  and  C_9
REMARK    8  A    between atoms: C_13  and  C_14
REMARK    9  A    between atoms: C_14  and  O_15
REMARK   10  A    between atoms: C_14  and  C_16
REMARK   11  A    between atoms: C_17  and  C_18
REMARK                            x       y       z     vdW  Elec       q    Type
REMARK                         _______ _______ _______ _____ _____    ______ ____
ROOT
ATOM      1  C   UNL     1      46.299   7.700  12.861  0.00  0.00    +0.000 A 
ATOM      2  C   UNL     1      45.777   8.903  12.409  0.00  0.00    +0.000 A 
ATOM      3  N   UNL     1      44.749   8.968  11.527  0.00  0.00    +0.000 NA
ATOM      4  C   UNL     1      44.272   7.771  11.112  0.00  0.00    +0.000 A 
ATOM      5  C   UNL     1      44.787   6.553  11.553  0.00  0.00    +0.000 A 
ATOM      6  N   UNL     1      45.820   6.498  12.451  0.00  0.00    +0.000 NA
ENDROOT
BRANCH   1   8
ATOM      7  C   UNL     1      48.353   7.623  14.662  0.00  0.00    +0.000 C 
ATOM      8  C   UNL     1      47.380   7.673  13.796  0.00  0.00    +0.000 C 
BRANCH   7   9
ATOM      9  C   UNL     1      49.488   7.564  15.672  0.00  0.00    +0.000 C 
ATOM     10  C   UNL     1      50.808   7.500  14.869  0.00  0.00    +0.000 C 
ATOM     11  C   UNL     1      49.322   6.233  16.440  0.00  0.00    +0.000 C 
BRANCH   9  13
ATOM     12  C   UNL     1      49.536  10.029  15.934  0.00  0.00    +0.000 C 
ATOM     13  N   UNL     1      49.399   8.727  16.595  0.00  0.00    +0.000 NA
ATOM     14  C   UNL     1      48.178   8.747  17.414  0.00  0.00    +0.000 C 
ENDBRANCH   9  13
ENDBRANCH   7   9
ENDBRANCH   1   8
BRANCH   5  15
ATOM     15  C   UNL     1      44.221   5.254  11.005  0.00  0.00    +0.000 C 
BRANCH  15  16
ATOM     16  O   UNL     1      42.891   5.456  10.521  0.00  0.00    +0.000 OA
ATOM     17  H   UNL     1      42.996   5.621   9.563  0.00  0.00    +0.000 HD
ENDBRANCH  15  16
BRANCH  15  18
ATOM     18  C   UNL     1      44.967   4.596   9.878  0.00  0.00    +0.000 C 
ATOM     19  C   UNL     1      44.931   3.314   9.479  0.00  0.00    +0.000 C 
BRANCH  19  20
ATOM     20  C   UNL     1      45.749   2.871   8.347  0.00  0.00    +0.000 A 
ATOM     21  C   UNL     1      46.203   1.547   8.275  0.00  0.00    +0.000 A 
ATOM     22  C   UNL     1      47.021   1.143   7.219  0.00  0.00    +0.000 A 
ATOM     23  C   UNL     1      47.394   2.053   6.234  0.00  0.00    +0.000 A 
ATOM     24  C   UNL     1      46.942   3.372   6.300  0.00  0.00    +0.000 A 
ATOM     25  C   UNL     1      46.122   3.779   7.351  0.00  0.00    +0.000 A 
ENDBRANCH  19  20
ENDBRANCH  15  18
ENDBRANCH   5  15
TORSDOF 7
ENDMDL
MODEL 6
REMARK VINA RESULT:    -6.412      1.653      2.008
REMARK INTER + INTRA:          -9.384
REMARK INTER:                  -8.824
REMARK INTRA:                  -0.560
REMARK UNBOUND:                -0.535
REMARK  Name = 
REMARK  11 active torsions:
REMARK  status: ('A' for Active; 'I' for Inactive)
REMARK    1  A    between atoms: C_1  and  N_2
REMARK    2  A    between atoms: N_2  and  C_3
REMARK    3  A    between atoms: N_2  and  C_4
REMARK    4  A    between atoms: C_4  and  C_5
REMARK    5  A    between atoms: C_4  and  C_6
REMARK    6  A    between atoms: C_4  and  C_7
REMARK    7  A    between atoms: C_8  and  C_9
REMARK    8  A    between atoms: C_13  and  C_14
REMARK    9  A    between atoms: C_14  and  O_15
REMARK   10  A    between atoms: C_14  and  C_16
REMARK   11  A    between atoms: C_17  and  C_18
REMARK                            x       y       z     vdW  Elec       q    Type
REMARK                         _______ _______ _______ _____ _____    ______ ____
ROOT
ATOM      1  C   UNL     1      47.190   7.274  13.608  0.00  0.00    +0.000 A 
ATOM      2  C   UNL     1      47.196   8.561  13.091  0.00  0.00    +0.000 A 
ATOM      3  N   UNL     1      46.349   8.958  12.109  0.00  0.00    +0.000 NA
ATOM      4  C   UNL     1      45.499   8.003  11.663  0.00  0.00    +0.000 A 
ATOM      5  C   UNL     1      45.482   6.704  12.169  0.00  0.00    +0.000 A 
ATOM      6  N   UNL     1      46.336   6.315  13.167  0.00  0.00    +0.000 NA
ENDROOT
BRANCH   1   8
ATOM      7  C   UNL     1      48.918   6.579  15.609  0.00  0.00    +0.000 C 
ATOM      8  C   UNL     1      48.095   6.895  14.648  0.00  0.00    +0.000 C 
BRANCH   7   9
ATOM      9  C   UNL     1      49.877   6.210  16.729  0.00  0.00    +0.000 C 
ATOM     10  C   UNL     1      49.381   4.876  17.331  0.00  0.00    +0.000 C 
ATOM     11  C   UNL     1      49.737   7.311  17.805  0.00  0.00    +0.000 C 
BRANCH   9  13
ATOM     12  C   UNL     1      51.833   7.462  15.859  0.00  0.00    +0.000 C 
ATOM     13  N   UNL     1      51.267   6.153  16.201  0.00  0.00    +0.000 NA
ATOM     14  C   UNL     1      52.211   5.453  17.084  0.00  0.00    +0.000 C 
ENDBRANCH   9  13
ENDBRANCH   7   9
ENDBRANCH   1   8
BRANCH   5  15
ATOM     15  C   UNL     1      44.523   5.681  11.582  0.00  0.00    +0.000 C 
BRANCH  15  16
ATOM     16  O   UNL     1      43.472   6.337  10.871  0.00  0.00    +0.000 OA
ATOM     17  H   UNL     1      43.925   6.984  10.294  0.00  0.00    +0.000 HD
ENDBRANCH  15  16
BRANCH  15  18
ATOM     18  C   UNL     1      45.091   4.670  10.627  0.00  0.00    +0.000 C 
ATOM     19  C   UNL     1      45.141   4.713   9.285  0.00  0.00    +0.000 C 
BRANCH  19  20
ATOM     20  C   UNL     1      45.742   3.609   8.533  0.00  0.00    +0.000 A 
ATOM     21  C   UNL     1      45.502   2.281   8.911  0.00  0.00    +0.000 A 
ATOM     22  C   UNL     1      46.114   1.234   8.221  0.00  0.00    +0.000 A 
ATOM     23  C   UNL     1      46.970   1.504   7.156  0.00  0.00    +0.000 A 
ATOM     24  C   UNL     1      47.210   2.825   6.774  0.00  0.00    +0.000 A 
ATOM     25  C   UNL     1      46.598   3.872   7.459  0.00  0.00    +0.000 A 
ENDBRANCH  19  20
ENDBRANCH  15  18
ENDBRANCH   5  15
TORSDOF 7
ENDMDL
MODEL 7
REMARK VINA RESULT:    -5.711      3.324      8.621
REMARK INTER + INTRA:          -8.417
REMARK INTER:                  -7.872
REMARK INTRA:                  -0.544
REMARK UNBOUND:                -0.535
REMARK  Name = 
REMARK  11 active torsions:
REMARK  status: ('A' for Active; 'I' for Inactive)
REMARK    1  A    between atoms: C_1  and  N_2
REMARK    2  A    between atoms: N_2  and  C_3
REMARK    3  A    between atoms: N_2  and  C_4
REMARK    4  A    between atoms: C_4  and  C_5
REMARK    5  A    between atoms: C_4  and  C_6
REMARK    6  A    between atoms: C_4  and  C_7
REMARK    7  A    between atoms: C_8  and  C_9
REMARK    8  A    between atoms: C_13  and  C_14
REMARK    9  A    between atoms: C_14  and  O_15
REMARK   10  A    between atoms: C_14  and  C_16
REMARK   11  A    between atoms: C_17  and  C_18
REMARK                            x       y       z     vdW  Elec       q    Type
REMARK                         _______ _______ _______ _____ _____    ______ ____
ROOT
ATOM      1  C   UNL     1      48.021   6.637  13.282  0.00  0.00    +0.000 A 
ATOM      2  C   UNL     1      48.842   7.545  12.630  0.00  0.00    +0.000 A 
ATOM      3  N   UNL     1      49.912   8.124  13.230  0.00  0.00    +0.000 NA
ATOM      4  C   UNL     1      50.117   7.756  14.517  0.00  0.00    +0.000 A 
ATOM      5  C   UNL     1      49.299   6.847  15.187  0.00  0.00    +0.000 A 
ATOM      6  N   UNL     1      48.226   6.262  14.570  0.00  0.00    +0.000 NA
ENDROOT
BRANCH   1   8
ATOM      7  C   UNL     1      45.882   5.531  11.988  0.00  0.00    +0.000 C 
ATOM      8  C   UNL     1      46.905   6.044  12.613  0.00  0.00    +0.000 C 
BRANCH   7   9
ATOM      9  C   UNL     1      44.690   4.933  11.259  0.00  0.00    +0.000 C 
ATOM     10  C   UNL     1      45.148   4.626   9.815  0.00  0.00    +0.000 C 
ATOM     11  C   UNL     1      43.612   6.038  11.202  0.00  0.00    +0.000 C 
BRANCH   9  13
ATOM     12  C   UNL     1      43.379   4.063  13.176  0.00  0.00    +0.000 C 
ATOM     13  N   UNL     1      44.194   3.742  12.000  0.00  0.00    +0.000 NA
ATOM     14  C   UNL     1      43.451   2.787  11.165  0.00  0.00    +0.000 C 
ENDBRANCH   9  13
ENDBRANCH   7   9
ENDBRANCH   1   8
BRANCH   5  15
ATOM     15  C   UNL     1      49.576   6.521  16.646  0.00  0.00    +0.000 C 
BRANCH  15  16
ATOM     16  O   UNL     1      48.353   6.244  17.333  0.00  0.00    +0.000 OA
ATOM     17  H   UNL     1      48.486   5.361  17.733  0.00  0.00    +0.000 HD
ENDBRANCH  15  16
BRANCH  15  18
ATOM     18  C   UNL     1      50.478   5.354  16.934  0.00  0.00    +0.000 C 
ATOM     19  C   UNL     1      50.235   4.266  17.684  0.00  0.00    +0.000 C 
BRANCH  19  20
ATOM     20  C   UNL     1      51.263   3.235  17.841  0.00  0.00    +0.000 A 
ATOM     21  C   UNL     1      52.475   3.534  18.478  0.00  0.00    +0.000 A 
ATOM     22  C   UNL     1      53.470   2.561  18.583  0.00  0.00    +0.000 A 
ATOM     23  C   UNL     1      53.266   1.290  18.053  0.00  0.00    +0.000 A 
ATOM     24  C   UNL     1      52.059   0.987  17.420  0.00  0.00    +0.000 A 
ATOM     25  C   UNL     1      51.062   1.955  17.316  0.00  0.00    +0.000 A 
ENDBRANCH  19  20
ENDBRANCH  15  18
ENDBRANCH   5  15
TORSDOF 7
ENDMDL
MODEL 8
REMARK VINA RESULT:    -5.644      3.646      7.770
REMARK INTER + INTRA:          -8.324
REMARK INTER:                  -7.665
REMARK INTRA:                  -0.659
REMARK UNBOUND:                -0.535
REMARK  Name = 
REMARK  11 active torsions:
REMARK  status: ('A' for Active; 'I' for Inactive)
REMARK    1  A    between atoms: C_1  and  N_2
REMARK    2  A    between atoms: N_2  and  C_3
REMARK    3  A    between atoms: N_2  and  C_4
REMARK    4  A    between atoms: C_4  and  C_5
REMARK    5  A    between atoms: C_4  and  C_6
REMARK    6  A    between atoms: C_4  and  C_7
REMARK    7  A    between atoms: C_8  and  C_9
REMARK    8  A    between atoms: C_13  and  C_14
REMARK    9  A    between atoms: C_14  and  O_15
REMARK   10  A    between atoms: C_14  and  C_16
REMARK   11  A    between atoms: C_17  and  C_18
REMARK                            x       y       z     vdW  Elec       q    Type
REMARK                         _______ _______ _______ _____ _____    ______ ____
ROOT
ATOM      1  C   UNL     1      46.997   4.873  14.565  0.00  0.00    +0.000 A 
ATOM      2  C   UNL     1      47.033   4.088  15.708  0.00  0.00    +0.000 A 
ATOM      3  N   UNL     1      47.879   4.335  16.738  0.00  0.00    +0.000 NA
ATOM      4  C   UNL     1      48.693   5.403  16.569  0.00  0.00    +0.000 A 
ATOM      5  C   UNL     1      48.672   6.201  15.426  0.00  0.00    +0.000 A 
ATOM      6  N   UNL     1      47.809   5.947  14.394  0.00  0.00    +0.000 NA
ENDROOT
BRANCH   1   8
ATOM      7  C   UNL     1      45.268   4.287  12.531  0.00  0.00    +0.000 C 
ATOM      8  C   UNL     1      46.087   4.582  13.501  0.00  0.00    +0.000 C 
BRANCH   7   9
ATOM      9  C   UNL     1      44.313   3.943  11.400  0.00  0.00    +0.000 C 
ATOM     10  C   UNL     1      43.421   5.184  11.165  0.00  0.00    +0.000 C 
ATOM     11  C   UNL     1      43.419   2.793  11.916  0.00  0.00    +0.000 C 
BRANCH   9  13
ATOM     12  C   UNL     1      44.519   2.367   9.497  0.00  0.00    +0.000 C 
ATOM     13  N   UNL     1      45.086   3.521  10.201  0.00  0.00    +0.000 NA
ATOM     14  C   UNL     1      45.307   4.599   9.225  0.00  0.00    +0.000 C 
ENDBRANCH   9  13
ENDBRANCH   7   9
ENDBRANCH   1   8
BRANCH   5  15
ATOM     15  C   UNL     1      49.651   7.358  15.298  0.00  0.00    +0.000 C 
BRANCH  15  16
ATOM     16  O   UNL     1      50.982   6.865  15.132  0.00  0.00    +0.000 OA
ATOM     17  H   UNL     1      51.559   7.629  15.334  0.00  0.00    +0.000 HD
ENDBRANCH  15  16
BRANCH  15  18
ATOM     18  C   UNL     1      49.433   8.326  14.170  0.00  0.00    +0.000 C 
ATOM     19  C   UNL     1      50.150   8.486  13.045  0.00  0.00    +0.000 C 
BRANCH  19  20
ATOM     20  C   UNL     1      49.766   9.502  12.064  0.00  0.00    +0.000 A 
ATOM     21  C   UNL     1      50.729  10.078  11.224  0.00  0.00    +0.000 A 
ATOM     22  C   UNL     1      50.365  11.080  10.323  0.00  0.00    +0.000 A 
ATOM     23  C   UNL     1      49.045  11.516  10.257  0.00  0.00    +0.000 A 
ATOM     24  C   UNL     1      48.081  10.944  11.089  0.00  0.00    +0.000 A 
ATOM     25  C   UNL     1      48.440   9.941  11.987  0.00  0.00    +0.000 A 
ENDBRANCH  19  20
ENDBRANCH  15  18
ENDBRANCH   5  15
TORSDOF 7
ENDMDL
MODEL 9
REMARK VINA RESULT:    -5.438      4.313      8.323
REMARK INTER + INTRA:          -8.040
REMARK INTER:                  -7.354
REMARK INTRA:                  -0.686
REMARK UNBOUND:                -0.535
REMARK  Name = 
REMARK  11 active torsions:
REMARK  status: ('A' for Active; 'I' for Inactive)
REMARK    1  A    between atoms: C_1  and  N_2
REMARK    2  A    between atoms: N_2  and  C_3
REMARK    3  A    between atoms: N_2  and  C_4
REMARK    4  A    between atoms: C_4  and  C_5
REMARK    5  A    between atoms: C_4  and  C_6
REMARK    6  A    between atoms: C_4  and  C_7
REMARK    7  A    between atoms: C_8  and  C_9
REMARK    8  A    between atoms: C_13  and  C_14
REMARK    9  A    between atoms: C_14  and  O_15
REMARK   10  A    between atoms: C_14  and  C_16
REMARK   11  A    between atoms: C_17  and  C_18
REMARK                            x       y       z     vdW  Elec       q    Type
REMARK                         _______ _______ _______ _____ _____    ______ ____
ROOT
ATOM      1  C   UNL     1      48.022   6.200  13.483  0.00  0.00    +0.000 A 
ATOM      2  C   UNL     1      46.967   5.712  12.725  0.00  0.00    +0.000 A 
ATOM      3  N   UNL     1      46.070   4.819  13.211  0.00  0.00    +0.000 NA
ATOM      4  C   UNL     1      46.282   4.430  14.490  0.00  0.00    +0.000 A 
ATOM      5  C   UNL     1      47.338   4.908  15.265  0.00  0.00    +0.000 A 
ATOM      6  N   UNL     1      48.234   5.817  14.767  0.00  0.00    +0.000 NA
ENDROOT
BRANCH   1   8
ATOM      7  C   UNL     1      49.800   8.009  12.466  0.00  0.00    +0.000 C 
ATOM      8  C   UNL     1      48.944   7.146  12.936  0.00  0.00    +0.000 C 
BRANCH   7   9
ATOM      9  C   UNL     1      50.798   9.016  11.918  0.00  0.00    +0.000 C 
ATOM     10  C   UNL     1      49.985  10.115  11.197  0.00  0.00    +0.000 C 
ATOM     11  C   UNL     1      51.642   8.266  10.863  0.00  0.00    +0.000 C 
BRANCH   9  13
ATOM     12  C   UNL     1      50.914  10.199  14.094  0.00  0.00    +0.000 C 
ATOM     13  N   UNL     1      51.655   9.526  13.022  0.00  0.00    +0.000 NA
ATOM     14  C   UNL     1      52.521   8.504  13.625  0.00  0.00    +0.000 C 
ENDBRANCH   9  13
ENDBRANCH   7   9
ENDBRANCH   1   8
BRANCH   5  15
ATOM     15  C   UNL     1      47.529   4.388  16.680  0.00  0.00    +0.000 C 
BRANCH  15  16
ATOM     16  O   UNL     1      46.666   3.274  16.920  0.00  0.00    +0.000 OA
ATOM     17  H   UNL     1      46.814   3.040  17.858  0.00  0.00    +0.000 HD
ENDBRANCH  15  16
BRANCH  15  18
ATOM     18  C   UNL     1      48.905   3.927  17.068  0.00  0.00    +0.000 C 
ATOM     19  C   UNL     1      49.423   2.688  17.024  0.00  0.00    +0.000 C 
BRANCH  19  20
ATOM     20  C   UNL     1      50.802   2.449  17.456  0.00  0.00    +0.000 A 
ATOM     21  C   UNL     1      51.612   3.517  17.865  0.00  0.00    +0.000 A 
ATOM     22  C   UNL     1      52.939   3.290  18.230  0.00  0.00    +0.000 A 
ATOM     23  C   UNL     1      53.467   2.003  18.187  0.00  0.00    +0.000 A 
ATOM     24  C   UNL     1      52.664   0.935  17.784  0.00  0.00    +0.000 A 
ATOM     25  C   UNL     1      51.337   1.157  17.421  0.00  0.00    +0.000 A 
ENDBRANCH  19  20
ENDBRANCH  15  18
ENDBRANCH   5  15
TORSDOF 7
ENDMDL
