MODEL 1
REMARK VINA RESULT:    -6.144      0.000      0.000
REMARK INTER + INTRA:          -7.677
REMARK INTER:                  -7.402
REMARK INTRA:                  -0.276
REMARK UNBOUND:                -0.276
REMARK  Name = 
REMARK  4 active torsions:
REMARK  status: ('A' for Active; 'I' for Inactive)
REMARK    1  A    between atoms: N_1  and  C_2
REMARK    2  A    between atoms: C_2  and  C_3
REMARK    3  A    between atoms: C_7  and  C_8
REMARK    4  A    between atoms: C_9  and  C_10
REMARK                            x       y       z     vdW  Elec       q    Type
REMARK                         _______ _______ _______ _____ _____    ______ ____
ROOT
ATOM      1  C   UNL     1      43.093   5.677  11.766  0.00  0.00    +0.000 A 
ATOM      2  C   UNL     1      42.864   5.131  13.015  0.00  0.00    +0.000 A 
ATOM      3  C   UNL     1      43.404   3.887  13.242  0.00  0.00    +0.000 A 
ATOM      4  N   UNL     1      44.112   3.203  12.325  0.00  0.00    +0.000 NA
ATOM      5  C   UNL     1      44.284   3.816  11.140  0.00  0.00    +0.000 A 
ATOM      6  N   UNL     1      43.806   5.031  10.819  0.00  0.00    +0.000 NA
ENDROOT
BRANCH   5   7
ATOM      7  C   UNL     1      45.034   3.128  10.091  0.00  0.00    +0.000 C 
ATOM      8  C   UNL     1      45.275   3.618   8.863  0.00  0.00    +0.000 C 
BRANCH   8   9
ATOM      9  C   UNL     1      46.042   2.887   7.845  0.00  0.00    +0.000 A 
ATOM     10  C   UNL     1      46.389   3.504   6.647  0.00  0.00    +0.000 A 
ATOM     11  C   UNL     1      47.115   2.780   5.703  0.00  0.00    +0.000 A 
ATOM     12  C   UNL     1      47.475   1.467   5.980  0.00  0.00    +0.000 A 
ATOM     13  C   UNL     1      47.093   0.930   7.197  0.00  0.00    +0.000 A 
ATOM     14  N   UNL     1      46.388   1.608   8.128  0.00  0.00    +0.000 NA
ENDBRANCH   8   9
ENDBRANCH   5   7
BRANCH   1  15
ATOM     15  C   UNL     1      42.534   7.035  11.404  0.00  0.00    +0.000 C 
BRANCH  15  16
ATOM     16  N   UNL     1      43.575   8.004  11.050  0.00  0.00    +0.000 NA
ATOM     17  H   UNL     1      44.429   7.493  10.831  0.00  0.00    +0.000 HD
ATOM     18  H   UNL     1      43.790   8.551  11.885  0.00  0.00    +0.000 HD
ENDBRANCH  15  16
ENDBRANCH   1  15
TORSDOF 4
ENDMDL
MODEL 2
REMARK VINA RESULT:    -5.906      1.573      2.388
REMARK INTER + INTRA:          -7.391
REMARK INTER:                  -7.125
REMARK INTRA:                  -0.266
REMARK UNBOUND:                -0.276
REMARK  Name = 
REMARK  4 active torsions:
REMARK  status: ('A' for Active; 'I' for Inactive)
REMARK    1  A    between atoms: N_1  and  C_2
REMARK    2  A    between atoms: C_2  and  C_3
REMARK    3  A    between atoms: C_7  and  C_8
REMARK    4  A    between atoms: C_9  and  C_10
REMARK                            x       y       z     vdW  Elec       q    Type
REMARK                         _______ _______ _______ _____ _____    ______ ____
ROOT
ATOM      1  C   UNL     1      44.663   4.886  12.812  0.00  0.00    +0.000 A 
ATOM      2  C   UNL     1      43.347   5.291  12.932  0.00  0.00    +0.000 A 
ATOM      3  C   UNL     1      42.614   5.326  11.769  0.00  0.00    +0.000 A 
ATOM      4  N   UNL     1      43.113   5.004  10.562  0.00  0.00    +0.000 NA
ATOM      5  C   UNL     1      44.402   4.620  10.545  0.00  0.00    +0.000 A 
ATOM      6  N   UNL     1      45.203   4.543  11.622  0.00  0.00    +0.000 NA
ENDROOT
BRANCH   5   7
ATOM      7  C   UNL     1      45.016   4.265   9.268  0.00  0.00    +0.000 C 
ATOM      8  C   UNL     1      45.737   3.153   9.037  0.00  0.00    +0.000 C 
BRANCH   8   9
ATOM      9  C   UNL     1      46.328   2.839   7.729  0.00  0.00    +0.000 A 
ATOM     10  C   UNL     1      46.926   1.602   7.506  0.00  0.00    +0.000 A 
ATOM     11  C   UNL     1      47.480   1.339   6.254  0.00  0.00    +0.000 A 
ATOM     12  C   UNL     1      47.418   2.311   5.264  0.00  0.00    +0.000 A 
ATOM     13  C   UNL     1      46.803   3.512   5.567  0.00  0.00    +0.000 A 
ATOM     14  N   UNL     1      46.261   3.794   6.771  0.00  0.00    +0.000 NA
ENDBRANCH   8   9
ENDBRANCH   5   7
BRANCH   1  15
ATOM     15  C   UNL     1      45.564   4.823  14.024  0.00  0.00    +0.000 C 
BRANCH  15  16
ATOM     16  N   UNL     1      46.645   5.813  13.983  0.00  0.00    +0.000 NA
ATOM     17  H   UNL     1      47.419   5.466  14.548  0.00  0.00    +0.000 HD
ATOM     18  H   UNL     1      46.316   6.655  14.457  0.00  0.00    +0.000 HD
ENDBRANCH  15  16
ENDBRANCH   1  15
TORSDOF 4
ENDMDL
MODEL 3
REMARK VINA RESULT:    -5.815      2.485      6.836
REMARK INTER + INTRA:          -7.281
REMARK INTER:                  -7.037
REMARK INTRA:                  -0.244
REMARK UNBOUND:                -0.276
REMARK  Name = 
REMARK  4 active torsions:
REMARK  status: ('A' for Active; 'I' for Inactive)
REMARK    1  A    between atoms: N_1  and  C_2
REMARK    2  A    between atoms: C_2  and  C_3
REMARK    3  A    between atoms: C_7  and  C_8
REMARK    4  A    between atoms: C_9  and  C_10
REMARK                            x       y       z     vdW  Elec       q    Type
REMARK                         _______ _______ _______ _____ _____    ______ ____
ROOT
ATOM      1  C   UNL     1      46.549   2.901   7.107  0.00  0.00    +0.000 A 
ATOM      2  C   UNL     1      46.055   1.740   7.672  0.00  0.00    +0.000 A 
ATOM      3  C   UNL     1      45.409   1.877   8.878  0.00  0.00    +0.000 A 
ATOM      4  N   UNL     1      45.254   3.055   9.510  0.00  0.00    +0.000 NA
ATOM      5  C   UNL     1      45.765   4.129   8.883  0.00  0.00    +0.000 A 
ATOM      6  N   UNL     1      46.406   4.106   7.702  0.00  0.00    +0.000 NA
ENDROOT
BRANCH   5   7
ATOM      7  C   UNL     1      45.642   5.441   9.515  0.00  0.00    +0.000 C 
ATOM      8  C   UNL     1      45.600   5.661  10.841  0.00  0.00    +0.000 C 
BRANCH   8   9
ATOM      9  C   UNL     1      45.483   7.004  11.427  0.00  0.00    +0.000 A 
ATOM     10  C   UNL     1      46.391   7.433  12.390  0.00  0.00    +0.000 A 
ATOM     11  C   UNL     1      46.247   8.711  12.927  0.00  0.00    +0.000 A 
ATOM     12  C   UNL     1      45.210   9.523  12.487  0.00  0.00    +0.000 A 
ATOM     13  C   UNL     1      44.353   9.020  11.523  0.00  0.00    +0.000 A 
ATOM     14  N   UNL     1      44.467   7.786  10.989  0.00  0.00    +0.000 NA
ENDBRANCH   8   9
ENDBRANCH   5   7
BRANCH   1  15
ATOM     15  C   UNL     1      47.288   2.864   5.789  0.00  0.00    +0.000 C 
BRANCH  15  16
ATOM     16  N   UNL     1      48.357   1.861   5.763  0.00  0.00    +0.000 NA
ATOM     17  H   UNL     1      48.632   1.710   4.794  0.00  0.00    +0.000 HD
ATOM     18  H   UNL     1      47.962   0.974   6.077  0.00  0.00    +0.000 HD
ENDBRANCH  15  16
ENDBRANCH   1  15
TORSDOF 4
ENDMDL
MODEL 4
REMARK VINA RESULT:    -5.701      4.592      7.545
REMARK INTER + INTRA:          -7.143
REMARK INTER:                  -6.860
REMARK INTRA:                  -0.283
REMARK UNBOUND:                -0.276
REMARK  Name = 
REMARK  4 active torsions:
REMARK  status: ('A' for Active; 'I' for Inactive)
REMARK    1  A    between atoms: N_1  and  C_2
REMARK    2  A    between atoms: C_2  and  C_3
REMARK    3  A    between atoms: C_7  and  C_8
REMARK    4  A    between atoms: C_9  and  C_10
REMARK                            x       y       z     vdW  Elec       q    Type
REMARK                         _______ _______ _______ _____ _____    ______ ____
ROOT
ATOM      1  C   UNL     1      44.544   4.175  11.600  0.00  0.00    +0.000 A 
ATOM      2  C   UNL     1      44.812   5.076  10.587  0.00  0.00    +0.000 A 
ATOM      3  C   UNL     1      45.828   5.972  10.824  0.00  0.00    +0.000 A 
ATOM      4  N   UNL     1      46.538   6.010  11.966  0.00  0.00    +0.000 NA
ATOM      5  C   UNL     1      46.206   5.093  12.893  0.00  0.00    +0.000 A 
ATOM      6  N   UNL     1      45.238   4.170  12.759  0.00  0.00    +0.000 NA
ENDROOT
BRANCH   5   7
ATOM      7  C   UNL     1      46.927   5.081  14.164  0.00  0.00    +0.000 C 
ATOM      8  C   UNL     1      47.082   4.006  14.956  0.00  0.00    +0.000 C 
BRANCH   8   9
ATOM      9  C   UNL     1      47.825   4.045  16.224  0.00  0.00    +0.000 A 
ATOM     10  C   UNL     1      47.519   3.152  17.246  0.00  0.00    +0.000 A 
ATOM     11  C   UNL     1      48.242   3.220  18.436  0.00  0.00    +0.000 A 
ATOM     12  C   UNL     1      49.246   4.170  18.571  0.00  0.00    +0.000 A 
ATOM     13  C   UNL     1      49.487   5.018  17.505  0.00  0.00    +0.000 A 
ATOM     14  N   UNL     1      48.802   4.976  16.343  0.00  0.00    +0.000 NA
ENDBRANCH   8   9
ENDBRANCH   5   7
BRANCH   1  15
ATOM     15  C   UNL     1      43.440   3.153  11.452  0.00  0.00    +0.000 C 
BRANCH  15  16
ATOM     16  N   UNL     1      43.511   2.086  12.454  0.00  0.00    +0.000 NA
ATOM     17  H   UNL     1      44.272   1.457  12.199  0.00  0.00    +0.000 HD
ATOM     18  H   UNL     1      42.659   1.529  12.379  0.00  0.00    +0.000 HD
ENDBRANCH  15  16
ENDBRANCH   1  15
TORSDOF 4
ENDMDL
MODEL 5
REMARK VINA RESULT:    -5.568      4.124      6.956
REMARK INTER + INTRA:          -6.984
REMARK INTER:                  -6.727
REMARK INTRA:                  -0.256
REMARK UNBOUND:                -0.276
REMARK  Name = 
REMARK  4 active torsions:
REMARK  status: ('A' for Active; 'I' for Inactive)
REMARK    1  A    between atoms: N_1  and  C_2
REMARK    2  A    between atoms: C_2  and  C_3
REMARK    3  A    between atoms: C_7  and  C_8
REMARK    4  A    between atoms: C_9  and  C_10
REMARK                            x       y       z     vdW  Elec       q    Type
REMARK                         _______ _______ _______ _____ _____    ______ ____
ROOT
ATOM      1  C   UNL     1      44.727   3.941  10.371  0.00  0.00    +0.000 A 
ATOM      2  C   UNL     1      43.706   3.037  10.594  0.00  0.00    +0.000 A 
ATOM      3  C   UNL     1      43.425   2.750  11.909  0.00  0.00    +0.000 A 
ATOM      4  N   UNL     1      44.088   3.289  12.947  0.00  0.00    +0.000 NA
ATOM      5  C   UNL     1      45.064   4.159  12.632  0.00  0.00    +0.000 A 
ATOM      6  N   UNL     1      45.413   4.514  11.383  0.00  0.00    +0.000 NA
ENDROOT
BRANCH   5   7
ATOM      7  C   UNL     1      45.835   4.776  13.709  0.00  0.00    +0.000 C 
ATOM      8  C   UNL     1      46.847   4.190  14.372  0.00  0.00    +0.000 C 
BRANCH   8   9
ATOM      9  C   UNL     1      47.596   4.859  15.445  0.00  0.00    +0.000 A 
ATOM     10  C   UNL     1      47.458   4.442  16.765  0.00  0.00    +0.000 A 
ATOM     11  C   UNL     1      48.182   5.101  17.757  0.00  0.00    +0.000 A 
ATOM     12  C   UNL     1      49.021   6.151  17.406  0.00  0.00    +0.000 A 
ATOM     13  C   UNL     1      49.102   6.500  16.070  0.00  0.00    +0.000 A 
ATOM     14  N   UNL     1      48.412   5.881  15.089  0.00  0.00    +0.000 NA
ENDBRANCH   8   9
ENDBRANCH   5   7
BRANCH   1  15
ATOM     15  C   UNL     1      45.129   4.319   8.963  0.00  0.00    +0.000 C 
BRANCH  15  16
ATOM     16  N   UNL     1      45.966   5.522   8.912  0.00  0.00    +0.000 NA
ATOM     17  H   UNL     1      46.934   5.234   8.778  0.00  0.00    +0.000 HD
ATOM     18  H   UNL     1      45.936   5.963   9.832  0.00  0.00    +0.000 HD
ENDBRANCH  15  16
ENDBRANCH   1  15
TORSDOF 4
ENDMDL
MODEL 6
REMARK VINA RESULT:    -5.541      4.817      6.474
REMARK INTER + INTRA:          -6.951
REMARK INTER:                  -6.678
REMARK INTRA:                  -0.273
REMARK UNBOUND:                -0.276
REMARK  Name = 
REMARK  4 active torsions:
REMARK  status: ('A' for Active; 'I' for Inactive)
REMARK    1  A    between atoms: N_1  and  C_2
REMARK    2  A    between atoms: C_2  and  C_3
REMARK    3  A    between atoms: C_7  and  C_8
REMARK    4  A    between atoms: C_9  and  C_10
REMARK                            x       y       z     vdW  Elec       q    Type
REMARK                         _______ _______ _______ _____ _____    ______ ____
ROOT
ATOM      1  C   UNL     1      48.055   4.473  17.545  0.00  0.00    +0.000 A 
ATOM      2  C   UNL     1      48.917   3.463  17.929  0.00  0.00    +0.000 A 
ATOM      3  C   UNL     1      49.152   2.478  16.998  0.00  0.00    +0.000 A 
ATOM      4  N   UNL     1      48.588   2.457  15.777  0.00  0.00    +0.000 NA
ATOM      5  C   UNL     1      47.765   3.482  15.493  0.00  0.00    +0.000 A 
ATOM      6  N   UNL     1      47.474   4.497  16.326  0.00  0.00    +0.000 NA
ENDROOT
BRANCH   5   7
ATOM      7  C   UNL     1      47.107   3.520  14.189  0.00  0.00    +0.000 C 
ATOM      8  C   UNL     1      46.211   4.443  13.800  0.00  0.00    +0.000 C 
BRANCH   8   9
ATOM      9  C   UNL     1      45.583   4.440  12.471  0.00  0.00    +0.000 A 
ATOM     10  C   UNL     1      44.796   3.366  12.067  0.00  0.00    +0.000 A 
ATOM     11  C   UNL     1      44.219   3.395  10.799  0.00  0.00    +0.000 A 
ATOM     12  C   UNL     1      44.439   4.491   9.974  0.00  0.00    +0.000 A 
ATOM     13  C   UNL     1      45.233   5.518  10.454  0.00  0.00    +0.000 A 
ATOM     14  N   UNL     1      45.805   5.515  11.676  0.00  0.00    +0.000 NA
ENDBRANCH   8   9
ENDBRANCH   5   7
BRANCH   1  15
ATOM     15  C   UNL     1      47.716   5.599  18.495  0.00  0.00    +0.000 C 
BRANCH  15  16
ATOM     16  N   UNL     1      46.324   5.559  18.953  0.00  0.00    +0.000 NA
ATOM     17  H   UNL     1      45.738   5.987  18.238  0.00  0.00    +0.000 HD
ATOM     18  H   UNL     1      46.246   6.166  19.771  0.00  0.00    +0.000 HD
ENDBRANCH  15  16
ENDBRANCH   1  15
TORSDOF 4
ENDMDL
MODEL 7
REMARK VINA RESULT:    -5.432      4.651      6.264
REMARK INTER + INTRA:          -6.820
REMARK INTER:                  -6.521
REMARK INTRA:                  -0.299
REMARK UNBOUND:                -0.276
REMARK  Name = 
REMARK  4 active torsions:
REMARK  status: ('A' for Active; 'I' for Inactive)
REMARK    1  A    between atoms: N_1  and  C_2
REMARK    2  A    between atoms: C_2  and  C_3
REMARK    3  A    between atoms: C_7  and  C_8
REMARK    4  A    between atoms: C_9  and  C_10
REMARK                            x       y       z     vdW  Elec       q    Type
REMARK                         _______ _______ _______ _____ _____    ______ ____
ROOT
ATOM      1  C   UNL     1      48.260   4.618  16.929  0.00  0.00    +0.000 A 
ATOM      2  C   UNL     1      49.160   5.639  17.171  0.00  0.00    +0.000 A 
ATOM      3  C   UNL     1      49.354   6.534  16.145  0.00  0.00    +0.000 A 
ATOM      4  N   UNL     1      48.730   6.451  14.956  0.00  0.00    +0.000 NA
ATOM      5  C   UNL     1      47.871   5.426  14.814  0.00  0.00    +0.000 A 
ATOM      6  N   UNL     1      47.604   4.502  15.754  0.00  0.00    +0.000 NA
ENDROOT
BRANCH   5   7
ATOM      7  C   UNL     1      47.165   5.266  13.546  0.00  0.00    +0.000 C 
ATOM      8  C   UNL     1      46.097   4.473  13.347  0.00  0.00    +0.000 C 
BRANCH   8   9
ATOM      9  C   UNL     1      45.417   4.354  12.050  0.00  0.00    +0.000 A 
ATOM     10  C   UNL     1      45.643   5.293  11.048  0.00  0.00    +0.000 A 
ATOM     11  C   UNL     1      44.979   5.150   9.831  0.00  0.00    +0.000 A 
ATOM     12  C   UNL     1      44.115   4.079   9.647  0.00  0.00    +0.000 A 
ATOM     13  C   UNL     1      43.949   3.189  10.694  0.00  0.00    +0.000 A 
ATOM     14  N   UNL     1      44.578   3.304  11.883  0.00  0.00    +0.000 NA
ENDBRANCH   8   9
ENDBRANCH   5   7
BRANCH   1  15
ATOM     15  C   UNL     1      47.981   3.571  17.983  0.00  0.00    +0.000 C 
BRANCH  15  16
ATOM     16  N   UNL     1      46.720   2.857  17.759  0.00  0.00    +0.000 NA
ATOM     17  H   UNL     1      46.748   2.440  16.830  0.00  0.00    +0.000 HD
ATOM     18  H   UNL     1      45.971   3.550  17.725  0.00  0.00    +0.000 HD
ENDBRANCH  15  16
ENDBRANCH   1  15
TORSDOF 4
ENDMDL
MODEL 8
REMARK VINA RESULT:    -5.424      4.548      6.350
REMARK INTER + INTRA:          -6.809
REMARK INTER:                  -6.520
REMARK INTRA:                  -0.290
REMARK UNBOUND:                -0.276
REMARK  Name = 
REMARK  4 active torsions:
REMARK  status: ('A' for Active; 'I' for Inactive)
REMARK    1  A    between atoms: N_1  and  C_2
REMARK    2  A    between atoms: C_2  and  C_3
REMARK    3  A    between atoms: C_7  and  C_8
REMARK    4  A    between atoms: C_9  and  C_10
REMARK                            x       y       z     vdW  Elec       q    Type
REMARK                         _______ _______ _______ _____ _____    ______ ____
ROOT
ATOM      1  C   UNL     1      44.451   4.036  10.506  0.00  0.00    +0.000 A 
ATOM      2  C   UNL     1      43.447   3.268  11.064  0.00  0.00    +0.000 A 
ATOM      3  C   UNL     1      43.479   3.126  12.432  0.00  0.00    +0.000 A 
ATOM      4  N   UNL     1      44.421   3.678  13.217  0.00  0.00    +0.000 NA
ATOM      5  C   UNL     1      45.355   4.411  12.585  0.00  0.00    +0.000 A 
ATOM      6  N   UNL     1      45.411   4.619  11.257  0.00  0.00    +0.000 NA
ENDROOT
BRANCH   5   7
ATOM      7  C   UNL     1      46.417   5.033  13.372  0.00  0.00    +0.000 C 
ATOM      8  C   UNL     1      47.321   5.908  12.899  0.00  0.00    +0.000 C 
BRANCH   8   9
ATOM      9  C   UNL     1      48.366   6.512  13.737  0.00  0.00    +0.000 A 
ATOM     10  C   UNL     1      49.275   7.412  13.189  0.00  0.00    +0.000 A 
ATOM     11  C   UNL     1      50.256   7.963  14.012  0.00  0.00    +0.000 A 
ATOM     12  C   UNL     1      50.300   7.605  15.353  0.00  0.00    +0.000 A 
ATOM     13  C   UNL     1      49.357   6.706  15.819  0.00  0.00    +0.000 A 
ATOM     14  N   UNL     1      48.399   6.155  15.043  0.00  0.00    +0.000 NA
ENDBRANCH   8   9
ENDBRANCH   5   7
BRANCH   1  15
ATOM     15  C   UNL     1      44.520   4.248   9.011  0.00  0.00    +0.000 C 
BRANCH  15  16
ATOM     16  N   UNL     1      45.656   5.080   8.604  0.00  0.00    +0.000 NA
ATOM     17  H   UNL     1      45.328   5.757   7.917  0.00  0.00    +0.000 HD
ATOM     18  H   UNL     1      46.319   4.484   8.107  0.00  0.00    +0.000 HD
ENDBRANCH  15  16
ENDBRANCH   1  15
TORSDOF 4
ENDMDL
MODEL 9
REMARK VINA RESULT:    -5.375      5.030      7.690
REMARK INTER + INTRA:          -6.751
REMARK INTER:                  -6.512
REMARK INTRA:                  -0.239
REMARK UNBOUND:                -0.276
REMARK  Name = 
REMARK  4 active torsions:
REMARK  status: ('A' for Active; 'I' for Inactive)
REMARK    1  A    between atoms: N_1  and  C_2
REMARK    2  A    between atoms: C_2  and  C_3
REMARK    3  A    between atoms: C_7  and  C_8
REMARK    4  A    between atoms: C_9  and  C_10
REMARK                            x       y       z     vdW  Elec       q    Type
REMARK                         _______ _______ _______ _____ _____    ______ ____
ROOT
ATOM      1  C   UNL     1      44.893   5.637  12.049  0.00  0.00    +0.000 A 
ATOM      2  C   UNL     1      44.583   4.406  11.503  0.00  0.00    +0.000 A 
ATOM      3  C   UNL     1      45.163   3.312  12.103  0.00  0.00    +0.000 A 
ATOM      4  N   UNL     1      45.997   3.394  13.155  0.00  0.00    +0.000 NA
ATOM      5  C   UNL     1      46.238   4.634  13.617  0.00  0.00    +0.000 A 
ATOM      6  N   UNL     1      45.718   5.765  13.111  0.00  0.00    +0.000 NA
ENDROOT
BRANCH   5   7
ATOM      7  C   UNL     1      47.144   4.801  14.751  0.00  0.00    +0.000 C 
ATOM      8  C   UNL     1      47.141   4.045  15.863  0.00  0.00    +0.000 C 
BRANCH   8   9
ATOM      9  C   UNL     1      48.080   4.250  16.974  0.00  0.00    +0.000 A 
ATOM     10  C   UNL     1      47.639   4.795  18.176  0.00  0.00    +0.000 A 
ATOM     11  C   UNL     1      48.558   4.979  19.208  0.00  0.00    +0.000 A 
ATOM     12  C   UNL     1      49.884   4.614  19.014  0.00  0.00    +0.000 A 
ATOM     13  C   UNL     1      50.238   4.076  17.789  0.00  0.00    +0.000 A 
ATOM     14  N   UNL     1      49.370   3.889  16.773  0.00  0.00    +0.000 NA
ENDBRANCH   8   9
ENDBRANCH   5   7
BRANCH   1  15
ATOM     15  C   UNL     1      44.322   6.907  11.460  0.00  0.00    +0.000 C 
BRANCH  15  16
ATOM     16  N   UNL     1      42.891   6.801  11.155  0.00  0.00    +0.000 NA
ATOM     17  H   UNL     1      42.368   6.948  12.017  0.00  0.00    +0.000 HD
ATOM     18  H   UNL     1      42.701   5.837  10.880  0.00  0.00    +0.000 HD
ENDBRANCH  15  16
ENDBRANCH   1  15
TORSDOF 4
ENDMDL
