MODEL 1
REMARK VINA RESULT:    -7.320      0.000      0.000
REMARK INTER + INTRA:          -9.043
REMARK INTER:                  -8.817
REMARK INTRA:                  -0.225
REMARK UNBOUND:                -0.225
REMARK  Name = 
REMARK  4 active torsions:
REMARK  status: ('A' for Active; 'I' for Inactive)
REMARK    1  A    between atoms: C_7  and  C_8
REMARK    2  A    between atoms: C_8  and  N_9
REMARK    3  A    between atoms: C_14  and  C_15
REMARK    4  A    between atoms: C_15  and  O_17
REMARK                            x       y       z     vdW  Elec       q    Type
REMARK                         _______ _______ _______ _____ _____    ______ ____
ROOT
ATOM      1  C   UNL     1      44.076   5.984  10.970  0.00  0.00    +0.000 C 
ENDROOT
BRANCH   1   8
ATOM      2  N   UNL     1      49.460   6.581  12.504  0.00  0.00    +0.000 NA
ATOM      3  C   UNL     1      48.495   7.280  12.985  0.00  0.00    +0.000 C 
ATOM      4  N   UNL     1      48.708   8.429  13.659  0.00  0.00    +0.000 N 
ATOM      5  N   UNL     1      47.171   6.939  12.912  0.00  0.00    +0.000 N 
ATOM      6  C   UNL     1      46.252   7.909  12.302  0.00  0.00    +0.000 C 
ATOM      7  C   UNL     1      44.836   7.653  12.801  0.00  0.00    +0.000 C 
ATOM      8  C   UNL     1      44.358   6.229  12.473  0.00  0.00    +0.000 C 
ATOM      9  C   UNL     1      45.402   5.231  13.017  0.00  0.00    +0.000 C 
ATOM     10  C   UNL     1      46.834   5.548  12.566  0.00  0.00    +0.000 C 
ATOM     11  H   UNL     1      50.340   7.069  12.672  0.00  0.00    +0.000 HD
ATOM     12  H   UNL     1      49.640   8.534  14.037  0.00  0.00    +0.000 HD
ATOM     13  H   UNL     1      48.006   8.569  14.378  0.00  0.00    +0.000 HD
ENDBRANCH   1   8
BRANCH   1  14
ATOM     14  N   UNL     1      44.332   4.618  10.525  0.00  0.00    +0.000 N 
ATOM     15  C   UNL     1      43.737   3.512  11.076  0.00  0.00    +0.000 A 
ATOM     16  C   UNL     1      44.134   2.408  10.353  0.00  0.00    +0.000 A 
ATOM     17  C   UNL     1      45.008   2.856   9.327  0.00  0.00    +0.000 A 
ATOM     18  C   UNL     1      45.682   2.205   8.274  0.00  0.00    +0.000 A 
ATOM     19  C   UNL     1      46.499   2.953   7.409  0.00  0.00    +0.000 A 
ATOM     20  C   UNL     1      46.723   4.310   7.650  0.00  0.00    +0.000 A 
ATOM     21  C   UNL     1      46.086   4.959   8.712  0.00  0.00    +0.000 A 
ATOM     22  C   UNL     1      45.185   4.232   9.505  0.00  0.00    +0.000 A 
BRANCH  19  23
ATOM     23  C   UNL     1      47.151   2.250   6.276  0.00  0.00    +0.000 C 
ATOM     24  O   UNL     1      47.864   1.272   6.420  0.00  0.00    +0.000 OA
BRANCH  23  25
ATOM     25  O   UNL     1      46.839   2.765   5.069  0.00  0.00    +0.000 OA
ATOM     26  H   UNL     1      47.168   3.669   4.909  0.00  0.00    +0.000 HD
ENDBRANCH  23  25
ENDBRANCH  19  23
ENDBRANCH   1  14
TORSDOF 4
ENDMDL
MODEL 2
REMARK VINA RESULT:    -7.055      4.009      6.711
REMARK INTER + INTRA:          -8.724
REMARK INTER:                  -8.057
REMARK INTRA:                  -0.667
REMARK UNBOUND:                -0.225
REMARK  Name = 
REMARK  4 active torsions:
REMARK  status: ('A' for Active; 'I' for Inactive)
REMARK    1  A    between atoms: C_7  and  C_8
REMARK    2  A    between atoms: C_8  and  N_9
REMARK    3  A    between atoms: C_14  and  C_15
REMARK    4  A    between atoms: C_15  and  O_17
REMARK                            x       y       z     vdW  Elec       q    Type
REMARK                         _______ _______ _______ _____ _____    ______ ____
ROOT
ATOM      1  C   UNL     1      44.884   3.140  10.795  0.00  0.00    +0.000 C 
ENDROOT
BRANCH   1   8
ATOM      2  N   UNL     1      48.559   3.010   6.533  0.00  0.00    +0.000 NA
ATOM      3  C   UNL     1      47.537   2.236   6.623  0.00  0.00    +0.000 C 
ATOM      4  N   UNL     1      47.418   1.114   5.882  0.00  0.00    +0.000 N 
ATOM      5  N   UNL     1      46.453   2.464   7.427  0.00  0.00    +0.000 N 
ATOM      6  C   UNL     1      46.088   1.416   8.389  0.00  0.00    +0.000 C 
ATOM      7  C   UNL     1      44.617   1.556   8.762  0.00  0.00    +0.000 C 
ATOM      8  C   UNL     1      44.307   2.932   9.373  0.00  0.00    +0.000 C 
ATOM      9  C   UNL     1      44.811   4.018   8.400  0.00  0.00    +0.000 C 
ATOM     10  C   UNL     1      46.272   3.819   7.974  0.00  0.00    +0.000 C 
ATOM     11  H   UNL     1      49.231   2.599   5.884  0.00  0.00    +0.000 HD
ATOM     12  H   UNL     1      47.993   1.091   5.051  0.00  0.00    +0.000 HD
ATOM     13  H   UNL     1      46.448   0.922   5.660  0.00  0.00    +0.000 HD
ENDBRANCH   1   8
BRANCH   1  14
ATOM     14  N   UNL     1      44.449   4.372  11.446  0.00  0.00    +0.000 N 
ATOM     15  C   UNL     1      43.185   4.569  11.939  0.00  0.00    +0.000 A 
ATOM     16  C   UNL     1      43.157   5.796  12.566  0.00  0.00    +0.000 A 
ATOM     17  C   UNL     1      44.450   6.371  12.447  0.00  0.00    +0.000 A 
ATOM     18  C   UNL     1      45.027   7.569  12.915  0.00  0.00    +0.000 A 
ATOM     19  C   UNL     1      46.369   7.854  12.613  0.00  0.00    +0.000 A 
ATOM     20  C   UNL     1      47.097   7.011  11.773  0.00  0.00    +0.000 A 
ATOM     21  C   UNL     1      46.525   5.835  11.275  0.00  0.00    +0.000 A 
ATOM     22  C   UNL     1      45.220   5.500  11.669  0.00  0.00    +0.000 A 
BRANCH  19  23
ATOM     23  C   UNL     1      46.964   9.096  13.168  0.00  0.00    +0.000 C 
ATOM     24  O   UNL     1      47.286  10.047  12.477  0.00  0.00    +0.000 OA
BRANCH  23  25
ATOM     25  O   UNL     1      47.067   9.092  14.513  0.00  0.00    +0.000 OA
ATOM     26  H   UNL     1      46.502   8.441  14.968  0.00  0.00    +0.000 HD
ENDBRANCH  23  25
ENDBRANCH  19  23
ENDBRANCH   1  14
TORSDOF 4
ENDMDL
MODEL 3
REMARK VINA RESULT:    -6.821      5.667      8.514
REMARK INTER + INTRA:          -8.443
REMARK INTER:                  -8.327
REMARK INTRA:                  -0.116
REMARK UNBOUND:                -0.225
REMARK  Name = 
REMARK  4 active torsions:
REMARK  status: ('A' for Active; 'I' for Inactive)
REMARK    1  A    between atoms: C_7  and  C_8
REMARK    2  A    between atoms: C_8  and  N_9
REMARK    3  A    between atoms: C_14  and  C_15
REMARK    4  A    between atoms: C_15  and  O_17
REMARK                            x       y       z     vdW  Elec       q    Type
REMARK                         _______ _______ _______ _____ _____    ______ ____
ROOT
ATOM      1  C   UNL     1      46.761   4.315  13.896  0.00  0.00    +0.000 C 
ENDROOT
BRANCH   1   8
ATOM      2  N   UNL     1      45.983   5.134   8.382  0.00  0.00    +0.000 NA
ATOM      3  C   UNL     1      45.055   4.763   9.190  0.00  0.00    +0.000 C 
ATOM      4  N   UNL     1      43.895   4.229   8.755  0.00  0.00    +0.000 N 
ATOM      5  N   UNL     1      45.107   4.894  10.552  0.00  0.00    +0.000 N 
ATOM      6  C   UNL     1      44.925   3.681  11.359  0.00  0.00    +0.000 C 
ATOM      7  C   UNL     1      44.449   4.064  12.755  0.00  0.00    +0.000 C 
ATOM      8  C   UNL     1      45.440   4.999  13.465  0.00  0.00    +0.000 C 
ATOM      9  C   UNL     1      45.711   6.207  12.544  0.00  0.00    +0.000 C 
ATOM     10  C   UNL     1      46.116   5.804  11.120  0.00  0.00    +0.000 C 
ATOM     11  H   UNL     1      45.704   4.901   7.427  0.00  0.00    +0.000 HD
ATOM     12  H   UNL     1      43.667   4.433   7.791  0.00  0.00    +0.000 HD
ATOM     13  H   UNL     1      43.125   4.471   9.369  0.00  0.00    +0.000 HD
ENDBRANCH   1   8
BRANCH   1  14
ATOM     14  N   UNL     1      47.560   5.090  14.840  0.00  0.00    +0.000 N 
ATOM     15  C   UNL     1      48.091   6.323  14.558  0.00  0.00    +0.000 A 
ATOM     16  C   UNL     1      48.697   6.798  15.700  0.00  0.00    +0.000 A 
ATOM     17  C   UNL     1      48.535   5.819  16.716  0.00  0.00    +0.000 A 
ATOM     18  C   UNL     1      48.899   5.761  18.076  0.00  0.00    +0.000 A 
ATOM     19  C   UNL     1      48.589   4.614  18.827  0.00  0.00    +0.000 A 
ATOM     20  C   UNL     1      48.018   3.501  18.208  0.00  0.00    +0.000 A 
ATOM     21  C   UNL     1      47.683   3.534  16.851  0.00  0.00    +0.000 A 
ATOM     22  C   UNL     1      47.894   4.721  16.132  0.00  0.00    +0.000 A 
BRANCH  19  23
ATOM     23  C   UNL     1      48.933   4.607  20.270  0.00  0.00    +0.000 C 
ATOM     24  O   UNL     1      49.730   5.383  20.770  0.00  0.00    +0.000 OA
BRANCH  23  25
ATOM     25  O   UNL     1      48.246   3.693  20.986  0.00  0.00    +0.000 OA
ATOM     26  H   UNL     1      47.640   3.133  20.466  0.00  0.00    +0.000 HD
ENDBRANCH  23  25
ENDBRANCH  19  23
ENDBRANCH   1  14
TORSDOF 4
ENDMDL
MODEL 4
REMARK VINA RESULT:    -6.500      4.641      6.305
REMARK INTER + INTRA:          -8.056
REMARK INTER:                  -7.625
REMARK INTRA:                  -0.431
REMARK UNBOUND:                -0.225
REMARK  Name = 
REMARK  4 active torsions:
REMARK  status: ('A' for Active; 'I' for Inactive)
REMARK    1  A    between atoms: C_7  and  C_8
REMARK    2  A    between atoms: C_8  and  N_9
REMARK    3  A    between atoms: C_14  and  C_15
REMARK    4  A    between atoms: C_15  and  O_17
REMARK                            x       y       z     vdW  Elec       q    Type
REMARK                         _______ _______ _______ _____ _____    ______ ____
ROOT
ATOM      1  C   UNL     1      48.211   5.407  15.616  0.00  0.00    +0.000 C 
ENDROOT
BRANCH   1   8
ATOM      2  N   UNL     1      48.188   4.310  21.137  0.00  0.00    +0.000 NA
ATOM      3  C   UNL     1      49.237   4.653  20.478  0.00  0.00    +0.000 C 
ATOM      4  N   UNL     1      50.482   4.475  20.967  0.00  0.00    +0.000 N 
ATOM      5  N   UNL     1      49.225   5.258  19.250  0.00  0.00    +0.000 N 
ATOM      6  C   UNL     1      49.966   4.607  18.163  0.00  0.00    +0.000 C 
ATOM      7  C   UNL     1      50.323   5.637  17.100  0.00  0.00    +0.000 C 
ATOM      8  C   UNL     1      49.075   6.322  16.520  0.00  0.00    +0.000 C 
ATOM      9  C   UNL     1      48.248   6.893  17.691  0.00  0.00    +0.000 C 
ATOM     10  C   UNL     1      47.962   5.861  18.791  0.00  0.00    +0.000 C 
ATOM     11  H   UNL     1      48.475   3.859  22.007  0.00  0.00    +0.000 HD
ATOM     12  H   UNL     1      50.534   4.370  21.971  0.00  0.00    +0.000 HD
ATOM     13  H   UNL     1      51.111   5.202  20.645  0.00  0.00    +0.000 HD
ENDBRANCH   1   8
BRANCH   1  14
ATOM     14  N   UNL     1      47.808   6.018  14.353  0.00  0.00    +0.000 N 
ATOM     15  C   UNL     1      48.361   7.167  13.850  0.00  0.00    +0.000 A 
ATOM     16  C   UNL     1      47.813   7.397  12.607  0.00  0.00    +0.000 A 
ATOM     17  C   UNL     1      46.886   6.353  12.344  0.00  0.00    +0.000 A 
ATOM     18  C   UNL     1      46.069   6.036  11.240  0.00  0.00    +0.000 A 
ATOM     19  C   UNL     1      45.238   4.904  11.298  0.00  0.00    +0.000 A 
ATOM     20  C   UNL     1      45.146   4.157  12.474  0.00  0.00    +0.000 A 
ATOM     21  C   UNL     1      45.928   4.481  13.587  0.00  0.00    +0.000 A 
ATOM     22  C   UNL     1      46.836   5.547  13.486  0.00  0.00    +0.000 A 
BRANCH  19  23
ATOM     23  C   UNL     1      44.431   4.564  10.100  0.00  0.00    +0.000 C 
ATOM     24  O   UNL     1      44.715   3.652   9.342  0.00  0.00    +0.000 OA
BRANCH  23  25
ATOM     25  O   UNL     1      43.328   5.327   9.956  0.00  0.00    +0.000 OA
ATOM     26  H   UNL     1      42.992   5.726  10.780  0.00  0.00    +0.000 HD
ENDBRANCH  23  25
ENDBRANCH  19  23
ENDBRANCH   1  14
TORSDOF 4
ENDMDL
MODEL 5
REMARK VINA RESULT:    -6.103      3.020      4.926
REMARK INTER + INTRA:          -7.577
REMARK INTER:                  -6.993
REMARK INTRA:                  -0.584
REMARK UNBOUND:                -0.225
REMARK  Name = 
REMARK  4 active torsions:
REMARK  status: ('A' for Active; 'I' for Inactive)
REMARK    1  A    between atoms: C_7  and  C_8
REMARK    2  A    between atoms: C_8  and  N_9
REMARK    3  A    between atoms: C_14  and  C_15
REMARK    4  A    between atoms: C_15  and  O_17
REMARK                            x       y       z     vdW  Elec       q    Type
REMARK                         _______ _______ _______ _____ _____    ______ ____
ROOT
ATOM      1  C   UNL     1      47.359   7.891  13.631  0.00  0.00    +0.000 C 
ENDROOT
BRANCH   1   8
ATOM      2  N   UNL     1      51.300  11.360  11.599  0.00  0.00    +0.000 NA
ATOM      3  C   UNL     1      51.552  10.352  12.355  0.00  0.00    +0.000 C 
ATOM      4  N   UNL     1      52.733  10.209  12.993  0.00  0.00    +0.000 N 
ATOM      5  N   UNL     1      50.697   9.305  12.572  0.00  0.00    +0.000 N 
ATOM      6  C   UNL     1      50.338   8.997  13.963  0.00  0.00    +0.000 C 
ATOM      7  C   UNL     1      49.890   7.545  14.064  0.00  0.00    +0.000 C 
ATOM      8  C   UNL     1      48.685   7.249  13.156  0.00  0.00    +0.000 C 
ATOM      9  C   UNL     1      49.041   7.695  11.721  0.00  0.00    +0.000 C 
ATOM     10  C   UNL     1      49.564   9.136  11.647  0.00  0.00    +0.000 C 
ATOM     11  H   UNL     1      52.091  12.005  11.631  0.00  0.00    +0.000 HD
ATOM     12  H   UNL     1      53.495  10.744  12.599  0.00  0.00    +0.000 HD
ATOM     13  H   UNL     1      52.984   9.232  13.087  0.00  0.00    +0.000 HD
ENDBRANCH   1   8
BRANCH   1  14
ATOM     14  N   UNL     1      46.204   7.575  12.795  0.00  0.00    +0.000 N 
ATOM     15  C   UNL     1      45.471   8.515  12.118  0.00  0.00    +0.000 A 
ATOM     16  C   UNL     1      44.526   7.857  11.362  0.00  0.00    +0.000 A 
ATOM     17  C   UNL     1      44.683   6.464  11.590  0.00  0.00    +0.000 A 
ATOM     18  C   UNL     1      44.045   5.318  11.074  0.00  0.00    +0.000 A 
ATOM     19  C   UNL     1      44.443   4.046  11.521  0.00  0.00    +0.000 A 
ATOM     20  C   UNL     1      45.389   3.921  12.539  0.00  0.00    +0.000 A 
ATOM     21  C   UNL     1      46.005   5.053  13.082  0.00  0.00    +0.000 A 
ATOM     22  C   UNL     1      45.684   6.314  12.555  0.00  0.00    +0.000 A 
BRANCH  19  23
ATOM     23  C   UNL     1      43.791   2.857  10.918  0.00  0.00    +0.000 C 
ATOM     24  O   UNL     1      44.004   2.488   9.775  0.00  0.00    +0.000 OA
BRANCH  23  25
ATOM     25  O   UNL     1      42.981   2.194  11.769  0.00  0.00    +0.000 OA
ATOM     26  H   UNL     1      43.121   1.230  11.806  0.00  0.00    +0.000 HD
ENDBRANCH  23  25
ENDBRANCH  19  23
ENDBRANCH   1  14
TORSDOF 4
ENDMDL
MODEL 6
REMARK VINA RESULT:    -5.862      3.285      5.415
REMARK INTER + INTRA:          -7.287
REMARK INTER:                  -6.706
REMARK INTRA:                  -0.581
REMARK UNBOUND:                -0.225
REMARK  Name = 
REMARK  4 active torsions:
REMARK  status: ('A' for Active; 'I' for Inactive)
REMARK    1  A    between atoms: C_7  and  C_8
REMARK    2  A    between atoms: C_8  and  N_9
REMARK    3  A    between atoms: C_14  and  C_15
REMARK    4  A    between atoms: C_15  and  O_17
REMARK                            x       y       z     vdW  Elec       q    Type
REMARK                         _______ _______ _______ _____ _____    ______ ____
ROOT
ATOM      1  C   UNL     1      47.812   8.495  13.027  0.00  0.00    +0.000 C 
ENDROOT
BRANCH   1   8
ATOM      2  N   UNL     1      52.685  11.285  13.414  0.00  0.00    +0.000 NA
ATOM      3  C   UNL     1      52.518  10.229  12.702  0.00  0.00    +0.000 C 
ATOM      4  N   UNL     1      53.557   9.506  12.235  0.00  0.00    +0.000 N 
ATOM      5  N   UNL     1      51.303   9.739  12.305  0.00  0.00    +0.000 N 
ATOM      6  C   UNL     1      50.982   8.350  12.656  0.00  0.00    +0.000 C 
ATOM      7  C   UNL     1      49.928   7.812  11.697  0.00  0.00    +0.000 C 
ATOM      8  C   UNL     1      48.640   8.650  11.727  0.00  0.00    +0.000 C 
ATOM      9  C   UNL     1      49.017  10.126  11.478  0.00  0.00    +0.000 C 
ATOM     10  C   UNL     1      50.134  10.630  12.401  0.00  0.00    +0.000 C 
ATOM     11  H   UNL     1      53.683  11.414  13.588  0.00  0.00    +0.000 HD
ATOM     12  H   UNL     1      54.437  10.002  12.197  0.00  0.00    +0.000 HD
ATOM     13  H   UNL     1      53.338   9.083  11.340  0.00  0.00    +0.000 HD
ENDBRANCH   1   8
BRANCH   1  14
ATOM     14  N   UNL     1      47.523   7.112  13.394  0.00  0.00    +0.000 N 
ATOM     15  C   UNL     1      48.042   6.492  14.502  0.00  0.00    +0.000 A 
ATOM     16  C   UNL     1      47.485   5.235  14.588  0.00  0.00    +0.000 A 
ATOM     17  C   UNL     1      46.597   5.079  13.491  0.00  0.00    +0.000 A 
ATOM     18  C   UNL     1      45.730   4.045  13.083  0.00  0.00    +0.000 A 
ATOM     19  C   UNL     1      44.968   4.204  11.913  0.00  0.00    +0.000 A 
ATOM     20  C   UNL     1      45.141   5.330  11.106  0.00  0.00    +0.000 A 
ATOM     21  C   UNL     1      46.023   6.348  11.484  0.00  0.00    +0.000 A 
ATOM     22  C   UNL     1      46.700   6.234  12.709  0.00  0.00    +0.000 A 
BRANCH  19  23
ATOM     23  C   UNL     1      44.023   3.122  11.540  0.00  0.00    +0.000 C 
ATOM     24  O   UNL     1      43.557   3.001  10.420  0.00  0.00    +0.000 OA
BRANCH  23  25
ATOM     25  O   UNL     1      43.768   2.257  12.543  0.00  0.00    +0.000 OA
ATOM     26  H   UNL     1      44.194   1.384  12.453  0.00  0.00    +0.000 HD
ENDBRANCH  23  25
ENDBRANCH  19  23
ENDBRANCH   1  14
TORSDOF 4
ENDMDL
MODEL 7
REMARK VINA RESULT:    -5.741      4.878      8.209
REMARK INTER + INTRA:          -7.141
REMARK INTER:                  -6.516
REMARK INTRA:                  -0.624
REMARK UNBOUND:                -0.225
REMARK  Name = 
REMARK  4 active torsions:
REMARK  status: ('A' for Active; 'I' for Inactive)
REMARK    1  A    between atoms: C_7  and  C_8
REMARK    2  A    between atoms: C_8  and  N_9
REMARK    3  A    between atoms: C_14  and  C_15
REMARK    4  A    between atoms: C_15  and  O_17
REMARK                            x       y       z     vdW  Elec       q    Type
REMARK                         _______ _______ _______ _____ _____    ______ ____
ROOT
ATOM      1  C   UNL     1      47.207   6.640  12.239  0.00  0.00    +0.000 C 
ENDROOT
BRANCH   1   8
ATOM      2  N   UNL     1      44.537   2.337   9.781  0.00  0.00    +0.000 NA
ATOM      3  C   UNL     1      44.203   2.833  10.919  0.00  0.00    +0.000 C 
ATOM      4  N   UNL     1      43.394   2.178  11.778  0.00  0.00    +0.000 N 
ATOM      5  N   UNL     1      44.582   4.067  11.375  0.00  0.00    +0.000 N 
ATOM      6  C   UNL     1      45.276   4.130  12.668  0.00  0.00    +0.000 C 
ATOM      7  C   UNL     1      45.109   5.520  13.268  0.00  0.00    +0.000 C 
ATOM      8  C   UNL     1      45.662   6.617  12.344  0.00  0.00    +0.000 C 
ATOM      9  C   UNL     1      45.010   6.453  10.955  0.00  0.00    +0.000 C 
ATOM     10  C   UNL     1      45.120   5.028  10.398  0.00  0.00    +0.000 C 
ATOM     11  H   UNL     1      44.143   1.398   9.700  0.00  0.00    +0.000 HD
ATOM     12  H   UNL     1      42.822   1.458  11.358  0.00  0.00    +0.000 HD
ATOM     13  H   UNL     1      42.827   2.825  12.315  0.00  0.00    +0.000 HD
ENDBRANCH   1   8
BRANCH   1  14
ATOM     14  N   UNL     1      47.864   7.500  13.219  0.00  0.00    +0.000 N 
ATOM     15  C   UNL     1      48.160   8.821  12.998  0.00  0.00    +0.000 A 
ATOM     16  C   UNL     1      48.684   9.341  14.161  0.00  0.00    +0.000 A 
ATOM     17  C   UNL     1      48.714   8.300  15.126  0.00  0.00    +0.000 A 
ATOM     18  C   UNL     1      49.097   8.242  16.481  0.00  0.00    +0.000 A 
ATOM     19  C   UNL     1      49.009   7.022  17.173  0.00  0.00    +0.000 A 
ATOM     20  C   UNL     1      48.642   5.856  16.501  0.00  0.00    +0.000 A 
ATOM     21  C   UNL     1      48.290   5.894  15.148  0.00  0.00    +0.000 A 
ATOM     22  C   UNL     1      48.275   7.134  14.490  0.00  0.00    +0.000 A 
BRANCH  19  23
ATOM     23  C   UNL     1      49.367   7.006  18.614  0.00  0.00    +0.000 C 
ATOM     24  O   UNL     1      49.808   7.979  19.202  0.00  0.00    +0.000 OA
BRANCH  23  25
ATOM     25  O   UNL     1      49.112   5.829  19.221  0.00  0.00    +0.000 OA
ATOM     26  H   UNL     1      49.834   5.488  19.780  0.00  0.00    +0.000 HD
ENDBRANCH  23  25
ENDBRANCH  19  23
ENDBRANCH   1  14
TORSDOF 4
ENDMDL
MODEL 8
REMARK VINA RESULT:    -5.668      1.854      2.814
REMARK INTER + INTRA:          -7.053
REMARK INTER:                  -6.610
REMARK INTRA:                  -0.442
REMARK UNBOUND:                -0.225
REMARK  Name = 
REMARK  4 active torsions:
REMARK  status: ('A' for Active; 'I' for Inactive)
REMARK    1  A    between atoms: C_7  and  C_8
REMARK    2  A    between atoms: C_8  and  N_9
REMARK    3  A    between atoms: C_14  and  C_15
REMARK    4  A    between atoms: C_15  and  O_17
REMARK                            x       y       z     vdW  Elec       q    Type
REMARK                         _______ _______ _______ _____ _____    ______ ____
ROOT
ATOM      1  C   UNL     1      45.496   8.050  12.147  0.00  0.00    +0.000 C 
ENDROOT
BRANCH   1   8
ATOM      2  N   UNL     1      50.967   7.343  11.026  0.00  0.00    +0.000 NA
ATOM      3  C   UNL     1      50.490   8.351  11.665  0.00  0.00    +0.000 C 
ATOM      4  N   UNL     1      51.198   9.484  11.851  0.00  0.00    +0.000 N 
ATOM      5  N   UNL     1      49.255   8.388  12.256  0.00  0.00    +0.000 N 
ATOM      6  C   UNL     1      48.344   9.469  11.860  0.00  0.00    +0.000 C 
ATOM      7  C   UNL     1      47.319   9.701  12.962  0.00  0.00    +0.000 C 
ATOM      8  C   UNL     1      46.499   8.435  13.262  0.00  0.00    +0.000 C 
ATOM      9  C   UNL     1      47.481   7.281  13.554  0.00  0.00    +0.000 C 
ATOM     10  C   UNL     1      48.555   7.110  12.472  0.00  0.00    +0.000 C 
ATOM     11  H   UNL     1      51.891   7.586  10.666  0.00  0.00    +0.000 HD
ATOM     12  H   UNL     1      52.199   9.381  11.754  0.00  0.00    +0.000 HD
ATOM     13  H   UNL     1      50.962   9.925  12.733  0.00  0.00    +0.000 HD
ENDBRANCH   1   8
BRANCH   1  14
ATOM     14  N   UNL     1      45.140   6.634  12.122  0.00  0.00    +0.000 N 
ATOM     15  C   UNL     1      44.530   5.982  13.163  0.00  0.00    +0.000 A 
ATOM     16  C   UNL     1      44.258   4.694  12.760  0.00  0.00    +0.000 A 
ATOM     17  C   UNL     1      44.723   4.551  11.425  0.00  0.00    +0.000 A 
ATOM     18  C   UNL     1      44.686   3.496  10.492  0.00  0.00    +0.000 A 
ATOM     19  C   UNL     1      45.255   3.678   9.220  0.00  0.00    +0.000 A 
ATOM     20  C   UNL     1      45.940   4.856   8.916  0.00  0.00    +0.000 A 
ATOM     21  C   UNL     1      46.012   5.898   9.847  0.00  0.00    +0.000 A 
ATOM     22  C   UNL     1      45.348   5.753  11.075  0.00  0.00    +0.000 A 
BRANCH  19  23
ATOM     23  C   UNL     1      45.151   2.569   8.240  0.00  0.00    +0.000 C 
ATOM     24  O   UNL     1      45.443   2.689   7.062  0.00  0.00    +0.000 OA
BRANCH  23  25
ATOM     25  O   UNL     1      44.750   1.401   8.784  0.00  0.00    +0.000 OA
ATOM     26  H   UNL     1      45.048   1.250   9.700  0.00  0.00    +0.000 HD
ENDBRANCH  23  25
ENDBRANCH  19  23
ENDBRANCH   1  14
TORSDOF 4
ENDMDL
MODEL 9
REMARK VINA RESULT:    -5.500      5.397      8.302
REMARK INTER + INTRA:          -6.851
REMARK INTER:                  -6.162
REMARK INTRA:                  -0.689
REMARK UNBOUND:                -0.225
REMARK  Name = 
REMARK  4 active torsions:
REMARK  status: ('A' for Active; 'I' for Inactive)
REMARK    1  A    between atoms: C_7  and  C_8
REMARK    2  A    between atoms: C_8  and  N_9
REMARK    3  A    between atoms: C_14  and  C_15
REMARK    4  A    between atoms: C_15  and  O_17
REMARK                            x       y       z     vdW  Elec       q    Type
REMARK                         _______ _______ _______ _____ _____    ______ ____
ROOT
ATOM      1  C   UNL     1      48.214   8.707  14.175  0.00  0.00    +0.000 C 
ENDROOT
BRANCH   1   8
ATOM      2  N   UNL     1      44.079   5.113  12.881  0.00  0.00    +0.000 NA
ATOM      3  C   UNL     1      44.308   6.205  12.242  0.00  0.00    +0.000 C 
ATOM      4  N   UNL     1      43.398   6.754  11.410  0.00  0.00    +0.000 N 
ATOM      5  N   UNL     1      45.482   6.907  12.291  0.00  0.00    +0.000 N 
ATOM      6  C   UNL     1      45.413   8.320  12.688  0.00  0.00    +0.000 C 
ATOM      7  C   UNL     1      46.632   9.060  12.154  0.00  0.00    +0.000 C 
ATOM      8  C   UNL     1      47.947   8.453  12.671  0.00  0.00    +0.000 C 
ATOM      9  C   UNL     1      47.942   6.944  12.351  0.00  0.00    +0.000 C 
ATOM     10  C   UNL     1      46.672   6.227  12.829  0.00  0.00    +0.000 C 
ATOM     11  H   UNL     1      43.123   4.810  12.690  0.00  0.00    +0.000 HD
ATOM     12  H   UNL     1      42.689   6.116  11.075  0.00  0.00    +0.000 HD
ATOM     13  H   UNL     1      43.848   7.235  10.639  0.00  0.00    +0.000 HD
ENDBRANCH   1   8
BRANCH   1  14
ATOM     14  N   UNL     1      49.460   8.131  14.670  0.00  0.00    +0.000 N 
ATOM     15  C   UNL     1      50.705   8.599  14.333  0.00  0.00    +0.000 A 
ATOM     16  C   UNL     1      51.639   7.887  15.052  0.00  0.00    +0.000 A 
ATOM     17  C   UNL     1      50.941   6.945  15.854  0.00  0.00    +0.000 A 
ATOM     18  C   UNL     1      51.348   5.991  16.808  0.00  0.00    +0.000 A 
ATOM     19  C   UNL     1      50.383   5.188  17.438  0.00  0.00    +0.000 A 
ATOM     20  C   UNL     1      49.043   5.262  17.053  0.00  0.00    +0.000 A 
ATOM     21  C   UNL     1      48.632   6.183  16.084  0.00  0.00    +0.000 A 
ATOM     22  C   UNL     1      49.583   7.058  15.537  0.00  0.00    +0.000 A 
BRANCH  19  23
ATOM     23  C   UNL     1      50.837   4.232  18.479  0.00  0.00    +0.000 C 
ATOM     24  O   UNL     1      51.962   3.762  18.507  0.00  0.00    +0.000 OA
BRANCH  23  25
ATOM     25  O   UNL     1      49.904   3.970  19.417  0.00  0.00    +0.000 OA
ATOM     26  H   UNL     1      49.381   3.162  19.265  0.00  0.00    +0.000 HD
ENDBRANCH  23  25
ENDBRANCH  19  23
ENDBRANCH   1  14
TORSDOF 4
ENDMDL
