MODEL 1
REMARK VINA RESULT:    -6.931      0.000      0.000
REMARK INTER + INTRA:         -10.470
REMARK INTER:                  -9.565
REMARK INTRA:                  -0.905
REMARK UNBOUND:                -0.905
REMARK  Name = 
REMARK  8 active torsions:
REMARK  status: ('A' for Active; 'I' for Inactive)
REMARK    1  A    between atoms: C_1  and  C_2
REMARK    2  A    between atoms: C_2  and  O_3
REMARK    3  A    between atoms: C_2  and  C_16
REMARK    4  A    between atoms: O_3  and  C_4
REMARK    5  A    between atoms: C_7  and  S_8
REMARK    6  A    between atoms: S_8  and  C_11
REMARK    7  A    between atoms: C_11  and  C_12
REMARK    8  A    between atoms: C_12  and  O_13
REMARK                            x       y       z     vdW  Elec       q    Type
REMARK                         _______ _______ _______ _____ _____    ______ ____
ROOT
ATOM      1  C   UNL     1      46.230   4.959  12.527  0.00  0.00    +0.000 A 
ATOM      2  C   UNL     1      46.793   5.967  13.320  0.00  0.00    +0.000 A 
ATOM      3  C   UNL     1      47.335   5.651  14.574  0.00  0.00    +0.000 A 
ATOM      4  C   UNL     1      47.346   4.327  15.009  0.00  0.00    +0.000 A 
ATOM      5  C   UNL     1      46.916   3.308  14.152  0.00  0.00    +0.000 A 
ATOM      6  C   UNL     1      46.359   3.635  12.919  0.00  0.00    +0.000 A 
ENDROOT
BRANCH   4   7
ATOM      7  S   UNL     1      47.860   3.843  16.647  0.00  0.00    +0.000 S 
ATOM      8  O   UNL     1      46.733   3.280  17.322  0.00  0.00    +0.000 OA
ATOM      9  O   UNL     1      49.070   3.064  16.475  0.00  0.00    +0.000 OA
BRANCH   7  10
ATOM     10  C   UNL     1      48.289   5.360  17.482  0.00  0.00    +0.000 C 
BRANCH  10  11
ATOM     11  C   UNL     1      47.701   5.373  18.877  0.00  0.00    +0.000 C 
BRANCH  11  12
ATOM     12  O   UNL     1      46.282   5.509  18.793  0.00  0.00    +0.000 OA
ATOM     13  H   UNL     1      46.066   6.455  18.851  0.00  0.00    +0.000 HD
ENDBRANCH  11  12
ENDBRANCH  10  11
ENDBRANCH   7  10
ENDBRANCH   4   7
BRANCH   1  14
ATOM     14  O   UNL     1      45.459   5.331  11.450  0.00  0.00    +0.000 OA
BRANCH  14  16
ATOM     15  C   UNL     1      43.190   5.157  10.706  0.00  0.00    +0.000 C 
ATOM     16  C   UNL     1      44.498   4.379  10.938  0.00  0.00    +0.000 C 
BRANCH  16  17
ATOM     17  C   UNL     1      44.947   3.731   9.626  0.00  0.00    +0.000 A 
ATOM     18  C   UNL     1      45.505   4.505   8.594  0.00  0.00    +0.000 A 
ATOM     19  C   UNL     1      46.301   3.914   7.612  0.00  0.00    +0.000 A 
ATOM     20  C   UNL     1      46.428   2.527   7.556  0.00  0.00    +0.000 A 
ATOM     21  C   UNL     1      45.702   1.742   8.446  0.00  0.00    +0.000 A 
ATOM     22  C   UNL     1      44.981   2.336   9.486  0.00  0.00    +0.000 A 
ENDBRANCH  16  17
ENDBRANCH  14  16
ENDBRANCH   1  14
TORSDOF 7
ENDMDL
MODEL 2
REMARK VINA RESULT:    -6.707      1.222      1.986
REMARK INTER + INTRA:         -10.161
REMARK INTER:                  -9.201
REMARK INTRA:                  -0.960
REMARK UNBOUND:                -0.905
REMARK  Name = 
REMARK  8 active torsions:
REMARK  status: ('A' for Active; 'I' for Inactive)
REMARK    1  A    between atoms: C_1  and  C_2
REMARK    2  A    between atoms: C_2  and  O_3
REMARK    3  A    between atoms: C_2  and  C_16
REMARK    4  A    between atoms: O_3  and  C_4
REMARK    5  A    between atoms: C_7  and  S_8
REMARK    6  A    between atoms: S_8  and  C_11
REMARK    7  A    between atoms: C_11  and  C_12
REMARK    8  A    between atoms: C_12  and  O_13
REMARK                            x       y       z     vdW  Elec       q    Type
REMARK                         _______ _______ _______ _____ _____    ______ ____
ROOT
ATOM      1  C   UNL     1      46.290   5.312  12.731  0.00  0.00    +0.000 A 
ATOM      2  C   UNL     1      47.065   6.364  13.236  0.00  0.00    +0.000 A 
ATOM      3  C   UNL     1      47.754   6.209  14.447  0.00  0.00    +0.000 A 
ATOM      4  C   UNL     1      47.696   4.992  15.124  0.00  0.00    +0.000 A 
ATOM      5  C   UNL     1      47.042   3.900  14.542  0.00  0.00    +0.000 A 
ATOM      6  C   UNL     1      46.342   4.073  13.352  0.00  0.00    +0.000 A 
ENDROOT
BRANCH   4   7
ATOM      7  S   UNL     1      48.398   4.743  16.745  0.00  0.00    +0.000 S 
ATOM      8  O   UNL     1      49.814   4.914  16.652  0.00  0.00    +0.000 OA
ATOM      9  O   UNL     1      47.622   5.567  17.650  0.00  0.00    +0.000 OA
BRANCH   7  10
ATOM     10  C   UNL     1      48.085   3.032  17.145  0.00  0.00    +0.000 C 
BRANCH  10  11
ATOM     11  C   UNL     1      49.385   2.257  17.181  0.00  0.00    +0.000 C 
BRANCH  11  12
ATOM     12  O   UNL     1      49.693   1.782  15.870  0.00  0.00    +0.000 OA
ATOM     13  H   UNL     1      48.953   2.014  15.285  0.00  0.00    +0.000 HD
ENDBRANCH  11  12
ENDBRANCH  10  11
ENDBRANCH   7  10
ENDBRANCH   4   7
BRANCH   1  14
ATOM     14  O   UNL     1      45.409   5.583  11.711  0.00  0.00    +0.000 OA
BRANCH  14  16
ATOM     15  C   UNL     1      43.084   5.244  11.249  0.00  0.00    +0.000 C 
ATOM     16  C   UNL     1      44.458   4.557  11.341  0.00  0.00    +0.000 C 
BRANCH  16  17
ATOM     17  C   UNL     1      44.790   3.898  10.000  0.00  0.00    +0.000 A 
ATOM     18  C   UNL     1      45.375   4.637   8.958  0.00  0.00    +0.000 A 
ATOM     19  C   UNL     1      46.071   3.995   7.933  0.00  0.00    +0.000 A 
ATOM     20  C   UNL     1      46.064   2.603   7.849  0.00  0.00    +0.000 A 
ATOM     21  C   UNL     1      45.304   1.871   8.756  0.00  0.00    +0.000 A 
ATOM     22  C   UNL     1      44.686   2.508   9.835  0.00  0.00    +0.000 A 
ENDBRANCH  16  17
ENDBRANCH  14  16
ENDBRANCH   1  14
TORSDOF 7
ENDMDL
MODEL 3
REMARK VINA RESULT:    -6.099      2.612      3.188
REMARK INTER + INTRA:          -9.322
REMARK INTER:                  -8.215
REMARK INTRA:                  -1.107
REMARK UNBOUND:                -0.905
REMARK  Name = 
REMARK  8 active torsions:
REMARK  status: ('A' for Active; 'I' for Inactive)
REMARK    1  A    between atoms: C_1  and  C_2
REMARK    2  A    between atoms: C_2  and  O_3
REMARK    3  A    between atoms: C_2  and  C_16
REMARK    4  A    between atoms: O_3  and  C_4
REMARK    5  A    between atoms: C_7  and  S_8
REMARK    6  A    between atoms: S_8  and  C_11
REMARK    7  A    between atoms: C_11  and  C_12
REMARK    8  A    between atoms: C_12  and  O_13
REMARK                            x       y       z     vdW  Elec       q    Type
REMARK                         _______ _______ _______ _____ _____    ______ ____
ROOT
ATOM      1  C   UNL     1      45.272   5.361  12.273  0.00  0.00    +0.000 A 
ATOM      2  C   UNL     1      46.030   4.570  13.147  0.00  0.00    +0.000 A 
ATOM      3  C   UNL     1      47.138   5.120  13.806  0.00  0.00    +0.000 A 
ATOM      4  C   UNL     1      47.458   6.464  13.619  0.00  0.00    +0.000 A 
ATOM      5  C   UNL     1      46.613   7.282  12.861  0.00  0.00    +0.000 A 
ATOM      6  C   UNL     1      45.529   6.721  12.193  0.00  0.00    +0.000 A 
ENDROOT
BRANCH   4   7
ATOM      7  S   UNL     1      48.935   7.216  14.278  0.00  0.00    +0.000 S 
ATOM      8  O   UNL     1      49.435   6.381  15.325  0.00  0.00    +0.000 OA
ATOM      9  O   UNL     1      49.769   7.531  13.136  0.00  0.00    +0.000 OA
BRANCH   7  10
ATOM     10  C   UNL     1      48.402   8.750  15.018  0.00  0.00    +0.000 C 
BRANCH  10  11
ATOM     11  C   UNL     1      49.593   9.512  15.558  0.00  0.00    +0.000 C 
BRANCH  11  12
ATOM     12  O   UNL     1      50.783   8.753  15.337  0.00  0.00    +0.000 OA
ATOM     13  H   UNL     1      51.479   9.364  15.044  0.00  0.00    +0.000 HD
ENDBRANCH  11  12
ENDBRANCH  10  11
ENDBRANCH   7  10
ENDBRANCH   4   7
BRANCH   1  14
ATOM     14  O   UNL     1      44.382   4.734  11.433  0.00  0.00    +0.000 OA
BRANCH  14  16
ATOM     15  C   UNL     1      43.320   2.590  11.336  0.00  0.00    +0.000 C 
ATOM     16  C   UNL     1      44.632   3.353  11.082  0.00  0.00    +0.000 C 
BRANCH  16  17
ATOM     17  C   UNL     1      45.049   3.179   9.619  0.00  0.00    +0.000 A 
ATOM     18  C   UNL     1      45.325   4.294   8.811  0.00  0.00    +0.000 A 
ATOM     19  C   UNL     1      46.106   4.165   7.662  0.00  0.00    +0.000 A 
ATOM     20  C   UNL     1      46.495   2.901   7.220  0.00  0.00    +0.000 A 
ATOM     21  C   UNL     1      46.040   1.775   7.898  0.00  0.00    +0.000 A 
ATOM     22  C   UNL     1      45.339   1.909   9.099  0.00  0.00    +0.000 A 
ENDBRANCH  16  17
ENDBRANCH  14  16
ENDBRANCH   1  14
TORSDOF 7
ENDMDL
MODEL 4
REMARK VINA RESULT:    -6.006      3.215      7.085
REMARK INTER + INTRA:          -9.194
REMARK INTER:                  -8.230
REMARK INTRA:                  -0.964
REMARK UNBOUND:                -0.905
REMARK  Name = 
REMARK  8 active torsions:
REMARK  status: ('A' for Active; 'I' for Inactive)
REMARK    1  A    between atoms: C_1  and  C_2
REMARK    2  A    between atoms: C_2  and  O_3
REMARK    3  A    between atoms: C_2  and  C_16
REMARK    4  A    between atoms: O_3  and  C_4
REMARK    5  A    between atoms: C_7  and  S_8
REMARK    6  A    between atoms: S_8  and  C_11
REMARK    7  A    between atoms: C_11  and  C_12
REMARK    8  A    between atoms: C_12  and  O_13
REMARK                            x       y       z     vdW  Elec       q    Type
REMARK                         _______ _______ _______ _____ _____    ______ ____
ROOT
ATOM      1  C   UNL     1      47.115   5.205  13.635  0.00  0.00    +0.000 A 
ATOM      2  C   UNL     1      46.289   6.161  13.027  0.00  0.00    +0.000 A 
ATOM      3  C   UNL     1      45.238   5.751  12.196  0.00  0.00    +0.000 A 
ATOM      4  C   UNL     1      44.993   4.391  12.010  0.00  0.00    +0.000 A 
ATOM      5  C   UNL     1      45.727   3.445  12.734  0.00  0.00    +0.000 A 
ATOM      6  C   UNL     1      46.783   3.862  13.538  0.00  0.00    +0.000 A 
ENDROOT
BRANCH   4   7
ATOM      7  S   UNL     1      43.790   3.766  10.850  0.00  0.00    +0.000 S 
ATOM      8  O   UNL     1      43.061   2.713  11.483  0.00  0.00    +0.000 OA
ATOM      9  O   UNL     1      43.093   4.925  10.330  0.00  0.00    +0.000 OA
BRANCH   7  10
ATOM     10  C   UNL     1      44.738   3.045   9.520  0.00  0.00    +0.000 C 
BRANCH  10  11
ATOM     11  C   UNL     1      44.748   3.971   8.323  0.00  0.00    +0.000 C 
BRANCH  11  12
ATOM     12  O   UNL     1      45.516   5.135   8.629  0.00  0.00    +0.000 OA
ATOM     13  H   UNL     1      45.850   5.503   7.794  0.00  0.00    +0.000 HD
ENDBRANCH  11  12
ENDBRANCH  10  11
ENDBRANCH   7  10
ENDBRANCH   4   7
BRANCH   1  14
ATOM     14  O   UNL     1      48.294   5.629  14.202  0.00  0.00    +0.000 OA
BRANCH  14  16
ATOM     15  C   UNL     1      48.992   6.952  16.071  0.00  0.00    +0.000 C 
ATOM     16  C   UNL     1      48.378   6.998  14.660  0.00  0.00    +0.000 C 
BRANCH  16  17
ATOM     17  C   UNL     1      49.244   7.875  13.753  0.00  0.00    +0.000 A 
ATOM     18  C   UNL     1      49.686   7.405  12.505  0.00  0.00    +0.000 A 
ATOM     19  C   UNL     1      50.079   8.298  11.507  0.00  0.00    +0.000 A 
ATOM     20  C   UNL     1      50.182   9.659  11.788  0.00  0.00    +0.000 A 
ATOM     21  C   UNL     1      49.954  10.104  13.086  0.00  0.00    +0.000 A 
ATOM     22  C   UNL     1      49.470   9.225  14.059  0.00  0.00    +0.000 A 
ENDBRANCH  16  17
ENDBRANCH  14  16
ENDBRANCH   1  14
TORSDOF 7
ENDMDL
MODEL 5
REMARK VINA RESULT:    -5.597      2.645      3.282
REMARK INTER + INTRA:          -8.629
REMARK INTER:                  -7.588
REMARK INTRA:                  -1.041
REMARK UNBOUND:                -0.905
REMARK  Name = 
REMARK  8 active torsions:
REMARK  status: ('A' for Active; 'I' for Inactive)
REMARK    1  A    between atoms: C_1  and  C_2
REMARK    2  A    between atoms: C_2  and  O_3
REMARK    3  A    between atoms: C_2  and  C_16
REMARK    4  A    between atoms: O_3  and  C_4
REMARK    5  A    between atoms: C_7  and  S_8
REMARK    6  A    between atoms: S_8  and  C_11
REMARK    7  A    between atoms: C_11  and  C_12
REMARK    8  A    between atoms: C_12  and  O_13
REMARK                            x       y       z     vdW  Elec       q    Type
REMARK                         _______ _______ _______ _____ _____    ______ ____
ROOT
ATOM      1  C   UNL     1      46.236   7.407  11.851  0.00  0.00    +0.000 A 
ATOM      2  C   UNL     1      46.001   8.267  12.932  0.00  0.00    +0.000 A 
ATOM      3  C   UNL     1      47.013   8.500  13.874  0.00  0.00    +0.000 A 
ATOM      4  C   UNL     1      48.262   7.904  13.709  0.00  0.00    +0.000 A 
ATOM      5  C   UNL     1      48.535   7.166  12.553  0.00  0.00    +0.000 A 
ATOM      6  C   UNL     1      47.517   6.923  11.636  0.00  0.00    +0.000 A 
ENDROOT
BRANCH   4   7
ATOM      7  S   UNL     1      49.559   8.003  14.931  0.00  0.00    +0.000 S 
ATOM      8  O   UNL     1      50.031   6.679  15.191  0.00  0.00    +0.000 OA
ATOM      9  O   UNL     1      50.474   9.024  14.464  0.00  0.00    +0.000 OA
BRANCH   7  10
ATOM     10  C   UNL     1      48.772   8.598  16.417  0.00  0.00    +0.000 C 
BRANCH  10  11
ATOM     11  C   UNL     1      48.799   7.529  17.488  0.00  0.00    +0.000 C 
BRANCH  11  12
ATOM     12  O   UNL     1      47.954   6.446  17.100  0.00  0.00    +0.000 OA
ATOM     13  H   UNL     1      47.371   6.236  17.848  0.00  0.00    +0.000 HD
ENDBRANCH  11  12
ENDBRANCH  10  11
ENDBRANCH   7  10
ENDBRANCH   4   7
BRANCH   1  14
ATOM     14  O   UNL     1      45.157   6.977  11.115  0.00  0.00    +0.000 OA
BRANCH  14  16
ATOM     15  C   UNL     1      43.059   5.863  11.421  0.00  0.00    +0.000 C 
ATOM     16  C   UNL     1      44.588   5.685  11.431  0.00  0.00    +0.000 C 
BRANCH  16  17
ATOM     17  C   UNL     1      44.982   4.601  10.424  0.00  0.00    +0.000 A 
ATOM     18  C   UNL     1      44.605   3.263  10.621  0.00  0.00    +0.000 A 
ATOM     19  C   UNL     1      44.561   2.370   9.549  0.00  0.00    +0.000 A 
ATOM     20  C   UNL     1      45.036   2.758   8.297  0.00  0.00    +0.000 A 
ATOM     21  C   UNL     1      45.614   4.015   8.149  0.00  0.00    +0.000 A 
ATOM     22  C   UNL     1      45.572   4.939   9.196  0.00  0.00    +0.000 A 
ENDBRANCH  16  17
ENDBRANCH  14  16
ENDBRANCH   1  14
TORSDOF 7
ENDMDL
MODEL 6
REMARK VINA RESULT:    -5.574      2.764      7.684
REMARK INTER + INTRA:          -8.597
REMARK INTER:                  -7.719
REMARK INTRA:                  -0.878
REMARK UNBOUND:                -0.905
REMARK  Name = 
REMARK  8 active torsions:
REMARK  status: ('A' for Active; 'I' for Inactive)
REMARK    1  A    between atoms: C_1  and  C_2
REMARK    2  A    between atoms: C_2  and  O_3
REMARK    3  A    between atoms: C_2  and  C_16
REMARK    4  A    between atoms: O_3  and  C_4
REMARK    5  A    between atoms: C_7  and  S_8
REMARK    6  A    between atoms: S_8  and  C_11
REMARK    7  A    between atoms: C_11  and  C_12
REMARK    8  A    between atoms: C_12  and  O_13
REMARK                            x       y       z     vdW  Elec       q    Type
REMARK                         _______ _______ _______ _____ _____    ______ ____
ROOT
ATOM      1  C   UNL     1      47.472   4.788  15.066  0.00  0.00    +0.000 A 
ATOM      2  C   UNL     1      46.809   3.784  14.348  0.00  0.00    +0.000 A 
ATOM      3  C   UNL     1      46.138   4.100  13.158  0.00  0.00    +0.000 A 
ATOM      4  C   UNL     1      46.168   5.406  12.673  0.00  0.00    +0.000 A 
ATOM      5  C   UNL     1      46.952   6.371  13.316  0.00  0.00    +0.000 A 
ATOM      6  C   UNL     1      47.594   6.052  14.508  0.00  0.00    +0.000 A 
ENDROOT
BRANCH   4   7
ATOM      7  S   UNL     1      45.216   5.945  11.264  0.00  0.00    +0.000 S 
ATOM      8  O   UNL     1      44.774   7.283  11.507  0.00  0.00    +0.000 OA
ATOM      9  O   UNL     1      46.019   5.644  10.097  0.00  0.00    +0.000 OA
BRANCH   7  10
ATOM     10  C   UNL     1      43.773   4.896  11.232  0.00  0.00    +0.000 C 
BRANCH  10  11
ATOM     11  C   UNL     1      42.597   5.604  11.870  0.00  0.00    +0.000 C 
BRANCH  11  12
ATOM     12  O   UNL     1      42.772   5.635  13.287  0.00  0.00    +0.000 OA
ATOM     13  H   UNL     1      43.275   6.436  13.510  0.00  0.00    +0.000 HD
ENDBRANCH  11  12
ENDBRANCH  10  11
ENDBRANCH   7  10
ENDBRANCH   4   7
BRANCH   1  14
ATOM     14  O   UNL     1      47.869   4.515  16.354  0.00  0.00    +0.000 OA
BRANCH  14  16
ATOM     15  C   UNL     1      48.729   6.091  17.939  0.00  0.00    +0.000 C 
ATOM     16  C   UNL     1      49.106   5.098  16.824  0.00  0.00    +0.000 C 
BRANCH  16  17
ATOM     17  C   UNL     1      50.081   4.055  17.377  0.00  0.00    +0.000 A 
ATOM     18  C   UNL     1      49.819   2.682  17.243  0.00  0.00    +0.000 A 
ATOM     19  C   UNL     1      50.852   1.748  17.330  0.00  0.00    +0.000 A 
ATOM     20  C   UNL     1      52.133   2.155  17.702  0.00  0.00    +0.000 A 
ATOM     21  C   UNL     1      52.349   3.486  18.048  0.00  0.00    +0.000 A 
ATOM     22  C   UNL     1      51.338   4.435  17.870  0.00  0.00    +0.000 A 
ENDBRANCH  16  17
ENDBRANCH  14  16
ENDBRANCH   1  14
TORSDOF 7
ENDMDL
MODEL 7
REMARK VINA RESULT:    -5.472      2.317      7.993
REMARK INTER + INTRA:          -8.456
REMARK INTER:                  -7.564
REMARK INTRA:                  -0.892
REMARK UNBOUND:                -0.905
REMARK  Name = 
REMARK  8 active torsions:
REMARK  status: ('A' for Active; 'I' for Inactive)
REMARK    1  A    between atoms: C_1  and  C_2
REMARK    2  A    between atoms: C_2  and  O_3
REMARK    3  A    between atoms: C_2  and  C_16
REMARK    4  A    between atoms: O_3  and  C_4
REMARK    5  A    between atoms: C_7  and  S_8
REMARK    6  A    between atoms: S_8  and  C_11
REMARK    7  A    between atoms: C_11  and  C_12
REMARK    8  A    between atoms: C_12  and  O_13
REMARK                            x       y       z     vdW  Elec       q    Type
REMARK                         _______ _______ _______ _____ _____    ______ ____
ROOT
ATOM      1  C   UNL     1      47.145   4.362  14.216  0.00  0.00    +0.000 A 
ATOM      2  C   UNL     1      46.486   3.313  13.561  0.00  0.00    +0.000 A 
ATOM      3  C   UNL     1      45.451   3.590  12.658  0.00  0.00    +0.000 A 
ATOM      4  C   UNL     1      45.107   4.913  12.385  0.00  0.00    +0.000 A 
ATOM      5  C   UNL     1      45.863   5.956  12.929  0.00  0.00    +0.000 A 
ATOM      6  C   UNL     1      46.874   5.670  13.842  0.00  0.00    +0.000 A 
ENDROOT
BRANCH   4   7
ATOM      7  S   UNL     1      43.703   5.369  11.383  0.00  0.00    +0.000 S 
ATOM      8  O   UNL     1      42.514   4.976  12.072  0.00  0.00    +0.000 OA
ATOM      9  O   UNL     1      43.907   6.755  11.012  0.00  0.00    +0.000 OA
BRANCH   7  10
ATOM     10  C   UNL     1      43.826   4.374   9.906  0.00  0.00    +0.000 C 
BRANCH  10  11
ATOM     11  C   UNL     1      45.249   4.378   9.390  0.00  0.00    +0.000 C 
BRANCH  11  12
ATOM     12  O   UNL     1      45.597   5.697   8.966  0.00  0.00    +0.000 OA
ATOM     13  H   UNL     1      45.613   6.271   9.750  0.00  0.00    +0.000 HD
ENDBRANCH  11  12
ENDBRANCH  10  11
ENDBRANCH   7  10
ENDBRANCH   4   7
BRANCH   1  14
ATOM     14  O   UNL     1      47.945   4.060  15.293  0.00  0.00    +0.000 OA
BRANCH  14  16
ATOM     15  C   UNL     1      47.484   2.902  17.337  0.00  0.00    +0.000 C 
ATOM     16  C   UNL     1      47.406   4.262  16.620  0.00  0.00    +0.000 C 
BRANCH  16  17
ATOM     17  C   UNL     1      48.184   5.308  17.422  0.00  0.00    +0.000 A 
ATOM     18  C   UNL     1      47.663   5.834  18.616  0.00  0.00    +0.000 A 
ATOM     19  C   UNL     1      48.504   6.423  19.561  0.00  0.00    +0.000 A 
ATOM     20  C   UNL     1      49.850   6.633  19.264  0.00  0.00    +0.000 A 
ATOM     21  C   UNL     1      50.325   6.310  17.997  0.00  0.00    +0.000 A 
ATOM     22  C   UNL     1      49.507   5.635  17.087  0.00  0.00    +0.000 A 
ENDBRANCH  16  17
ENDBRANCH  14  16
ENDBRANCH   1  14
TORSDOF 7
ENDMDL
MODEL 8
REMARK VINA RESULT:    -5.381      3.541      7.846
REMARK INTER + INTRA:          -8.330
REMARK INTER:                  -7.354
REMARK INTRA:                  -0.976
REMARK UNBOUND:                -0.905
REMARK  Name = 
REMARK  8 active torsions:
REMARK  status: ('A' for Active; 'I' for Inactive)
REMARK    1  A    between atoms: C_1  and  C_2
REMARK    2  A    between atoms: C_2  and  O_3
REMARK    3  A    between atoms: C_2  and  C_16
REMARK    4  A    between atoms: O_3  and  C_4
REMARK    5  A    between atoms: C_7  and  S_8
REMARK    6  A    between atoms: S_8  and  C_11
REMARK    7  A    between atoms: C_11  and  C_12
REMARK    8  A    between atoms: C_12  and  O_13
REMARK                            x       y       z     vdW  Elec       q    Type
REMARK                         _______ _______ _______ _____ _____    ______ ____
ROOT
ATOM      1  C   UNL     1      48.156   6.503  13.838  0.00  0.00    +0.000 A 
ATOM      2  C   UNL     1      47.761   7.260  12.727  0.00  0.00    +0.000 A 
ATOM      3  C   UNL     1      46.740   6.792  11.889  0.00  0.00    +0.000 A 
ATOM      4  C   UNL     1      46.094   5.593  12.187  0.00  0.00    +0.000 A 
ATOM      5  C   UNL     1      46.393   4.918  13.376  0.00  0.00    +0.000 A 
ATOM      6  C   UNL     1      47.423   5.379  14.189  0.00  0.00    +0.000 A 
ENDROOT
BRANCH   4   7
ATOM      7  S   UNL     1      44.901   4.831  11.102  0.00  0.00    +0.000 S 
ATOM      8  O   UNL     1      45.440   4.822   9.778  0.00  0.00    +0.000 OA
ATOM      9  O   UNL     1      44.514   3.588  11.739  0.00  0.00    +0.000 OA
BRANCH   7  10
ATOM     10  C   UNL     1      43.488   5.921  11.104  0.00  0.00    +0.000 C 
BRANCH  10  11
ATOM     11  C   UNL     1      42.419   5.389  12.034  0.00  0.00    +0.000 C 
BRANCH  11  12
ATOM     12  O   UNL     1      42.848   5.540  13.388  0.00  0.00    +0.000 OA
ATOM     13  H   UNL     1      42.338   4.921  13.937  0.00  0.00    +0.000 HD
ENDBRANCH  11  12
ENDBRANCH  10  11
ENDBRANCH   7  10
ENDBRANCH   4   7
BRANCH   1  14
ATOM     14  O   UNL     1      49.333   6.835  14.468  0.00  0.00    +0.000 OA
BRANCH  14  16
ATOM     15  C   UNL     1      50.949   6.673  16.228  0.00  0.00    +0.000 C 
ATOM     16  C   UNL     1      49.454   6.553  15.881  0.00  0.00    +0.000 C 
BRANCH  16  17
ATOM     17  C   UNL     1      48.649   7.523  16.750  0.00  0.00    +0.000 A 
ATOM     18  C   UNL     1      48.242   7.163  18.045  0.00  0.00    +0.000 A 
ATOM     19  C   UNL     1      47.914   8.141  18.986  0.00  0.00    +0.000 A 
ATOM     20  C   UNL     1      47.840   9.480  18.606  0.00  0.00    +0.000 A 
ATOM     21  C   UNL     1      48.031   9.818  17.269  0.00  0.00    +0.000 A 
ATOM     22  C   UNL     1      48.451   8.853  16.350  0.00  0.00    +0.000 A 
ENDBRANCH  16  17
ENDBRANCH  14  16
ENDBRANCH   1  14
TORSDOF 7
ENDMDL
MODEL 9
REMARK VINA RESULT:    -5.379      3.496      7.354
REMARK INTER + INTRA:          -8.329
REMARK INTER:                  -7.887
REMARK INTRA:                  -0.441
REMARK UNBOUND:                -0.905
REMARK  Name = 
REMARK  8 active torsions:
REMARK  status: ('A' for Active; 'I' for Inactive)
REMARK    1  A    between atoms: C_1  and  C_2
REMARK    2  A    between atoms: C_2  and  O_3
REMARK    3  A    between atoms: C_2  and  C_16
REMARK    4  A    between atoms: O_3  and  C_4
REMARK    5  A    between atoms: C_7  and  S_8
REMARK    6  A    between atoms: S_8  and  C_11
REMARK    7  A    between atoms: C_11  and  C_12
REMARK    8  A    between atoms: C_12  and  O_13
REMARK                            x       y       z     vdW  Elec       q    Type
REMARK                         _______ _______ _______ _____ _____    ______ ____
ROOT
ATOM      1  C   UNL     1      44.747   5.079  11.826  0.00  0.00    +0.000 A 
ATOM      2  C   UNL     1      45.307   5.733  10.721  0.00  0.00    +0.000 A 
ATOM      3  C   UNL     1      45.516   5.034   9.524  0.00  0.00    +0.000 A 
ATOM      4  C   UNL     1      45.127   3.699   9.426  0.00  0.00    +0.000 A 
ATOM      5  C   UNL     1      44.436   3.094  10.482  0.00  0.00    +0.000 A 
ATOM      6  C   UNL     1      44.255   3.791  11.673  0.00  0.00    +0.000 A 
ENDROOT
BRANCH   4   7
ATOM      7  S   UNL     1      45.495   2.676   8.011  0.00  0.00    +0.000 S 
ATOM      8  O   UNL     1      45.674   1.332   8.463  0.00  0.00    +0.000 OA
ATOM      9  O   UNL     1      44.483   2.983   7.020  0.00  0.00    +0.000 OA
BRANCH   7  10
ATOM     10  C   UNL     1      47.067   3.255   7.398  0.00  0.00    +0.000 C 
BRANCH  10  11
ATOM     11  C   UNL     1      47.745   2.170   6.589  0.00  0.00    +0.000 C 
BRANCH  11  12
ATOM     12  O   UNL     1      49.022   2.633   6.148  0.00  0.00    +0.000 OA
ATOM     13  H   UNL     1      49.073   3.587   6.323  0.00  0.00    +0.000 HD
ENDBRANCH  11  12
ENDBRANCH  10  11
ENDBRANCH   7  10
ENDBRANCH   4   7
BRANCH   1  14
ATOM     14  O   UNL     1      44.819   5.694  13.053  0.00  0.00    +0.000 OA
BRANCH  14  16
ATOM     15  C   UNL     1      46.729   4.313  13.470  0.00  0.00    +0.000 C 
ATOM     16  C   UNL     1      46.087   5.684  13.748  0.00  0.00    +0.000 C 
BRANCH  16  17
ATOM     17  C   UNL     1      47.030   6.794  13.278  0.00  0.00    +0.000 A 
ATOM     18  C   UNL     1      48.266   6.487  12.687  0.00  0.00    +0.000 A 
ATOM     19  C   UNL     1      48.918   7.418  11.877  0.00  0.00    +0.000 A 
ATOM     20  C   UNL     1      48.425   8.717  11.768  0.00  0.00    +0.000 A 
ATOM     21  C   UNL     1      47.319   9.089  12.526  0.00  0.00    +0.000 A 
ATOM     22  C   UNL     1      46.613   8.134  13.261  0.00  0.00    +0.000 A 
ENDBRANCH  16  17
ENDBRANCH  14  16
ENDBRANCH   1  14
TORSDOF 7
ENDMDL
