MODEL 1
REMARK VINA RESULT:    -9.191      0.000      0.000
REMARK INTER + INTRA:         -11.898
REMARK INTER:                 -11.340
REMARK INTRA:                  -0.558
REMARK UNBOUND:                -0.558
REMARK  Name = 
REMARK  4 active torsions:
REMARK  status: ('A' for Active; 'I' for Inactive)
REMARK    1  A    between atoms: C_2  and  C_4
REMARK    2  A    between atoms: N_8  and  C_9
REMARK    3  A    between atoms: C_9  and  C_10
REMARK    4  A    between atoms: C_14  and  C_15
REMARK                            x       y       z     vdW  Elec       q    Type
REMARK                         _______ _______ _______ _____ _____    ______ ____
ROOT
ATOM      1  C   UNL     1      43.947   4.949  11.415  0.00  0.00    +0.000 C 
ATOM      2  C   UNL     1      42.697   4.915  12.277  0.00  0.00    +0.000 C 
ATOM      3  C   UNL     1      42.940   6.087  11.394  0.00  0.00    +0.000 C 
ENDROOT
BRANCH   1   8
ATOM      4  C   UNL     1      46.500   2.691   7.450  0.00  0.00    +0.000 A 
ATOM      5  C   UNL     1      46.191   4.045   7.596  0.00  0.00    +0.000 A 
ATOM      6  C   UNL     1      45.405   4.455   8.672  0.00  0.00    +0.000 A 
ATOM      7  C   UNL     1      44.927   3.499   9.555  0.00  0.00    +0.000 A 
ATOM      8  N   UNL     1      43.979   3.767  10.537  0.00  0.00    +0.000 N 
ATOM      9  N   UNL     1      45.228   2.187   9.430  0.00  0.00    +0.000 NA
ATOM     10  C   UNL     1      46.001   1.808   8.383  0.00  0.00    +0.000 A 
ATOM     11  H   UNL     1      43.889   2.878  11.032  0.00  0.00    +0.000 HD
BRANCH   4  13
ATOM     12  N   UNL     1      47.372   2.963   5.206  0.00  0.00    +0.000 N 
ATOM     13  C   UNL     1      47.287   2.172   6.329  0.00  0.00    +0.000 C 
ATOM     14  O   UNL     1      47.887   1.104   6.393  0.00  0.00    +0.000 OA
ATOM     15  H   UNL     1      48.002   2.628   4.480  0.00  0.00    +0.000 HD
ATOM     16  H   UNL     1      47.105   3.925   5.208  0.00  0.00    +0.000 HD
ENDBRANCH   4  13
ENDBRANCH   1   8
BRANCH   1  17
ATOM     17  C   UNL     1      45.345   5.305  11.910  0.00  0.00    +0.000 A 
ATOM     18  C   UNL     1      46.071   6.370  11.358  0.00  0.00    +0.000 A 
ATOM     19  C   UNL     1      47.136   6.950  12.051  0.00  0.00    +0.000 A 
ATOM     20  C   UNL     1      47.520   6.453  13.298  0.00  0.00    +0.000 A 
ATOM     21  C   UNL     1      46.883   5.333  13.838  0.00  0.00    +0.000 A 
ATOM     22  C   UNL     1      45.827   4.754  13.113  0.00  0.00    +0.000 A 
BRANCH  21  23
ATOM     23  C   UNL     1      47.235   4.827  15.227  0.00  0.00    +0.000 C 
ATOM     24  C   UNL     1      48.344   5.663  15.883  0.00  0.00    +0.000 C 
ATOM     25  C   UNL     1      48.807   5.033  17.190  0.00  0.00    +0.000 C 
ATOM     26  O   UNL     1      49.204   3.677  16.988  0.00  0.00    +0.000 OA
ATOM     27  C   UNL     1      48.120   2.864  16.546  0.00  0.00    +0.000 C 
ATOM     28  C   UNL     1      47.622   3.336  15.190  0.00  0.00    +0.000 C 
ENDBRANCH  21  23
ENDBRANCH   1  17
TORSDOF 4
ENDMDL
MODEL 2
REMARK VINA RESULT:    -7.950      2.464      7.446
REMARK INTER + INTRA:         -10.366
REMARK INTER:                 -10.026
REMARK INTRA:                  -0.341
REMARK UNBOUND:                -0.558
REMARK  Name = 
REMARK  4 active torsions:
REMARK  status: ('A' for Active; 'I' for Inactive)
REMARK    1  A    between atoms: C_2  and  C_4
REMARK    2  A    between atoms: N_8  and  C_9
REMARK    3  A    between atoms: C_9  and  C_10
REMARK    4  A    between atoms: C_14  and  C_15
REMARK                            x       y       z     vdW  Elec       q    Type
REMARK                         _______ _______ _______ _____ _____    ______ ____
ROOT
ATOM      1  C   UNL     1      44.535   3.510  12.221  0.00  0.00    +0.000 C 
ATOM      2  C   UNL     1      43.452   3.956  13.187  0.00  0.00    +0.000 C 
ATOM      3  C   UNL     1      43.221   2.757  12.339  0.00  0.00    +0.000 C 
ENDROOT
BRANCH   1   8
ATOM      4  C   UNL     1      48.155   5.679  15.308  0.00  0.00    +0.000 A 
ATOM      5  C   UNL     1      47.541   6.251  14.193  0.00  0.00    +0.000 A 
ATOM      6  C   UNL     1      46.672   5.482  13.420  0.00  0.00    +0.000 A 
ATOM      7  C   UNL     1      46.464   4.155  13.766  0.00  0.00    +0.000 A 
ATOM      8  N   UNL     1      45.783   3.250  12.959  0.00  0.00    +0.000 N 
ATOM      9  N   UNL     1      47.044   3.593  14.850  0.00  0.00    +0.000 NA
ATOM     10  C   UNL     1      47.878   4.359  15.594  0.00  0.00    +0.000 A 
ATOM     11  H   UNL     1      45.766   2.396  13.520  0.00  0.00    +0.000 HD
BRANCH   4  13
ATOM     12  N   UNL     1      48.584   7.249  17.103  0.00  0.00    +0.000 N 
ATOM     13  C   UNL     1      49.108   6.405  16.151  0.00  0.00    +0.000 C 
ATOM     14  O   UNL     1      50.321   6.241  16.053  0.00  0.00    +0.000 OA
ATOM     15  H   UNL     1      49.260   7.666  17.739  0.00  0.00    +0.000 HD
ATOM     16  H   UNL     1      47.623   7.223  17.368  0.00  0.00    +0.000 HD
ENDBRANCH   4  13
ENDBRANCH   1   8
BRANCH   1  17
ATOM     17  C   UNL     1      44.820   4.148  10.866  0.00  0.00    +0.000 A 
ATOM     18  C   UNL     1      45.173   5.500  10.751  0.00  0.00    +0.000 A 
ATOM     19  C   UNL     1      45.817   5.979   9.607  0.00  0.00    +0.000 A 
ATOM     20  C   UNL     1      46.090   5.122   8.540  0.00  0.00    +0.000 A 
ATOM     21  C   UNL     1      45.669   3.791   8.579  0.00  0.00    +0.000 A 
ATOM     22  C   UNL     1      45.005   3.336   9.730  0.00  0.00    +0.000 A 
BRANCH  21  23
ATOM     23  C   UNL     1      46.027   2.825   7.460  0.00  0.00    +0.000 C 
ATOM     24  C   UNL     1      46.565   1.491   7.999  0.00  0.00    +0.000 C 
ATOM     25  C   UNL     1      47.085   0.613   6.868  0.00  0.00    +0.000 C 
ATOM     26  O   UNL     1      48.057   1.310   6.089  0.00  0.00    +0.000 OA
ATOM     27  C   UNL     1      47.503   2.455   5.446  0.00  0.00    +0.000 C 
ATOM     28  C   UNL     1      47.027   3.464   6.478  0.00  0.00    +0.000 C 
ENDBRANCH  21  23
ENDBRANCH   1  17
TORSDOF 4
ENDMDL
MODEL 3
REMARK VINA RESULT:    -7.386      2.832      7.625
REMARK INTER + INTRA:          -9.671
REMARK INTER:                  -8.959
REMARK INTRA:                  -0.712
REMARK UNBOUND:                -0.558
REMARK  Name = 
REMARK  4 active torsions:
REMARK  status: ('A' for Active; 'I' for Inactive)
REMARK    1  A    between atoms: C_2  and  C_4
REMARK    2  A    between atoms: N_8  and  C_9
REMARK    3  A    between atoms: C_9  and  C_10
REMARK    4  A    between atoms: C_14  and  C_15
REMARK                            x       y       z     vdW  Elec       q    Type
REMARK                         _______ _______ _______ _____ _____    ______ ____
ROOT
ATOM      1  C   UNL     1      46.738   6.898  12.692  0.00  0.00    +0.000 C 
ATOM      2  C   UNL     1      48.047   7.012  11.930  0.00  0.00    +0.000 C 
ATOM      3  C   UNL     1      46.991   8.037  11.718  0.00  0.00    +0.000 C 
ENDROOT
BRANCH   1   8
ATOM      4  C   UNL     1      48.428   3.934  16.654  0.00  0.00    +0.000 A 
ATOM      5  C   UNL     1      47.593   3.547  15.605  0.00  0.00    +0.000 A 
ATOM      6  C   UNL     1      47.155   4.505  14.690  0.00  0.00    +0.000 A 
ATOM      7  C   UNL     1      47.540   5.825  14.866  0.00  0.00    +0.000 A 
ATOM      8  N   UNL     1      47.005   6.884  14.140  0.00  0.00    +0.000 N 
ATOM      9  N   UNL     1      48.357   6.210  15.872  0.00  0.00    +0.000 NA
ATOM     10  C   UNL     1      48.780   5.264  16.746  0.00  0.00    +0.000 A 
ATOM     11  H   UNL     1      47.531   7.693  14.475  0.00  0.00    +0.000 HD
BRANCH   4  13
ATOM     12  N   UNL     1      48.300   3.070  18.914  0.00  0.00    +0.000 N 
ATOM     13  C   UNL     1      48.902   3.000  17.678  0.00  0.00    +0.000 C 
ATOM     14  O   UNL     1      49.763   2.157  17.443  0.00  0.00    +0.000 OA
ATOM     15  H   UNL     1      48.576   2.349  19.577  0.00  0.00    +0.000 HD
ATOM     16  H   UNL     1      47.448   3.566  19.065  0.00  0.00    +0.000 HD
ENDBRANCH   4  13
ENDBRANCH   1   8
BRANCH   1  17
ATOM     17  C   UNL     1      45.594   5.956  12.334  0.00  0.00    +0.000 A 
ATOM     18  C   UNL     1      44.308   6.128  12.865  0.00  0.00    +0.000 A 
ATOM     19  C   UNL     1      43.193   5.550  12.252  0.00  0.00    +0.000 A 
ATOM     20  C   UNL     1      43.347   4.760  11.111  0.00  0.00    +0.000 A 
ATOM     21  C   UNL     1      44.621   4.489  10.607  0.00  0.00    +0.000 A 
ATOM     22  C   UNL     1      45.728   5.063  11.253  0.00  0.00    +0.000 A 
BRANCH  21  23
ATOM     23  C   UNL     1      44.801   3.696   9.323  0.00  0.00    +0.000 C 
ATOM     24  C   UNL     1      45.217   2.243   9.594  0.00  0.00    +0.000 C 
ATOM     25  C   UNL     1      45.567   1.521   8.298  0.00  0.00    +0.000 C 
ATOM     26  O   UNL     1      46.564   2.238   7.570  0.00  0.00    +0.000 OA
ATOM     27  C   UNL     1      46.105   3.526   7.167  0.00  0.00    +0.000 C 
ATOM     28  C   UNL     1      45.807   4.388   8.383  0.00  0.00    +0.000 C 
ENDBRANCH  21  23
ENDBRANCH   1  17
TORSDOF 4
ENDMDL
MODEL 4
REMARK VINA RESULT:    -7.295      2.860      3.654
REMARK INTER + INTRA:          -9.558
REMARK INTER:                  -9.261
REMARK INTRA:                  -0.298
REMARK UNBOUND:                -0.558
REMARK  Name = 
REMARK  4 active torsions:
REMARK  status: ('A' for Active; 'I' for Inactive)
REMARK    1  A    between atoms: C_2  and  C_4
REMARK    2  A    between atoms: N_8  and  C_9
REMARK    3  A    between atoms: C_9  and  C_10
REMARK    4  A    between atoms: C_14  and  C_15
REMARK                            x       y       z     vdW  Elec       q    Type
REMARK                         _______ _______ _______ _____ _____    ______ ____
ROOT
ATOM      1  C   UNL     1      44.091   4.294  11.796  0.00  0.00    +0.000 C 
ATOM      2  C   UNL     1      44.778   3.551  12.928  0.00  0.00    +0.000 C 
ATOM      3  C   UNL     1      43.401   4.074  13.132  0.00  0.00    +0.000 C 
ENDROOT
BRANCH   1   8
ATOM      4  C   UNL     1      46.533   3.031   7.348  0.00  0.00    +0.000 A 
ATOM      5  C   UNL     1      46.372   4.306   7.892  0.00  0.00    +0.000 A 
ATOM      6  C   UNL     1      45.594   4.468   9.039  0.00  0.00    +0.000 A 
ATOM      7  C   UNL     1      44.976   3.357   9.591  0.00  0.00    +0.000 A 
ATOM      8  N   UNL     1      44.025   3.432  10.603  0.00  0.00    +0.000 N 
ATOM      9  N   UNL     1      45.132   2.115   9.079  0.00  0.00    +0.000 NA
ATOM     10  C   UNL     1      45.900   1.976   7.971  0.00  0.00    +0.000 A 
ATOM     11  H   UNL     1      43.816   2.453  10.807  0.00  0.00    +0.000 HD
BRANCH   4  13
ATOM     12  N   UNL     1      48.631   2.457   6.281  0.00  0.00    +0.000 N 
ATOM     13  C   UNL     1      47.301   2.780   6.127  0.00  0.00    +0.000 C 
ATOM     14  O   UNL     1      46.784   2.805   5.014  0.00  0.00    +0.000 OA
ATOM     15  H   UNL     1      49.119   2.192   5.429  0.00  0.00    +0.000 HD
ATOM     16  H   UNL     1      49.018   2.194   7.162  0.00  0.00    +0.000 HD
ENDBRANCH   4  13
ENDBRANCH   1   8
BRANCH   1  17
ATOM     17  C   UNL     1      44.354   5.746  11.412  0.00  0.00    +0.000 A 
ATOM     18  C   UNL     1      43.314   6.605  11.033  0.00  0.00    +0.000 A 
ATOM     19  C   UNL     1      43.474   7.992  11.078  0.00  0.00    +0.000 A 
ATOM     20  C   UNL     1      44.692   8.548  11.473  0.00  0.00    +0.000 A 
ATOM     21  C   UNL     1      45.782   7.725  11.767  0.00  0.00    +0.000 A 
ATOM     22  C   UNL     1      45.602   6.333  11.694  0.00  0.00    +0.000 A 
BRANCH  21  23
ATOM     23  C   UNL     1      47.090   8.310  12.273  0.00  0.00    +0.000 C 
ATOM     24  C   UNL     1      47.176   9.825  12.035  0.00  0.00    +0.000 C 
ATOM     25  C   UNL     1      48.561  10.357  12.380  0.00  0.00    +0.000 C 
ATOM     26  O   UNL     1      49.572   9.643  11.670  0.00  0.00    +0.000 OA
ATOM     27  C   UNL     1      49.602   8.264  12.030  0.00  0.00    +0.000 C 
ATOM     28  C   UNL     1      48.298   7.587  11.647  0.00  0.00    +0.000 C 
ENDBRANCH  21  23
ENDBRANCH   1  17
TORSDOF 4
ENDMDL
MODEL 5
REMARK VINA RESULT:    -7.185      3.527      7.023
REMARK INTER + INTRA:          -9.423
REMARK INTER:                  -8.757
REMARK INTRA:                  -0.666
REMARK UNBOUND:                -0.558
REMARK  Name = 
REMARK  4 active torsions:
REMARK  status: ('A' for Active; 'I' for Inactive)
REMARK    1  A    between atoms: C_2  and  C_4
REMARK    2  A    between atoms: N_8  and  C_9
REMARK    3  A    between atoms: C_9  and  C_10
REMARK    4  A    between atoms: C_14  and  C_15
REMARK                            x       y       z     vdW  Elec       q    Type
REMARK                         _______ _______ _______ _____ _____    ______ ____
ROOT
ATOM      1  C   UNL     1      46.379   5.026  13.752  0.00  0.00    +0.000 C 
ATOM      2  C   UNL     1      46.605   4.241  15.033  0.00  0.00    +0.000 C 
ATOM      3  C   UNL     1      47.368   3.874  13.812  0.00  0.00    +0.000 C 
ENDROOT
BRANCH   1   8
ATOM      4  C   UNL     1      48.487   9.329  11.660  0.00  0.00    +0.000 A 
ATOM      5  C   UNL     1      48.984   8.026  11.596  0.00  0.00    +0.000 A 
ATOM      6  C   UNL     1      48.343   7.013  12.309  0.00  0.00    +0.000 A 
ATOM      7  C   UNL     1      47.242   7.336  13.087  0.00  0.00    +0.000 A 
ATOM      8  N   UNL     1      46.654   6.453  13.988  0.00  0.00    +0.000 N 
ATOM      9  N   UNL     1      46.745   8.591  13.149  0.00  0.00    +0.000 NA
ATOM     10  C   UNL     1      47.375   9.560  12.442  0.00  0.00    +0.000 A 
ATOM     11  H   UNL     1      45.856   6.978  14.350  0.00  0.00    +0.000 HD
BRANCH   4  13
ATOM     12  N   UNL     1      50.497  10.481  10.953  0.00  0.00    +0.000 N 
ATOM     13  C   UNL     1      49.121  10.456  10.973  0.00  0.00    +0.000 C 
ATOM     14  O   UNL     1      48.467  11.321  10.398  0.00  0.00    +0.000 OA
ATOM     15  H   UNL     1      50.914  11.218  10.388  0.00  0.00    +0.000 HD
ATOM     16  H   UNL     1      51.049   9.686  11.193  0.00  0.00    +0.000 HD
ENDBRANCH   4  13
ENDBRANCH   1   8
BRANCH   1  17
ATOM     17  C   UNL     1      45.196   4.841  12.808  0.00  0.00    +0.000 A 
ATOM     18  C   UNL     1      44.034   5.617  12.926  0.00  0.00    +0.000 A 
ATOM     19  C   UNL     1      43.144   5.746  11.857  0.00  0.00    +0.000 A 
ATOM     20  C   UNL     1      43.381   5.074  10.657  0.00  0.00    +0.000 A 
ATOM     21  C   UNL     1      44.478   4.217  10.533  0.00  0.00    +0.000 A 
ATOM     22  C   UNL     1      45.348   4.087  11.629  0.00  0.00    +0.000 A 
BRANCH  21  23
ATOM     23  C   UNL     1      44.794   3.538   9.210  0.00  0.00    +0.000 C 
ATOM     24  C   UNL     1      45.314   2.106   9.405  0.00  0.00    +0.000 C 
ATOM     25  C   UNL     1      45.794   1.513   8.087  0.00  0.00    +0.000 C 
ATOM     26  O   UNL     1      46.766   2.358   7.472  0.00  0.00    +0.000 OA
ATOM     27  C   UNL     1      46.225   3.633   7.132  0.00  0.00    +0.000 C 
ATOM     28  C   UNL     1      45.789   4.375   8.384  0.00  0.00    +0.000 C 
ENDBRANCH  21  23
ENDBRANCH   1  17
TORSDOF 4
ENDMDL
MODEL 6
REMARK VINA RESULT:    -7.140      2.823      4.514
REMARK INTER + INTRA:          -9.368
REMARK INTER:                  -8.709
REMARK INTRA:                  -0.658
REMARK UNBOUND:                -0.558
REMARK  Name = 
REMARK  4 active torsions:
REMARK  status: ('A' for Active; 'I' for Inactive)
REMARK    1  A    between atoms: C_2  and  C_4
REMARK    2  A    between atoms: N_8  and  C_9
REMARK    3  A    between atoms: C_9  and  C_10
REMARK    4  A    between atoms: C_14  and  C_15
REMARK                            x       y       z     vdW  Elec       q    Type
REMARK                         _______ _______ _______ _____ _____    ______ ____
ROOT
ATOM      1  C   UNL     1      47.348   8.237  13.161  0.00  0.00    +0.000 C 
ATOM      2  C   UNL     1      47.196   9.495  12.324  0.00  0.00    +0.000 C 
ATOM      3  C   UNL     1      48.168   8.453  11.900  0.00  0.00    +0.000 C 
ENDROOT
BRANCH   1   8
ATOM      4  C   UNL     1      44.586   4.097  11.557  0.00  0.00    +0.000 A 
ATOM      5  C   UNL     1      45.436   4.895  10.790  0.00  0.00    +0.000 A 
ATOM      6  C   UNL     1      46.010   6.030  11.363  0.00  0.00    +0.000 A 
ATOM      7  C   UNL     1      45.696   6.351  12.675  0.00  0.00    +0.000 A 
ATOM      8  N   UNL     1      46.048   7.555  13.275  0.00  0.00    +0.000 N 
ATOM      9  N   UNL     1      44.883   5.580  13.431  0.00  0.00    +0.000 NA
ATOM     10  C   UNL     1      44.342   4.476  12.861  0.00  0.00    +0.000 A 
ATOM     11  H   UNL     1      45.716   7.449  14.236  0.00  0.00    +0.000 HD
BRANCH   4  13
ATOM     12  N   UNL     1      44.477   2.318   9.917  0.00  0.00    +0.000 N 
ATOM     13  C   UNL     1      43.913   2.911  11.023  0.00  0.00    +0.000 C 
ATOM     14  O   UNL     1      42.918   2.430  11.558  0.00  0.00    +0.000 OA
ATOM     15  H   UNL     1      44.050   1.443   9.623  0.00  0.00    +0.000 HD
ATOM     16  H   UNL     1      45.401   2.533   9.609  0.00  0.00    +0.000 HD
ENDBRANCH   4  13
ENDBRANCH   1   8
BRANCH   1  17
ATOM     17  C   UNL     1      48.139   8.138  14.461  0.00  0.00    +0.000 A 
ATOM     18  C   UNL     1      48.396   9.267  15.251  0.00  0.00    +0.000 A 
ATOM     19  C   UNL     1      48.744   9.138  16.598  0.00  0.00    +0.000 A 
ATOM     20  C   UNL     1      48.873   7.874  17.175  0.00  0.00    +0.000 A 
ATOM     21  C   UNL     1      48.717   6.724  16.396  0.00  0.00    +0.000 A 
ATOM     22  C   UNL     1      48.388   6.879  15.040  0.00  0.00    +0.000 A 
BRANCH  21  23
ATOM     23  C   UNL     1      48.777   5.341  17.025  0.00  0.00    +0.000 C 
ATOM     24  C   UNL     1      50.217   4.823  17.145  0.00  0.00    +0.000 C 
ATOM     25  C   UNL     1      50.242   3.371  17.605  0.00  0.00    +0.000 C 
ATOM     26  O   UNL     1      49.447   2.552  16.748  0.00  0.00    +0.000 OA
ATOM     27  C   UNL     1      48.072   2.929  16.776  0.00  0.00    +0.000 C 
ATOM     28  C   UNL     1      47.899   4.342  16.246  0.00  0.00    +0.000 C 
ENDBRANCH  21  23
ENDBRANCH   1  17
TORSDOF 4
ENDMDL
MODEL 7
REMARK VINA RESULT:    -6.696      3.594      8.331
REMARK INTER + INTRA:          -8.820
REMARK INTER:                  -8.018
REMARK INTRA:                  -0.802
REMARK UNBOUND:                -0.558
REMARK  Name = 
REMARK  4 active torsions:
REMARK  status: ('A' for Active; 'I' for Inactive)
REMARK    1  A    between atoms: C_2  and  C_4
REMARK    2  A    between atoms: N_8  and  C_9
REMARK    3  A    between atoms: C_9  and  C_10
REMARK    4  A    between atoms: C_14  and  C_15
REMARK                            x       y       z     vdW  Elec       q    Type
REMARK                         _______ _______ _______ _____ _____    ______ ____
ROOT
ATOM      1  C   UNL     1      48.894   7.773  12.489  0.00  0.00    +0.000 C 
ATOM      2  C   UNL     1      49.836   7.682  11.301  0.00  0.00    +0.000 C 
ATOM      3  C   UNL     1      49.509   9.016  11.868  0.00  0.00    +0.000 C 
ENDROOT
BRANCH   1   8
ATOM      4  C   UNL     1      48.662   7.062  17.664  0.00  0.00    +0.000 A 
ATOM      5  C   UNL     1      48.662   8.277  16.976  0.00  0.00    +0.000 A 
ATOM      6  C   UNL     1      48.840   8.280  15.592  0.00  0.00    +0.000 A 
ATOM      7  C   UNL     1      49.041   7.073  14.940  0.00  0.00    +0.000 A 
ATOM      8  N   UNL     1      49.426   6.976  13.607  0.00  0.00    +0.000 N 
ATOM      9  N   UNL     1      49.033   5.889  15.594  0.00  0.00    +0.000 NA
ATOM     10  C   UNL     1      48.849   5.906  16.937  0.00  0.00    +0.000 A 
ATOM     11  H   UNL     1      49.436   5.969  13.434  0.00  0.00    +0.000 HD
BRANCH   4  13
ATOM     12  N   UNL     1      47.478   6.211  19.599  0.00  0.00    +0.000 N 
ATOM     13  C   UNL     1      48.519   6.973  19.118  0.00  0.00    +0.000 C 
ATOM     14  O   UNL     1      49.313   7.510  19.886  0.00  0.00    +0.000 OA
ATOM     15  H   UNL     1      47.457   6.084  20.608  0.00  0.00    +0.000 HD
ATOM     16  H   UNL     1      46.970   5.577  19.020  0.00  0.00    +0.000 HD
ENDBRANCH   4  13
ENDBRANCH   1   8
BRANCH   1  17
ATOM     17  C   UNL     1      47.375   7.672  12.414  0.00  0.00    +0.000 A 
ATOM     18  C   UNL     1      46.552   8.779  12.664  0.00  0.00    +0.000 A 
ATOM     19  C   UNL     1      45.231   8.810  12.212  0.00  0.00    +0.000 A 
ATOM     20  C   UNL     1      44.694   7.718  11.528  0.00  0.00    +0.000 A 
ATOM     21  C   UNL     1      45.453   6.559  11.342  0.00  0.00    +0.000 A 
ATOM     22  C   UNL     1      46.772   6.544  11.824  0.00  0.00    +0.000 A 
BRANCH  21  23
ATOM     23  C   UNL     1      44.912   5.392  10.532  0.00  0.00    +0.000 C 
ATOM     24  C   UNL     1      44.806   4.108  11.369  0.00  0.00    +0.000 C 
ATOM     25  C   UNL     1      44.438   2.914  10.497  0.00  0.00    +0.000 C 
ATOM     26  O   UNL     1      45.354   2.775   9.412  0.00  0.00    +0.000 OA
ATOM     27  C   UNL     1      45.319   3.900   8.537  0.00  0.00    +0.000 C 
ATOM     28  C   UNL     1      45.762   5.155   9.269  0.00  0.00    +0.000 C 
ENDBRANCH  21  23
ENDBRANCH   1  17
TORSDOF 4
ENDMDL
MODEL 8
REMARK VINA RESULT:    -6.671      3.656      7.406
REMARK INTER + INTRA:          -8.789
REMARK INTER:                  -8.255
REMARK INTRA:                  -0.534
REMARK UNBOUND:                -0.558
REMARK  Name = 
REMARK  4 active torsions:
REMARK  status: ('A' for Active; 'I' for Inactive)
REMARK    1  A    between atoms: C_2  and  C_4
REMARK    2  A    between atoms: N_8  and  C_9
REMARK    3  A    between atoms: C_9  and  C_10
REMARK    4  A    between atoms: C_14  and  C_15
REMARK                            x       y       z     vdW  Elec       q    Type
REMARK                         _______ _______ _______ _____ _____    ______ ____
ROOT
ATOM      1  C   UNL     1      48.229   7.958  12.950  0.00  0.00    +0.000 C 
ATOM      2  C   UNL     1      49.245   7.171  12.141  0.00  0.00    +0.000 C 
ATOM      3  C   UNL     1      49.186   8.649  11.993  0.00  0.00    +0.000 C 
ENDROOT
BRANCH   1   8
ATOM      4  C   UNL     1      48.237   4.241  16.627  0.00  0.00    +0.000 A 
ATOM      5  C   UNL     1      47.338   4.382  15.568  0.00  0.00    +0.000 A 
ATOM      6  C   UNL     1      47.424   5.503  14.742  0.00  0.00    +0.000 A 
ATOM      7  C   UNL     1      48.386   6.463  15.015  0.00  0.00    +0.000 A 
ATOM      8  N   UNL     1      48.431   7.703  14.386  0.00  0.00    +0.000 N 
ATOM      9  N   UNL     1      49.269   6.332  16.030  0.00  0.00    +0.000 NA
ATOM     10  C   UNL     1      49.176   5.232  16.816  0.00  0.00    +0.000 A 
ATOM     11  H   UNL     1      49.272   8.136  14.773  0.00  0.00    +0.000 HD
BRANCH   4  13
ATOM     12  N   UNL     1      46.951   2.598  17.859  0.00  0.00    +0.000 N 
ATOM     13  C   UNL     1      48.192   3.115  17.562  0.00  0.00    +0.000 C 
ATOM     14  O   UNL     1      49.211   2.616  18.031  0.00  0.00    +0.000 OA
ATOM     15  H   UNL     1      46.952   1.758  18.432  0.00  0.00    +0.000 HD
ATOM     16  H   UNL     1      46.140   2.815  17.321  0.00  0.00    +0.000 HD
ENDBRANCH   4  13
ENDBRANCH   1   8
BRANCH   1  17
ATOM     17  C   UNL     1      46.746   8.081  12.615  0.00  0.00    +0.000 A 
ATOM     18  C   UNL     1      46.157   9.322  12.336  0.00  0.00    +0.000 A 
ATOM     19  C   UNL     1      44.944   9.403  11.648  0.00  0.00    +0.000 A 
ATOM     20  C   UNL     1      44.277   8.242  11.254  0.00  0.00    +0.000 A 
ATOM     21  C   UNL     1      44.786   6.986  11.597  0.00  0.00    +0.000 A 
ATOM     22  C   UNL     1      45.996   6.930  12.307  0.00  0.00    +0.000 A 
BRANCH  21  23
ATOM     23  C   UNL     1      44.115   5.712  11.110  0.00  0.00    +0.000 C 
ATOM     24  C   UNL     1      43.750   4.772  12.268  0.00  0.00    +0.000 C 
ATOM     25  C   UNL     1      43.249   3.430  11.748  0.00  0.00    +0.000 C 
ATOM     26  O   UNL     1      44.197   2.843  10.858  0.00  0.00    +0.000 OA
ATOM     27  C   UNL     1      44.401   3.641   9.695  0.00  0.00    +0.000 C 
ATOM     28  C   UNL     1      44.994   4.988  10.072  0.00  0.00    +0.000 C 
ENDBRANCH  21  23
ENDBRANCH   1  17
TORSDOF 4
ENDMDL
MODEL 9
REMARK VINA RESULT:    -6.595      4.921      8.789
REMARK INTER + INTRA:          -8.695
REMARK INTER:                  -8.116
REMARK INTRA:                  -0.579
REMARK UNBOUND:                -0.558
REMARK  Name = 
REMARK  4 active torsions:
REMARK  status: ('A' for Active; 'I' for Inactive)
REMARK    1  A    between atoms: C_2  and  C_4
REMARK    2  A    between atoms: N_8  and  C_9
REMARK    3  A    between atoms: C_9  and  C_10
REMARK    4  A    between atoms: C_14  and  C_15
REMARK                            x       y       z     vdW  Elec       q    Type
REMARK                         _______ _______ _______ _____ _____    ______ ____
ROOT
ATOM      1  C   UNL     1      48.164   3.246  17.142  0.00  0.00    +0.000 C 
ATOM      2  C   UNL     1      48.134   3.205  18.660  0.00  0.00    +0.000 C 
ATOM      3  C   UNL     1      46.954   2.721  17.896  0.00  0.00    +0.000 C 
ENDROOT
BRANCH   1   8
ATOM      4  C   UNL     1      53.140   1.968  18.114  0.00  0.00    +0.000 A 
ATOM      5  C   UNL     1      52.542   3.219  18.273  0.00  0.00    +0.000 A 
ATOM      6  C   UNL     1      51.222   3.404  17.859  0.00  0.00    +0.000 A 
ATOM      7  C   UNL     1      50.550   2.343  17.272  0.00  0.00    +0.000 A 
ATOM      8  N   UNL     1      49.314   2.470  16.646  0.00  0.00    +0.000 N 
ATOM      9  N   UNL     1      51.115   1.124  17.122  0.00  0.00    +0.000 NA
ATOM     10  C   UNL     1      52.394   0.961  17.539  0.00  0.00    +0.000 A 
ATOM     11  H   UNL     1      49.085   1.513  16.374  0.00  0.00    +0.000 HD
BRANCH   4  13
ATOM     12  N   UNL     1      54.740   0.905  19.591  0.00  0.00    +0.000 N 
ATOM     13  C   UNL     1      54.531   1.700  18.486  0.00  0.00    +0.000 C 
ATOM     14  O   UNL     1      55.476   2.119  17.824  0.00  0.00    +0.000 OA
ATOM     15  H   UNL     1      55.708   0.653  19.772  0.00  0.00    +0.000 HD
ATOM     16  H   UNL     1      54.012   0.359  20.000  0.00  0.00    +0.000 HD
ENDBRANCH   4  13
ENDBRANCH   1   8
BRANCH   1  17
ATOM     17  C   UNL     1      47.933   4.491  16.293  0.00  0.00    +0.000 A 
ATOM     18  C   UNL     1      48.712   5.646  16.455  0.00  0.00    +0.000 A 
ATOM     19  C   UNL     1      48.788   6.609  15.446  0.00  0.00    +0.000 A 
ATOM     20  C   UNL     1      48.058   6.454  14.266  0.00  0.00    +0.000 A 
ATOM     21  C   UNL     1      47.198   5.364  14.107  0.00  0.00    +0.000 A 
ATOM     22  C   UNL     1      47.122   4.419  15.144  0.00  0.00    +0.000 A 
BRANCH  21  23
ATOM     23  C   UNL     1      46.457   5.139  12.799  0.00  0.00    +0.000 C 
ATOM     24  C   UNL     1      45.461   6.268  12.497  0.00  0.00    +0.000 C 
ATOM     25  C   UNL     1      44.603   5.933  11.284  0.00  0.00    +0.000 C 
ATOM     26  O   UNL     1      43.953   4.674  11.452  0.00  0.00    +0.000 OA
ATOM     27  C   UNL     1      44.887   3.602  11.556  0.00  0.00    +0.000 C 
ATOM     28  C   UNL     1      45.751   3.769  12.794  0.00  0.00    +0.000 C 
ENDBRANCH  21  23
ENDBRANCH   1  17
TORSDOF 4
ENDMDL
