MODEL 1
REMARK VINA RESULT:    -8.090      0.000      0.000
REMARK INTER + INTRA:         -11.431
REMARK INTER:                 -10.691
REMARK INTRA:                  -0.740
REMARK UNBOUND:                -0.740
REMARK  Name = 
REMARK  7 active torsions:
REMARK  status: ('A' for Active; 'I' for Inactive)
REMARK    1  A    between atoms: C_1  and  C_2
REMARK    2  A    between atoms: C_2  and  C_3
REMARK    3  A    between atoms: C_2  and  C_18
REMARK    4  A    between atoms: C_3  and  N_4
REMARK    5  A    between atoms: C_10  and  N_11
REMARK    6  A    between atoms: N_11  and  O_12
REMARK    7  A    between atoms: N_11  and  C_13
REMARK                            x       y       z     vdW  Elec       q    Type
REMARK                         _______ _______ _______ _____ _____    ______ ____
ROOT
ATOM      1  N   UNL     1      44.103   4.864  12.360  0.00  0.00    +0.000 N 
ATOM      2  C   UNL     1      45.320   5.303  12.862  0.00  0.00    +0.000 A 
ATOM      3  N   UNL     1      45.973   6.319  12.285  0.00  0.00    +0.000 NA
ATOM      4  C   UNL     1      47.154   6.672  12.829  0.00  0.00    +0.000 A 
ATOM      5  C   UNL     1      47.712   6.029  13.903  0.00  0.00    +0.000 A 
ATOM      6  F   UNL     1      48.883   6.442  14.407  0.00  0.00    +0.000 F 
ATOM      7  C   UNL     1      46.996   4.967  14.422  0.00  0.00    +0.000 A 
ATOM      8  N   UNL     1      45.779   4.632  13.925  0.00  0.00    +0.000 NA
ATOM      9  H   UNL     1      43.994   3.910  12.693  0.00  0.00    +0.000 HD
ENDROOT
BRANCH   1  10
ATOM     10  C   UNL     1      43.922   5.046  10.925  0.00  0.00    +0.000 C 
BRANCH  10  12
ATOM     11  C   UNL     1      43.556   2.541  11.190  0.00  0.00    +0.000 C 
ATOM     12  C   UNL     1      43.758   3.693  10.195  0.00  0.00    +0.000 C 
BRANCH  12  13
ATOM     13  C   UNL     1      44.861   3.439   9.182  0.00  0.00    +0.000 A 
ATOM     14  C   UNL     1      45.513   4.465   8.498  0.00  0.00    +0.000 A 
ATOM     15  N   UNL     1      46.500   4.274   7.592  0.00  0.00    +0.000 NA
ATOM     16  C   UNL     1      46.865   2.993   7.350  0.00  0.00    +0.000 A 
ATOM     17  C   UNL     1      46.277   1.900   7.963  0.00  0.00    +0.000 A 
ATOM     18 CL   UNL     1      46.787   0.303   7.600  0.00  0.00    +0.000 Cl
ATOM     19  C   UNL     1      45.258   2.126   8.886  0.00  0.00    +0.000 A 
ENDBRANCH  12  13
ENDBRANCH  10  12
ENDBRANCH   1  10
BRANCH   7  20
ATOM     20  N   UNL     1      47.471   4.159  15.480  0.00  0.00    +0.000 N 
BRANCH  20  21
ATOM     21  C   UNL     1      47.365   4.373  16.899  0.00  0.00    +0.000 C 
ATOM     22  C   UNL     1      48.689   4.617  17.642  0.00  0.00    +0.000 C 
ATOM     23  O   UNL     1      48.475   3.482  18.511  0.00  0.00    +0.000 OA
ATOM     24  C   UNL     1      47.361   3.051  17.691  0.00  0.00    +0.000 C 
ENDBRANCH  20  21
BRANCH  20  25
ATOM     25  O   UNL     1      47.858   2.843  15.170  0.00  0.00    +0.000 OA
ATOM     26  H   UNL     1      47.100   2.312  15.496  0.00  0.00    +0.000 HD
ENDBRANCH  20  25
ENDBRANCH   7  20
TORSDOF 6
ENDMDL
MODEL 2
REMARK VINA RESULT:    -7.728      4.591      7.534
REMARK INTER + INTRA:         -10.953
REMARK INTER:                 -10.445
REMARK INTRA:                  -0.508
REMARK UNBOUND:                -0.740
REMARK  Name = 
REMARK  7 active torsions:
REMARK  status: ('A' for Active; 'I' for Inactive)
REMARK    1  A    between atoms: C_1  and  C_2
REMARK    2  A    between atoms: C_2  and  C_3
REMARK    3  A    between atoms: C_2  and  C_18
REMARK    4  A    between atoms: C_3  and  N_4
REMARK    5  A    between atoms: C_10  and  N_11
REMARK    6  A    between atoms: N_11  and  O_12
REMARK    7  A    between atoms: N_11  and  C_13
REMARK                            x       y       z     vdW  Elec       q    Type
REMARK                         _______ _______ _______ _____ _____    ______ ____
ROOT
ATOM      1  N   UNL     1      44.709   6.474  10.746  0.00  0.00    +0.000 N 
ATOM      2  C   UNL     1      44.713   5.161  10.301  0.00  0.00    +0.000 A 
ATOM      3  N   UNL     1      44.040   4.210  10.961  0.00  0.00    +0.000 NA
ATOM      4  C   UNL     1      44.109   2.959  10.466  0.00  0.00    +0.000 A 
ATOM      5  C   UNL     1      44.844   2.624   9.360  0.00  0.00    +0.000 A 
ATOM      6  F   UNL     1      44.855   1.362   8.909  0.00  0.00    +0.000 F 
ATOM      7  C   UNL     1      45.540   3.652   8.752  0.00  0.00    +0.000 A 
ATOM      8  N   UNL     1      45.439   4.929   9.201  0.00  0.00    +0.000 NA
ATOM      9  H   UNL     1      45.537   6.906  10.343  0.00  0.00    +0.000 HD
ENDROOT
BRANCH   1  10
ATOM     10  C   UNL     1      44.561   6.639  12.187  0.00  0.00    +0.000 C 
BRANCH  10  12
ATOM     11  C   UNL     1      44.917   9.156  12.047  0.00  0.00    +0.000 C 
ATOM     12  C   UNL     1      45.373   7.848  12.710  0.00  0.00    +0.000 C 
BRANCH  12  13
ATOM     13  C   UNL     1      46.872   7.617  12.640  0.00  0.00    +0.000 A 
ATOM     14  C   UNL     1      47.486   6.467  13.135  0.00  0.00    +0.000 A 
ATOM     15  N   UNL     1      48.818   6.229  13.086  0.00  0.00    +0.000 NA
ATOM     16  C   UNL     1      49.587   7.185  12.513  0.00  0.00    +0.000 A 
ATOM     17  C   UNL     1      49.083   8.368  12.002  0.00  0.00    +0.000 A 
ATOM     18 CL   UNL     1      50.121   9.538  11.295  0.00  0.00    +0.000 Cl
ATOM     19  C   UNL     1      47.710   8.589  12.071  0.00  0.00    +0.000 A 
ENDBRANCH  12  13
ENDBRANCH  10  12
ENDBRANCH   1  10
BRANCH   7  20
ATOM     20  N   UNL     1      46.400   3.455   7.647  0.00  0.00    +0.000 N 
BRANCH  20  21
ATOM     21  C   UNL     1      46.503   2.317   6.773  0.00  0.00    +0.000 C 
ATOM     22  C   UNL     1      47.616   1.310   7.110  0.00  0.00    +0.000 C 
ATOM     23  O   UNL     1      48.232   1.473   5.813  0.00  0.00    +0.000 OA
ATOM     24  C   UNL     1      47.375   2.607   5.536  0.00  0.00    +0.000 C 
ENDBRANCH  20  21
BRANCH  20  25
ATOM     25  O   UNL     1      47.060   4.583   7.128  0.00  0.00    +0.000 OA
ATOM     26  H   UNL     1      46.394   4.961   6.515  0.00  0.00    +0.000 HD
ENDBRANCH  20  25
ENDBRANCH   7  20
TORSDOF 6
ENDMDL
MODEL 3
REMARK VINA RESULT:    -7.655      4.304      7.639
REMARK INTER + INTRA:         -10.857
REMARK INTER:                 -10.355
REMARK INTRA:                  -0.503
REMARK UNBOUND:                -0.740
REMARK  Name = 
REMARK  7 active torsions:
REMARK  status: ('A' for Active; 'I' for Inactive)
REMARK    1  A    between atoms: C_1  and  C_2
REMARK    2  A    between atoms: C_2  and  C_3
REMARK    3  A    between atoms: C_2  and  C_18
REMARK    4  A    between atoms: C_3  and  N_4
REMARK    5  A    between atoms: C_10  and  N_11
REMARK    6  A    between atoms: N_11  and  O_12
REMARK    7  A    between atoms: N_11  and  C_13
REMARK                            x       y       z     vdW  Elec       q    Type
REMARK                         _______ _______ _______ _____ _____    ______ ____
ROOT
ATOM      1  N   UNL     1      45.216   6.482  10.908  0.00  0.00    +0.000 N 
ATOM      2  C   UNL     1      45.014   5.212  10.387  0.00  0.00    +0.000 A 
ATOM      3  N   UNL     1      44.246   4.322  11.027  0.00  0.00    +0.000 NA
ATOM      4  C   UNL     1      44.114   3.108  10.457  0.00  0.00    +0.000 A 
ATOM      5  C   UNL     1      44.743   2.749   9.294  0.00  0.00    +0.000 A 
ATOM      6  F   UNL     1      44.555   1.529   8.771  0.00  0.00    +0.000 F 
ATOM      7  C   UNL     1      45.548   3.708   8.710  0.00  0.00    +0.000 A 
ATOM      8  N   UNL     1      45.649   4.955   9.237  0.00  0.00    +0.000 NA
ATOM      9  H   UNL     1      46.076   6.821  10.486  0.00  0.00    +0.000 HD
ENDROOT
BRANCH   1  10
ATOM     10  C   UNL     1      45.160   6.571  12.362  0.00  0.00    +0.000 C 
BRANCH  10  12
ATOM     11  C   UNL     1      47.605   7.106  11.900  0.00  0.00    +0.000 C 
ATOM     12  C   UNL     1      46.567   6.760  12.977  0.00  0.00    +0.000 C 
BRANCH  12  13
ATOM     13  C   UNL     1      46.973   5.601  13.869  0.00  0.00    +0.000 A 
ATOM     14  C   UNL     1      46.777   4.266  13.514  0.00  0.00    +0.000 A 
ATOM     15  N   UNL     1      47.129   3.210  14.284  0.00  0.00    +0.000 NA
ATOM     16  C   UNL     1      47.713   3.491  15.473  0.00  0.00    +0.000 A 
ATOM     17  C   UNL     1      47.944   4.778  15.928  0.00  0.00    +0.000 A 
ATOM     18 CL   UNL     1      48.683   5.057  17.451  0.00  0.00    +0.000 Cl
ATOM     19  C   UNL     1      47.564   5.845  15.118  0.00  0.00    +0.000 A 
ENDBRANCH  12  13
ENDBRANCH  10  12
ENDBRANCH   1  10
BRANCH   7  20
ATOM     20  N   UNL     1      46.319   3.467   7.550  0.00  0.00    +0.000 N 
BRANCH  20  21
ATOM     21  C   UNL     1      46.461   2.251   6.795  0.00  0.00    +0.000 C 
ATOM     22  C   UNL     1      47.676   1.378   7.149  0.00  0.00    +0.000 C 
ATOM     23  O   UNL     1      48.188   1.445   5.799  0.00  0.00    +0.000 OA
ATOM     24  C   UNL     1      47.219   2.471   5.470  0.00  0.00    +0.000 C 
ENDBRANCH  20  21
BRANCH  20  25
ATOM     25  O   UNL     1      46.807   4.586   6.851  0.00  0.00    +0.000 OA
ATOM     26  H   UNL     1      47.320   4.178   6.120  0.00  0.00    +0.000 HD
ENDBRANCH  20  25
ENDBRANCH   7  20
TORSDOF 6
ENDMDL
MODEL 4
REMARK VINA RESULT:    -7.270      3.906      7.766
REMARK INTER + INTRA:         -10.348
REMARK INTER:                  -9.918
REMARK INTRA:                  -0.430
REMARK UNBOUND:                -0.740
REMARK  Name = 
REMARK  7 active torsions:
REMARK  status: ('A' for Active; 'I' for Inactive)
REMARK    1  A    between atoms: C_1  and  C_2
REMARK    2  A    between atoms: C_2  and  C_3
REMARK    3  A    between atoms: C_2  and  C_18
REMARK    4  A    between atoms: C_3  and  N_4
REMARK    5  A    between atoms: C_10  and  N_11
REMARK    6  A    between atoms: N_11  and  O_12
REMARK    7  A    between atoms: N_11  and  C_13
REMARK                            x       y       z     vdW  Elec       q    Type
REMARK                         _______ _______ _______ _____ _____    ______ ____
ROOT
ATOM      1  N   UNL     1      47.101   3.513  15.085  0.00  0.00    +0.000 N 
ATOM      2  C   UNL     1      46.709   4.449  14.139  0.00  0.00    +0.000 A 
ATOM      3  N   UNL     1      47.553   5.402  13.726  0.00  0.00    +0.000 NA
ATOM      4  C   UNL     1      47.085   6.277  12.814  0.00  0.00    +0.000 A 
ATOM      5  C   UNL     1      45.805   6.249  12.328  0.00  0.00    +0.000 A 
ATOM      6  F   UNL     1      45.408   7.139  11.408  0.00  0.00    +0.000 F 
ATOM      7  C   UNL     1      44.981   5.258  12.827  0.00  0.00    +0.000 A 
ATOM      8  N   UNL     1      45.449   4.332  13.703  0.00  0.00    +0.000 NA
ATOM      9  H   UNL     1      46.242   3.159  15.497  0.00  0.00    +0.000 HD
ENDROOT
BRANCH   1  10
ATOM     10  C   UNL     1      48.102   3.978  16.037  0.00  0.00    +0.000 C 
BRANCH  10  12
ATOM     11  C   UNL     1      47.621   2.745  18.212  0.00  0.00    +0.000 C 
ATOM     12  C   UNL     1      48.550   2.847  16.993  0.00  0.00    +0.000 C 
BRANCH  12  13
ATOM     13  C   UNL     1      50.022   2.935  17.351  0.00  0.00    +0.000 A 
ATOM     14  C   UNL     1      50.646   4.130  17.709  0.00  0.00    +0.000 A 
ATOM     15  N   UNL     1      51.954   4.242  18.036  0.00  0.00    +0.000 NA
ATOM     16  C   UNL     1      52.689   3.105  18.010  0.00  0.00    +0.000 A 
ATOM     17  C   UNL     1      52.174   1.869  17.659  0.00  0.00    +0.000 A 
ATOM     18 CL   UNL     1      53.169   0.471  17.641  0.00  0.00    +0.000 Cl
ATOM     19  C   UNL     1      50.826   1.784  17.320  0.00  0.00    +0.000 A 
ENDBRANCH  12  13
ENDBRANCH  10  12
ENDBRANCH   1  10
BRANCH   7  20
ATOM     20  N   UNL     1      43.616   5.140  12.481  0.00  0.00    +0.000 N 
BRANCH  20  21
ATOM     21  C   UNL     1      43.006   4.312  11.474  0.00  0.00    +0.000 C 
ATOM     22  C   UNL     1      43.299   2.806  11.576  0.00  0.00    +0.000 C 
ATOM     23  O   UNL     1      43.874   2.772  10.250  0.00  0.00    +0.000 OA
ATOM     24  C   UNL     1      43.863   4.219  10.196  0.00  0.00    +0.000 C 
ENDBRANCH  20  21
BRANCH  20  25
ATOM     25  O   UNL     1      42.670   5.666  13.379  0.00  0.00    +0.000 OA
ATOM     26  H   UNL     1      42.793   5.107  14.175  0.00  0.00    +0.000 HD
ENDBRANCH  20  25
ENDBRANCH   7  20
TORSDOF 6
ENDMDL
MODEL 5
REMARK VINA RESULT:    -7.238      3.298      3.753
REMARK INTER + INTRA:         -10.305
REMARK INTER:                  -9.625
REMARK INTRA:                  -0.680
REMARK UNBOUND:                -0.740
REMARK  Name = 
REMARK  7 active torsions:
REMARK  status: ('A' for Active; 'I' for Inactive)
REMARK    1  A    between atoms: C_1  and  C_2
REMARK    2  A    between atoms: C_2  and  C_3
REMARK    3  A    between atoms: C_2  and  C_18
REMARK    4  A    between atoms: C_3  and  N_4
REMARK    5  A    between atoms: C_10  and  N_11
REMARK    6  A    between atoms: N_11  and  O_12
REMARK    7  A    between atoms: N_11  and  C_13
REMARK                            x       y       z     vdW  Elec       q    Type
REMARK                         _______ _______ _______ _____ _____    ______ ____
ROOT
ATOM      1  N   UNL     1      44.146   5.477  11.995  0.00  0.00    +0.000 N 
ATOM      2  C   UNL     1      44.622   6.780  12.036  0.00  0.00    +0.000 A 
ATOM      3  N   UNL     1      44.080   7.732  11.266  0.00  0.00    +0.000 NA
ATOM      4  C   UNL     1      44.612   8.967  11.359  0.00  0.00    +0.000 A 
ATOM      5  C   UNL     1      45.676   9.271  12.166  0.00  0.00    +0.000 A 
ATOM      6  F   UNL     1      46.146  10.525  12.224  0.00  0.00    +0.000 F 
ATOM      7  C   UNL     1      46.205   8.229  12.904  0.00  0.00    +0.000 A 
ATOM      8  N   UNL     1      45.648   6.992  12.868  0.00  0.00    +0.000 NA
ATOM      9  H   UNL     1      44.903   4.895  12.345  0.00  0.00    +0.000 HD
ENDROOT
BRANCH   1  10
ATOM     10  C   UNL     1      43.583   5.063  10.716  0.00  0.00    +0.000 C 
BRANCH  10  12
ATOM     11  C   UNL     1      44.167   2.802  11.729  0.00  0.00    +0.000 C 
ATOM     12  C   UNL     1      43.847   3.565  10.435  0.00  0.00    +0.000 C 
BRANCH  12  13
ATOM     13  C   UNL     1      44.866   3.350   9.330  0.00  0.00    +0.000 A 
ATOM     14  C   UNL     1      45.404   4.396   8.581  0.00  0.00    +0.000 A 
ATOM     15  N   UNL     1      46.314   4.239   7.592  0.00  0.00    +0.000 NA
ATOM     16  C   UNL     1      46.717   2.974   7.329  0.00  0.00    +0.000 A 
ATOM     17  C   UNL     1      46.240   1.863   8.003  0.00  0.00    +0.000 A 
ATOM     18 CL   UNL     1      46.793   0.287   7.610  0.00  0.00    +0.000 Cl
ATOM     19  C   UNL     1      45.298   2.053   9.011  0.00  0.00    +0.000 A 
ENDBRANCH  12  13
ENDBRANCH  10  12
ENDBRANCH   1  10
BRANCH   7  20
ATOM     20  N   UNL     1      47.346   8.366  13.726  0.00  0.00    +0.000 N 
BRANCH  20  21
ATOM     21  C   UNL     1      48.728   8.136  13.400  0.00  0.00    +0.000 C 
ATOM     22  C   UNL     1      49.233   8.800  12.108  0.00  0.00    +0.000 C 
ATOM     23  O   UNL     1      49.620   7.528  11.540  0.00  0.00    +0.000 OA
ATOM     24  C   UNL     1      48.933   6.830  12.607  0.00  0.00    +0.000 C 
ENDBRANCH  20  21
BRANCH  20  25
ATOM     25  O   UNL     1      47.197   9.072  14.933  0.00  0.00    +0.000 OA
ATOM     26  H   UNL     1      46.650   8.463  15.474  0.00  0.00    +0.000 HD
ENDBRANCH  20  25
ENDBRANCH   7  20
TORSDOF 6
ENDMDL
MODEL 6
REMARK VINA RESULT:    -6.838      4.756      7.923
REMARK INTER + INTRA:          -9.777
REMARK INTER:                  -9.401
REMARK INTRA:                  -0.376
REMARK UNBOUND:                -0.740
REMARK  Name = 
REMARK  7 active torsions:
REMARK  status: ('A' for Active; 'I' for Inactive)
REMARK    1  A    between atoms: C_1  and  C_2
REMARK    2  A    between atoms: C_2  and  C_3
REMARK    3  A    between atoms: C_2  and  C_18
REMARK    4  A    between atoms: C_3  and  N_4
REMARK    5  A    between atoms: C_10  and  N_11
REMARK    6  A    between atoms: N_11  and  O_12
REMARK    7  A    between atoms: N_11  and  C_13
REMARK                            x       y       z     vdW  Elec       q    Type
REMARK                         _______ _______ _______ _____ _____    ______ ____
ROOT
ATOM      1  N   UNL     1      45.220   6.369  10.848  0.00  0.00    +0.000 N 
ATOM      2  C   UNL     1      45.049   5.104  10.304  0.00  0.00    +0.000 A 
ATOM      3  N   UNL     1      44.310   4.181  10.931  0.00  0.00    +0.000 NA
ATOM      4  C   UNL     1      44.207   2.976  10.339  0.00  0.00    +0.000 A 
ATOM      5  C   UNL     1      44.837   2.656   9.165  0.00  0.00    +0.000 A 
ATOM      6  F   UNL     1      44.679   1.443   8.619  0.00  0.00    +0.000 F 
ATOM      7  C   UNL     1      45.611   3.649   8.594  0.00  0.00    +0.000 A 
ATOM      8  N   UNL     1      45.682   4.887   9.145  0.00  0.00    +0.000 NA
ATOM      9  H   UNL     1      46.067   6.740  10.427  0.00  0.00    +0.000 HD
ENDROOT
BRANCH   1  10
ATOM     10  C   UNL     1      45.172   6.428  12.304  0.00  0.00    +0.000 C 
BRANCH  10  12
ATOM     11  C   UNL     1      46.313   4.879  13.969  0.00  0.00    +0.000 C 
ATOM     12  C   UNL     1      46.516   5.997  12.937  0.00  0.00    +0.000 C 
BRANCH  12  13
ATOM     13  C   UNL     1      47.318   7.175  13.460  0.00  0.00    +0.000 A 
ATOM     14  C   UNL     1      47.201   8.464  12.939  0.00  0.00    +0.000 A 
ATOM     15  N   UNL     1      47.899   9.535  13.383  0.00  0.00    +0.000 NA
ATOM     16  C   UNL     1      48.761   9.319  14.405  0.00  0.00    +0.000 A 
ATOM     17  C   UNL     1      48.963   8.081  14.988  0.00  0.00    +0.000 A 
ATOM     18 CL   UNL     1      50.079   7.883  16.276  0.00  0.00    +0.000 Cl
ATOM     19  C   UNL     1      48.237   6.995  14.506  0.00  0.00    +0.000 A 
ENDBRANCH  12  13
ENDBRANCH  10  12
ENDBRANCH   1  10
BRANCH   7  20
ATOM     20  N   UNL     1      46.380   3.452   7.424  0.00  0.00    +0.000 N 
BRANCH  20  21
ATOM     21  C   UNL     1      46.569   2.250   6.657  0.00  0.00    +0.000 C 
ATOM     22  C   UNL     1      47.776   1.384   7.053  0.00  0.00    +0.000 C 
ATOM     23  O   UNL     1      48.347   1.476   5.728  0.00  0.00    +0.000 OA
ATOM     24  C   UNL     1      47.383   2.497   5.372  0.00  0.00    +0.000 C 
ENDBRANCH  20  21
BRANCH  20  25
ATOM     25  O   UNL     1      46.809   4.597   6.729  0.00  0.00    +0.000 OA
ATOM     26  H   UNL     1      47.163   4.223   5.894  0.00  0.00    +0.000 HD
ENDBRANCH  20  25
ENDBRANCH   7  20
TORSDOF 6
ENDMDL
MODEL 7
REMARK VINA RESULT:    -6.565      4.198      7.729
REMARK INTER + INTRA:          -9.416
REMARK INTER:                  -8.714
REMARK INTRA:                  -0.702
REMARK UNBOUND:                -0.740
REMARK  Name = 
REMARK  7 active torsions:
REMARK  status: ('A' for Active; 'I' for Inactive)
REMARK    1  A    between atoms: C_1  and  C_2
REMARK    2  A    between atoms: C_2  and  C_3
REMARK    3  A    between atoms: C_2  and  C_18
REMARK    4  A    between atoms: C_3  and  N_4
REMARK    5  A    between atoms: C_10  and  N_11
REMARK    6  A    between atoms: N_11  and  O_12
REMARK    7  A    between atoms: N_11  and  C_13
REMARK                            x       y       z     vdW  Elec       q    Type
REMARK                         _______ _______ _______ _____ _____    ______ ____
ROOT
ATOM      1  N   UNL     1      47.262   3.565  15.741  0.00  0.00    +0.000 N 
ATOM      2  C   UNL     1      47.010   4.205  14.536  0.00  0.00    +0.000 A 
ATOM      3  N   UNL     1      47.614   5.360  14.233  0.00  0.00    +0.000 NA
ATOM      4  C   UNL     1      47.302   5.920  13.048  0.00  0.00    +0.000 A 
ATOM      5  C   UNL     1      46.392   5.382  12.176  0.00  0.00    +0.000 A 
ATOM      6  F   UNL     1      46.139   5.981  11.004  0.00  0.00    +0.000 F 
ATOM      7  C   UNL     1      45.782   4.207  12.573  0.00  0.00    +0.000 A 
ATOM      8  N   UNL     1      46.125   3.598  13.737  0.00  0.00    +0.000 NA
ATOM      9  H   UNL     1      46.463   2.960  15.905  0.00  0.00    +0.000 HD
ENDROOT
BRANCH   1  10
ATOM     10  C   UNL     1      47.614   4.446  16.848  0.00  0.00    +0.000 C 
BRANCH  10  12
ATOM     11  C   UNL     1      48.649   3.737  19.062  0.00  0.00    +0.000 C 
ATOM     12  C   UNL     1      48.900   3.974  17.566  0.00  0.00    +0.000 C 
BRANCH  12  13
ATOM     13  C   UNL     1      50.091   4.872  17.280  0.00  0.00    +0.000 A 
ATOM     14  C   UNL     1      49.959   6.181  16.817  0.00  0.00    +0.000 A 
ATOM     15  N   UNL     1      50.998   7.008  16.555  0.00  0.00    +0.000 NA
ATOM     16  C   UNL     1      52.240   6.511  16.766  0.00  0.00    +0.000 A 
ATOM     17  C   UNL     1      52.484   5.225  17.212  0.00  0.00    +0.000 A 
ATOM     18 CL   UNL     1      54.088   4.662  17.449  0.00  0.00    +0.000 Cl
ATOM     19  C   UNL     1      51.396   4.393  17.467  0.00  0.00    +0.000 A 
ENDBRANCH  12  13
ENDBRANCH  10  12
ENDBRANCH   1  10
BRANCH   7  20
ATOM     20  N   UNL     1      44.771   3.568  11.820  0.00  0.00    +0.000 N 
BRANCH  20  21
ATOM     21  C   UNL     1      43.370   3.886  11.735  0.00  0.00    +0.000 C 
ATOM     22  C   UNL     1      43.009   5.103  10.868  0.00  0.00    +0.000 C 
ATOM     23  O   UNL     1      42.371   5.774  11.978  0.00  0.00    +0.000 OA
ATOM     24  C   UNL     1      42.903   4.787  12.895  0.00  0.00    +0.000 C 
ENDBRANCH  20  21
BRANCH  20  25
ATOM     25  O   UNL     1      45.177   2.685  10.804  0.00  0.00    +0.000 OA
ATOM     26  H   UNL     1      46.110   2.945  10.651  0.00  0.00    +0.000 HD
ENDBRANCH  20  25
ENDBRANCH   7  20
TORSDOF 6
ENDMDL
MODEL 8
REMARK VINA RESULT:    -6.484      2.412      4.015
REMARK INTER + INTRA:          -9.310
REMARK INTER:                  -8.831
REMARK INTRA:                  -0.479
REMARK UNBOUND:                -0.740
REMARK  Name = 
REMARK  7 active torsions:
REMARK  status: ('A' for Active; 'I' for Inactive)
REMARK    1  A    between atoms: C_1  and  C_2
REMARK    2  A    between atoms: C_2  and  C_3
REMARK    3  A    between atoms: C_2  and  C_18
REMARK    4  A    between atoms: C_3  and  N_4
REMARK    5  A    between atoms: C_10  and  N_11
REMARK    6  A    between atoms: N_11  and  O_12
REMARK    7  A    between atoms: N_11  and  C_13
REMARK                            x       y       z     vdW  Elec       q    Type
REMARK                         _______ _______ _______ _____ _____    ______ ____
ROOT
ATOM      1  N   UNL     1      47.306   6.287  14.106  0.00  0.00    +0.000 N 
ATOM      2  C   UNL     1      48.363   6.251  15.003  0.00  0.00    +0.000 A 
ATOM      3  N   UNL     1      49.444   7.019  14.820  0.00  0.00    +0.000 NA
ATOM      4  C   UNL     1      50.430   6.912  15.732  0.00  0.00    +0.000 A 
ATOM      5  C   UNL     1      50.383   6.050  16.796  0.00  0.00    +0.000 A 
ATOM      6  F   UNL     1      51.391   6.006  17.678  0.00  0.00    +0.000 F 
ATOM      7  C   UNL     1      49.251   5.264  16.899  0.00  0.00    +0.000 A 
ATOM      8  N   UNL     1      48.223   5.397  16.024  0.00  0.00    +0.000 NA
ATOM      9  H   UNL     1      46.810   5.408  14.227  0.00  0.00    +0.000 HD
ENDROOT
BRANCH   1  10
ATOM     10  C   UNL     1      47.670   6.612  12.732  0.00  0.00    +0.000 C 
BRANCH  10  12
ATOM     11  C   UNL     1      45.836   8.375  12.828  0.00  0.00    +0.000 C 
ATOM     12  C   UNL     1      46.499   7.283  11.975  0.00  0.00    +0.000 C 
BRANCH  12  13
ATOM     13  C   UNL     1      45.520   6.274  11.403  0.00  0.00    +0.000 A 
ATOM     14  C   UNL     1      44.311   5.955  12.022  0.00  0.00    +0.000 A 
ATOM     15  N   UNL     1      43.416   5.063  11.538  0.00  0.00    +0.000 NA
ATOM     16  C   UNL     1      43.734   4.452  10.372  0.00  0.00    +0.000 A 
ATOM     17  C   UNL     1      44.910   4.685   9.682  0.00  0.00    +0.000 A 
ATOM     18 CL   UNL     1      45.249   3.866   8.212  0.00  0.00    +0.000 Cl
ATOM     19  C   UNL     1      45.817   5.603  10.207  0.00  0.00    +0.000 A 
ENDBRANCH  12  13
ENDBRANCH  10  12
ENDBRANCH   1  10
BRANCH   7  20
ATOM     20  N   UNL     1      49.085   4.277  17.897  0.00  0.00    +0.000 N 
BRANCH  20  21
ATOM     21  C   UNL     1      49.272   2.853  17.801  0.00  0.00    +0.000 C 
ATOM     22  C   UNL     1      50.604   2.391  17.186  0.00  0.00    +0.000 C 
ATOM     23  O   UNL     1      49.930   1.663  16.135  0.00  0.00    +0.000 OA
ATOM     24  C   UNL     1      48.669   2.271  16.507  0.00  0.00    +0.000 C 
ENDBRANCH  20  21
BRANCH  20  25
ATOM     25  O   UNL     1      48.993   4.710  19.232  0.00  0.00    +0.000 OA
ATOM     26  H   UNL     1      49.470   5.567  19.214  0.00  0.00    +0.000 HD
ENDBRANCH  20  25
ENDBRANCH   7  20
TORSDOF 6
ENDMDL
MODEL 9
REMARK VINA RESULT:    -6.289      2.502      3.646
REMARK INTER + INTRA:          -9.051
REMARK INTER:                  -8.513
REMARK INTRA:                  -0.538
REMARK UNBOUND:                -0.740
REMARK  Name = 
REMARK  7 active torsions:
REMARK  status: ('A' for Active; 'I' for Inactive)
REMARK    1  A    between atoms: C_1  and  C_2
REMARK    2  A    between atoms: C_2  and  C_3
REMARK    3  A    between atoms: C_2  and  C_18
REMARK    4  A    between atoms: C_3  and  N_4
REMARK    5  A    between atoms: C_10  and  N_11
REMARK    6  A    between atoms: N_11  and  O_12
REMARK    7  A    between atoms: N_11  and  C_13
REMARK                            x       y       z     vdW  Elec       q    Type
REMARK                         _______ _______ _______ _____ _____    ______ ____
ROOT
ATOM      1  N   UNL     1      47.017   5.792  13.374  0.00  0.00    +0.000 N 
ATOM      2  C   UNL     1      47.373   5.239  14.596  0.00  0.00    +0.000 A 
ATOM      3  N   UNL     1      46.781   4.125  15.043  0.00  0.00    +0.000 NA
ATOM      4  C   UNL     1      47.177   3.663  16.245  0.00  0.00    +0.000 A 
ATOM      5  C   UNL     1      48.117   4.290  17.021  0.00  0.00    +0.000 A 
ATOM      6  F   UNL     1      48.479   3.768  18.201  0.00  0.00    +0.000 F 
ATOM      7  C   UNL     1      48.658   5.454  16.509  0.00  0.00    +0.000 A 
ATOM      8  N   UNL     1      48.314   5.905  15.276  0.00  0.00    +0.000 NA
ATOM      9  H   UNL     1      47.297   6.768  13.420  0.00  0.00    +0.000 HD
ENDROOT
BRANCH   1  10
ATOM     10  C   UNL     1      45.637   5.559  12.967  0.00  0.00    +0.000 C 
BRANCH  10  12
ATOM     11  C   UNL     1      44.382   7.120  11.396  0.00  0.00    +0.000 C 
ATOM     12  C   UNL     1      45.398   5.973  11.496  0.00  0.00    +0.000 C 
BRANCH  12  13
ATOM     13  C   UNL     1      45.075   4.789  10.602  0.00  0.00    +0.000 A 
ATOM     14  C   UNL     1      44.238   3.746  10.998  0.00  0.00    +0.000 A 
ATOM     15  N   UNL     1      43.928   2.679  10.226  0.00  0.00    +0.000 NA
ATOM     16  C   UNL     1      44.476   2.643   8.988  0.00  0.00    +0.000 A 
ATOM     17  C   UNL     1      45.327   3.617   8.499  0.00  0.00    +0.000 A 
ATOM     18 CL   UNL     1      45.989   3.500   6.920  0.00  0.00    +0.000 Cl
ATOM     19  C   UNL     1      45.635   4.701   9.318  0.00  0.00    +0.000 A 
ENDBRANCH  12  13
ENDBRANCH  10  12
ENDBRANCH   1  10
BRANCH   7  20
ATOM     20  N   UNL     1      49.583   6.253  17.219  0.00  0.00    +0.000 N 
BRANCH  20  21
ATOM     21  C   UNL     1      49.331   7.252  18.223  0.00  0.00    +0.000 C 
ATOM     22  C   UNL     1      47.913   7.264  18.818  0.00  0.00    +0.000 C 
ATOM     23  O   UNL     1      47.693   8.633  18.409  0.00  0.00    +0.000 OA
ATOM     24  C   UNL     1      48.902   8.601  17.612  0.00  0.00    +0.000 C 
ENDBRANCH  20  21
BRANCH  20  25
ATOM     25  O   UNL     1      50.936   5.874  17.176  0.00  0.00    +0.000 OA
ATOM     26  H   UNL     1      51.309   6.475  16.497  0.00  0.00    +0.000 HD
ENDBRANCH  20  25
ENDBRANCH   7  20
TORSDOF 6
ENDMDL
