MODEL 1
REMARK VINA RESULT:    -8.723      0.000      0.000
REMARK INTER + INTRA:         -11.944
REMARK INTER:                 -11.273
REMARK INTRA:                  -0.671
REMARK UNBOUND:                -0.671
REMARK  Name = 
REMARK  5 active torsions:
REMARK  status: ('A' for Active; 'I' for Inactive)
REMARK    1  A    between atoms: C_2  and  C_4
REMARK    2  A    between atoms: C_7  and  O_8
REMARK    3  A    between atoms: O_8  and  C_9
REMARK    4  A    between atoms: C_9  and  C_10
REMARK    5  A    between atoms: C_14  and  C_15
REMARK                            x       y       z     vdW  Elec       q    Type
REMARK                         _______ _______ _______ _____ _____    ______ ____
ROOT
ATOM      1  C   UNL     1      43.610   3.427  11.642  0.00  0.00    +0.000 C 
ENDROOT
BRANCH   1   2
ATOM      2  C   UNL     1      44.847   4.020  12.279  0.00  0.00    +0.000 A 
ATOM      3  N   UNL     1      45.648   3.195  12.981  0.00  0.00    +0.000 NA
ATOM      4  C   UNL     1      46.745   3.745  13.523  0.00  0.00    +0.000 A 
ATOM      5  C   UNL     1      47.069   5.076  13.394  0.00  0.00    +0.000 A 
ATOM      6  C   UNL     1      46.196   5.860  12.663  0.00  0.00    +0.000 A 
ATOM      7  N   UNL     1      45.074   5.341  12.114  0.00  0.00    +0.000 NA
BRANCH   6   8
ATOM      8  C   UNL     1      46.412   7.301  12.447  0.00  0.00    +0.000 A 
ATOM      9  C   UNL     1      47.674   7.850  12.174  0.00  0.00    +0.000 A 
ATOM     10  C   UNL     1      47.830   9.225  12.000  0.00  0.00    +0.000 A 
ATOM     11  C   UNL     1      46.711  10.032  12.098  0.00  0.00    +0.000 A 
ATOM     12  N   UNL     1      45.475   9.557  12.346  0.00  0.00    +0.000 NA
ATOM     13  C   UNL     1      45.356   8.213  12.503  0.00  0.00    +0.000 A 
ENDBRANCH   6   8
ENDBRANCH   1   2
BRANCH   1  14
ATOM     14  O   UNL     1      43.522   3.846  10.277  0.00  0.00    +0.000 OA
BRANCH  14  18
ATOM     15  C   UNL     1      46.422   2.587   7.555  0.00  0.00    +0.000 A 
ATOM     16  C   UNL     1      45.811   1.627   8.368  0.00  0.00    +0.000 A 
ATOM     17  C   UNL     1      44.832   2.007   9.294  0.00  0.00    +0.000 A 
ATOM     18  C   UNL     1      44.460   3.346   9.416  0.00  0.00    +0.000 A 
ATOM     19  C   UNL     1      45.081   4.304   8.609  0.00  0.00    +0.000 A 
ATOM     20  C   UNL     1      46.062   3.931   7.687  0.00  0.00    +0.000 A 
BRANCH  15  22
ATOM     21  N   UNL     1      47.500   2.936   5.400  0.00  0.00    +0.000 N 
ATOM     22  C   UNL     1      47.469   2.222   6.566  0.00  0.00    +0.000 C 
ATOM     23  O   UNL     1      48.293   1.347   6.792  0.00  0.00    +0.000 OA
ATOM     24  H   UNL     1      48.285   2.752   4.788  0.00  0.00    +0.000 HD
ATOM     25  H   UNL     1      47.023   3.820   5.296  0.00  0.00    +0.000 HD
ENDBRANCH  15  22
ENDBRANCH  14  18
ENDBRANCH   1  14
TORSDOF 5
ENDMDL
MODEL 2
REMARK VINA RESULT:    -8.039      2.024      3.615
REMARK INTER + INTRA:         -11.061
REMARK INTER:                 -10.759
REMARK INTRA:                  -0.302
REMARK UNBOUND:                -0.671
REMARK  Name = 
REMARK  5 active torsions:
REMARK  status: ('A' for Active; 'I' for Inactive)
REMARK    1  A    between atoms: C_2  and  C_4
REMARK    2  A    between atoms: C_7  and  O_8
REMARK    3  A    between atoms: O_8  and  C_9
REMARK    4  A    between atoms: C_9  and  C_10
REMARK    5  A    between atoms: C_14  and  C_15
REMARK                            x       y       z     vdW  Elec       q    Type
REMARK                         _______ _______ _______ _____ _____    ______ ____
ROOT
ATOM      1  C   UNL     1      44.228   3.672  11.890  0.00  0.00    +0.000 C 
ENDROOT
BRANCH   1   2
ATOM      2  C   UNL     1      45.286   4.594  12.455  0.00  0.00    +0.000 A 
ATOM      3  N   UNL     1      45.537   5.741  11.793  0.00  0.00    +0.000 NA
ATOM      4  C   UNL     1      46.470   6.545  12.324  0.00  0.00    +0.000 A 
ATOM      5  C   UNL     1      47.158   6.250  13.479  0.00  0.00    +0.000 A 
ATOM      6  C   UNL     1      46.848   5.053  14.098  0.00  0.00    +0.000 A 
ATOM      7  N   UNL     1      45.921   4.213  13.583  0.00  0.00    +0.000 NA
BRANCH   6   8
ATOM      8  C   UNL     1      47.506   4.606  15.338  0.00  0.00    +0.000 A 
ATOM      9  C   UNL     1      47.498   3.270  15.767  0.00  0.00    +0.000 A 
ATOM     10  C   UNL     1      48.116   2.901  16.961  0.00  0.00    +0.000 A 
ATOM     11  C   UNL     1      48.740   3.883  17.709  0.00  0.00    +0.000 A 
ATOM     12  N   UNL     1      48.789   5.177  17.339  0.00  0.00    +0.000 NA
ATOM     13  C   UNL     1      48.184   5.502  16.167  0.00  0.00    +0.000 A 
ENDBRANCH   6   8
ENDBRANCH   1   2
BRANCH   1  14
ATOM     14  O   UNL     1      43.952   4.029  10.532  0.00  0.00    +0.000 OA
BRANCH  14  18
ATOM     15  C   UNL     1      46.512   2.688   7.524  0.00  0.00    +0.000 A 
ATOM     16  C   UNL     1      45.904   1.739   8.353  0.00  0.00    +0.000 A 
ATOM     17  C   UNL     1      45.038   2.147   9.374  0.00  0.00    +0.000 A 
ATOM     18  C   UNL     1      44.775   3.502   9.575  0.00  0.00    +0.000 A 
ATOM     19  C   UNL     1      45.392   4.448   8.752  0.00  0.00    +0.000 A 
ATOM     20  C   UNL     1      46.262   4.046   7.734  0.00  0.00    +0.000 A 
BRANCH  15  22
ATOM     21  N   UNL     1      47.368   3.000   5.266  0.00  0.00    +0.000 N 
ATOM     22  C   UNL     1      47.442   2.293   6.434  0.00  0.00    +0.000 C 
ATOM     23  O   UNL     1      48.265   1.400   6.581  0.00  0.00    +0.000 OA
ATOM     24  H   UNL     1      48.080   2.794   4.577  0.00  0.00    +0.000 HD
ATOM     25  H   UNL     1      46.903   3.894   5.205  0.00  0.00    +0.000 HD
ENDBRANCH  15  22
ENDBRANCH  14  18
ENDBRANCH   1  14
TORSDOF 5
ENDMDL
MODEL 3
REMARK VINA RESULT:    -7.937      1.516      2.549
REMARK INTER + INTRA:         -10.928
REMARK INTER:                 -10.327
REMARK INTRA:                  -0.601
REMARK UNBOUND:                -0.671
REMARK  Name = 
REMARK  5 active torsions:
REMARK  status: ('A' for Active; 'I' for Inactive)
REMARK    1  A    between atoms: C_2  and  C_4
REMARK    2  A    between atoms: C_7  and  O_8
REMARK    3  A    between atoms: O_8  and  C_9
REMARK    4  A    between atoms: C_9  and  C_10
REMARK    5  A    between atoms: C_14  and  C_15
REMARK                            x       y       z     vdW  Elec       q    Type
REMARK                         _______ _______ _______ _____ _____    ______ ____
ROOT
ATOM      1  C   UNL     1      43.949   3.967  11.593  0.00  0.00    +0.000 C 
ENDROOT
BRANCH   1   2
ATOM      2  C   UNL     1      44.407   5.407  11.655  0.00  0.00    +0.000 A 
ATOM      3  N   UNL     1      43.516   6.364  11.330  0.00  0.00    +0.000 NA
ATOM      4  C   UNL     1      43.946   7.632  11.407  0.00  0.00    +0.000 A 
ATOM      5  C   UNL     1      45.221   7.979  11.790  0.00  0.00    +0.000 A 
ATOM      6  C   UNL     1      46.079   6.941  12.104  0.00  0.00    +0.000 A 
ATOM      7  N   UNL     1      45.683   5.650  12.025  0.00  0.00    +0.000 NA
BRANCH   6   8
ATOM      8  C   UNL     1      47.473   7.162  12.526  0.00  0.00    +0.000 A 
ATOM      9  C   UNL     1      48.422   7.807  11.718  0.00  0.00    +0.000 A 
ATOM     10  C   UNL     1      49.737   7.972  12.153  0.00  0.00    +0.000 A 
ATOM     11  C   UNL     1      50.080   7.487  13.402  0.00  0.00    +0.000 A 
ATOM     12  N   UNL     1      49.209   6.871  14.224  0.00  0.00    +0.000 NA
ATOM     13  C   UNL     1      47.935   6.734  13.772  0.00  0.00    +0.000 A 
ENDBRANCH   6   8
ENDBRANCH   1   2
BRANCH   1  14
ATOM     14  O   UNL     1      43.534   3.650  10.260  0.00  0.00    +0.000 OA
BRANCH  14  18
ATOM     15  C   UNL     1      46.537   2.595   7.563  0.00  0.00    +0.000 A 
ATOM     16  C   UNL     1      46.143   3.936   7.631  0.00  0.00    +0.000 A 
ATOM     17  C   UNL     1      45.139   4.332   8.522  0.00  0.00    +0.000 A 
ATOM     18  C   UNL     1      44.522   3.394   9.350  0.00  0.00    +0.000 A 
ATOM     19  C   UNL     1      44.911   2.053   9.272  0.00  0.00    +0.000 A 
ATOM     20  C   UNL     1      45.909   1.651   8.380  0.00  0.00    +0.000 A 
BRANCH  15  22
ATOM     21  N   UNL     1      47.819   2.906   5.517  0.00  0.00    +0.000 N 
ATOM     22  C   UNL     1      47.594   2.137   6.625  0.00  0.00    +0.000 C 
ATOM     23  O   UNL     1      48.261   1.135   6.845  0.00  0.00    +0.000 OA
ATOM     24  H   UNL     1      48.614   2.642   4.948  0.00  0.00    +0.000 HD
ATOM     25  H   UNL     1      47.486   3.856   5.443  0.00  0.00    +0.000 HD
ENDBRANCH  15  22
ENDBRANCH  14  18
ENDBRANCH   1  14
TORSDOF 5
ENDMDL
MODEL 4
REMARK VINA RESULT:    -7.191      2.885      7.261
REMARK INTER + INTRA:          -9.964
REMARK INTER:                  -9.645
REMARK INTRA:                  -0.319
REMARK UNBOUND:                -0.671
REMARK  Name = 
REMARK  5 active torsions:
REMARK  status: ('A' for Active; 'I' for Inactive)
REMARK    1  A    between atoms: C_2  and  C_4
REMARK    2  A    between atoms: C_7  and  O_8
REMARK    3  A    between atoms: O_8  and  C_9
REMARK    4  A    between atoms: C_9  and  C_10
REMARK    5  A    between atoms: C_14  and  C_15
REMARK                            x       y       z     vdW  Elec       q    Type
REMARK                         _______ _______ _______ _____ _____    ______ ____
ROOT
ATOM      1  C   UNL     1      45.158   6.489  11.118  0.00  0.00    +0.000 C 
ENDROOT
BRANCH   1   2
ATOM      2  C   UNL     1      44.816   5.083  10.678  0.00  0.00    +0.000 A 
ATOM      3  N   UNL     1      43.850   4.432  11.354  0.00  0.00    +0.000 NA
ATOM      4  C   UNL     1      43.559   3.192  10.934  0.00  0.00    +0.000 A 
ATOM      5  C   UNL     1      44.190   2.581   9.876  0.00  0.00    +0.000 A 
ATOM      6  C   UNL     1      45.174   3.311   9.234  0.00  0.00    +0.000 A 
ATOM      7  N   UNL     1      45.503   4.559   9.640  0.00  0.00    +0.000 NA
BRANCH   6   8
ATOM      8  C   UNL     1      45.936   2.784   8.089  0.00  0.00    +0.000 A 
ATOM      9  C   UNL     1      46.249   3.556   6.960  0.00  0.00    +0.000 A 
ATOM     10  C   UNL     1      46.953   3.003   5.891  0.00  0.00    +0.000 A 
ATOM     11  C   UNL     1      47.338   1.678   5.973  0.00  0.00    +0.000 A 
ATOM     12  N   UNL     1      47.076   0.894   7.037  0.00  0.00    +0.000 NA
ATOM     13  C   UNL     1      46.395   1.465   8.064  0.00  0.00    +0.000 A 
ENDBRANCH   6   8
ENDBRANCH   1   2
BRANCH   1  14
ATOM     14  O   UNL     1      46.568   6.595  11.344  0.00  0.00    +0.000 OA
BRANCH  14  18
ATOM     15  C   UNL     1      48.114   5.826  15.141  0.00  0.00    +0.000 A 
ATOM     16  C   UNL     1      47.151   4.952  14.625  0.00  0.00    +0.000 A 
ATOM     17  C   UNL     1      46.607   5.174  13.355  0.00  0.00    +0.000 A 
ATOM     18  C   UNL     1      47.018   6.268  12.593  0.00  0.00    +0.000 A 
ATOM     19  C   UNL     1      47.973   7.145  13.117  0.00  0.00    +0.000 A 
ATOM     20  C   UNL     1      48.516   6.931  14.387  0.00  0.00    +0.000 A 
BRANCH  15  22
ATOM     21  N   UNL     1      47.851   5.615  17.553  0.00  0.00    +0.000 N 
ATOM     22  C   UNL     1      48.709   5.626  16.488  0.00  0.00    +0.000 C 
ATOM     23  O   UNL     1      49.909   5.445  16.642  0.00  0.00    +0.000 OA
ATOM     24  H   UNL     1      48.256   5.367  18.447  0.00  0.00    +0.000 HD
ATOM     25  H   UNL     1      46.855   5.492  17.441  0.00  0.00    +0.000 HD
ENDBRANCH  15  22
ENDBRANCH  14  18
ENDBRANCH   1  14
TORSDOF 5
ENDMDL
MODEL 5
REMARK VINA RESULT:    -7.164      2.675      6.633
REMARK INTER + INTRA:          -9.930
REMARK INTER:                  -9.330
REMARK INTRA:                  -0.600
REMARK UNBOUND:                -0.671
REMARK  Name = 
REMARK  5 active torsions:
REMARK  status: ('A' for Active; 'I' for Inactive)
REMARK    1  A    between atoms: C_2  and  C_4
REMARK    2  A    between atoms: C_7  and  O_8
REMARK    3  A    between atoms: O_8  and  C_9
REMARK    4  A    between atoms: C_9  and  C_10
REMARK    5  A    between atoms: C_14  and  C_15
REMARK                            x       y       z     vdW  Elec       q    Type
REMARK                         _______ _______ _______ _____ _____    ______ ____
ROOT
ATOM      1  C   UNL     1      43.683   6.294  11.428  0.00  0.00    +0.000 C 
ENDROOT
BRANCH   1   2
ATOM      2  C   UNL     1      43.822   4.825  11.099  0.00  0.00    +0.000 A 
ATOM      3  N   UNL     1      43.166   3.942  11.878  0.00  0.00    +0.000 NA
ATOM      4  C   UNL     1      43.298   2.647  11.554  0.00  0.00    +0.000 A 
ATOM      5  C   UNL     1      44.053   2.202  10.494  0.00  0.00    +0.000 A 
ATOM      6  C   UNL     1      44.700   3.168   9.744  0.00  0.00    +0.000 A 
ATOM      7  N   UNL     1      44.600   4.482  10.050  0.00  0.00    +0.000 NA
BRANCH   6   8
ATOM      8  C   UNL     1      45.545   2.838   8.584  0.00  0.00    +0.000 A 
ATOM      9  C   UNL     1      45.936   3.790   7.630  0.00  0.00    +0.000 A 
ATOM     10  C   UNL     1      46.719   3.423   6.535  0.00  0.00    +0.000 A 
ATOM     11  C   UNL     1      47.102   2.100   6.416  0.00  0.00    +0.000 A 
ATOM     12  N   UNL     1      46.767   1.147   7.307  0.00  0.00    +0.000 NA
ATOM     13  C   UNL     1      46.010   1.540   8.366  0.00  0.00    +0.000 A 
ENDBRANCH   6   8
ENDBRANCH   1   2
BRANCH   1  14
ATOM     14  O   UNL     1      44.394   6.588  12.635  0.00  0.00    +0.000 OA
BRANCH  14  18
ATOM     15  C   UNL     1      48.238   8.157  12.233  0.00  0.00    +0.000 A 
ATOM     16  C   UNL     1      47.158   9.045  12.285  0.00  0.00    +0.000 A 
ATOM     17  C   UNL     1      45.852   8.560  12.420  0.00  0.00    +0.000 A 
ATOM     18  C   UNL     1      45.616   7.188  12.502  0.00  0.00    +0.000 A 
ATOM     19  C   UNL     1      46.696   6.303  12.438  0.00  0.00    +0.000 A 
ATOM     20  C   UNL     1      48.002   6.782  12.297  0.00  0.00    +0.000 A 
BRANCH  15  22
ATOM     21  N   UNL     1      50.632   7.718  12.279  0.00  0.00    +0.000 N 
ATOM     22  C   UNL     1      49.637   8.635  12.083  0.00  0.00    +0.000 C 
ATOM     23  O   UNL     1      49.894   9.788  11.763  0.00  0.00    +0.000 OA
ATOM     24  H   UNL     1      51.571   8.030  12.064  0.00  0.00    +0.000 HD
ATOM     25  H   UNL     1      50.458   6.724  12.276  0.00  0.00    +0.000 HD
ENDBRANCH  15  22
ENDBRANCH  14  18
ENDBRANCH   1  14
TORSDOF 5
ENDMDL
MODEL 6
REMARK VINA RESULT:    -6.935      2.822      7.295
REMARK INTER + INTRA:          -9.634
REMARK INTER:                  -9.298
REMARK INTRA:                  -0.336
REMARK UNBOUND:                -0.671
REMARK  Name = 
REMARK  5 active torsions:
REMARK  status: ('A' for Active; 'I' for Inactive)
REMARK    1  A    between atoms: C_2  and  C_4
REMARK    2  A    between atoms: C_7  and  O_8
REMARK    3  A    between atoms: O_8  and  C_9
REMARK    4  A    between atoms: C_9  and  C_10
REMARK    5  A    between atoms: C_14  and  C_15
REMARK                            x       y       z     vdW  Elec       q    Type
REMARK                         _______ _______ _______ _____ _____    ______ ____
ROOT
ATOM      1  C   UNL     1      46.232   7.219  11.871  0.00  0.00    +0.000 C 
ENDROOT
BRANCH   1   2
ATOM      2  C   UNL     1      45.309   6.231  11.193  0.00  0.00    +0.000 A 
ATOM      3  N   UNL     1      44.000   6.274  11.512  0.00  0.00    +0.000 NA
ATOM      4  C   UNL     1      43.204   5.396  10.885  0.00  0.00    +0.000 A 
ATOM      5  C   UNL     1      43.658   4.483   9.961  0.00  0.00    +0.000 A 
ATOM      6  C   UNL     1      45.014   4.498   9.690  0.00  0.00    +0.000 A 
ATOM      7  N   UNL     1      45.849   5.361  10.313  0.00  0.00    +0.000 NA
BRANCH   6   8
ATOM      8  C   UNL     1      45.641   3.576   8.727  0.00  0.00    +0.000 A 
ATOM      9  C   UNL     1      45.677   2.186   8.913  0.00  0.00    +0.000 A 
ATOM     10  C   UNL     1      46.305   1.357   7.983  0.00  0.00    +0.000 A 
ATOM     11  C   UNL     1      46.887   1.940   6.872  0.00  0.00    +0.000 A 
ATOM     12  N   UNL     1      46.873   3.266   6.637  0.00  0.00    +0.000 NA
ATOM     13  C   UNL     1      46.247   4.044   7.558  0.00  0.00    +0.000 A 
ENDBRANCH   6   8
ENDBRANCH   1   2
BRANCH   1  14
ATOM     14  O   UNL     1      47.457   6.569  12.225  0.00  0.00    +0.000 OA
BRANCH  14  18
ATOM     15  C   UNL     1      47.494   4.666  15.937  0.00  0.00    +0.000 A 
ATOM     16  C   UNL     1      48.210   5.859  15.793  0.00  0.00    +0.000 A 
ATOM     17  C   UNL     1      48.224   6.530  14.564  0.00  0.00    +0.000 A 
ATOM     18  C   UNL     1      47.525   6.014  13.473  0.00  0.00    +0.000 A 
ATOM     19  C   UNL     1      46.819   4.816  13.617  0.00  0.00    +0.000 A 
ATOM     20  C   UNL     1      46.807   4.139  14.840  0.00  0.00    +0.000 A 
BRANCH  15  22
ATOM     21  N   UNL     1      48.308   4.349  18.210  0.00  0.00    +0.000 N 
ATOM     22  C   UNL     1      47.462   3.923  17.223  0.00  0.00    +0.000 C 
ATOM     23  O   UNL     1      46.691   2.992  17.411  0.00  0.00    +0.000 OA
ATOM     24  H   UNL     1      48.194   3.906  19.113  0.00  0.00    +0.000 HD
ATOM     25  H   UNL     1      48.749   5.256  18.186  0.00  0.00    +0.000 HD
ENDBRANCH  15  22
ENDBRANCH  14  18
ENDBRANCH   1  14
TORSDOF 5
ENDMDL
MODEL 7
REMARK VINA RESULT:    -6.850      4.087      7.933
REMARK INTER + INTRA:          -9.524
REMARK INTER:                  -9.082
REMARK INTRA:                  -0.442
REMARK UNBOUND:                -0.671
REMARK  Name = 
REMARK  5 active torsions:
REMARK  status: ('A' for Active; 'I' for Inactive)
REMARK    1  A    between atoms: C_2  and  C_4
REMARK    2  A    between atoms: C_7  and  O_8
REMARK    3  A    between atoms: O_8  and  C_9
REMARK    4  A    between atoms: C_9  and  C_10
REMARK    5  A    between atoms: C_14  and  C_15
REMARK                            x       y       z     vdW  Elec       q    Type
REMARK                         _______ _______ _______ _____ _____    ______ ____
ROOT
ATOM      1  C   UNL     1      46.257   5.196  14.042  0.00  0.00    +0.000 C 
ENDROOT
BRANCH   1   2
ATOM      2  C   UNL     1      45.236   4.988  12.946  0.00  0.00    +0.000 A 
ATOM      3  N   UNL     1      43.958   5.326  13.206  0.00  0.00    +0.000 NA
ATOM      4  C   UNL     1      43.077   5.142  12.211  0.00  0.00    +0.000 A 
ATOM      5  C   UNL     1      43.419   4.637  10.978  0.00  0.00    +0.000 A 
ATOM      6  C   UNL     1      44.749   4.309  10.789  0.00  0.00    +0.000 A 
ATOM      7  N   UNL     1      45.662   4.469  11.774  0.00  0.00    +0.000 NA
BRANCH   6   8
ATOM      8  C   UNL     1      45.258   3.755   9.523  0.00  0.00    +0.000 A 
ATOM      9  C   UNL     1      45.341   2.377   9.271  0.00  0.00    +0.000 A 
ATOM     10  C   UNL     1      45.853   1.902   8.064  0.00  0.00    +0.000 A 
ATOM     11  C   UNL     1      46.274   2.821   7.121  0.00  0.00    +0.000 A 
ATOM     12  N   UNL     1      46.206   4.154   7.304  0.00  0.00    +0.000 NA
ATOM     13  C   UNL     1      45.695   4.584   8.487  0.00  0.00    +0.000 A 
ENDBRANCH   6   8
ENDBRANCH   1   2
BRANCH   1  14
ATOM     14  O   UNL     1      46.588   3.939  14.639  0.00  0.00    +0.000 OA
BRANCH  14  18
ATOM     15  C   UNL     1      49.188   4.311  17.880  0.00  0.00    +0.000 A 
ATOM     16  C   UNL     1      48.754   3.031  17.518  0.00  0.00    +0.000 A 
ATOM     17  C   UNL     1      47.881   2.862  16.437  0.00  0.00    +0.000 A 
ATOM     18  C   UNL     1      47.436   3.968  15.712  0.00  0.00    +0.000 A 
ATOM     19  C   UNL     1      47.863   5.246  16.083  0.00  0.00    +0.000 A 
ATOM     20  C   UNL     1      48.729   5.421  17.166  0.00  0.00    +0.000 A 
BRANCH  15  22
ATOM     21  N   UNL     1      49.608   4.300  20.279  0.00  0.00    +0.000 N 
ATOM     22  C   UNL     1      50.107   4.530  19.026  0.00  0.00    +0.000 C 
ATOM     23  O   UNL     1      51.272   4.867  18.863  0.00  0.00    +0.000 OA
ATOM     24  H   UNL     1      50.276   4.345  21.038  0.00  0.00    +0.000 HD
ATOM     25  H   UNL     1      48.760   3.774  20.433  0.00  0.00    +0.000 HD
ENDBRANCH  15  22
ENDBRANCH  14  18
ENDBRANCH   1  14
TORSDOF 5
ENDMDL
MODEL 8
REMARK VINA RESULT:    -6.649      4.714      7.300
REMARK INTER + INTRA:          -9.264
REMARK INTER:                  -8.716
REMARK INTRA:                  -0.548
REMARK UNBOUND:                -0.671
REMARK  Name = 
REMARK  5 active torsions:
REMARK  status: ('A' for Active; 'I' for Inactive)
REMARK    1  A    between atoms: C_2  and  C_4
REMARK    2  A    between atoms: C_7  and  O_8
REMARK    3  A    between atoms: O_8  and  C_9
REMARK    4  A    between atoms: C_9  and  C_10
REMARK    5  A    between atoms: C_14  and  C_15
REMARK                            x       y       z     vdW  Elec       q    Type
REMARK                         _______ _______ _______ _____ _____    ______ ____
ROOT
ATOM      1  C   UNL     1      48.661   7.150  14.840  0.00  0.00    +0.000 C 
ENDROOT
BRANCH   1   2
ATOM      2  C   UNL     1      49.025   6.630  16.213  0.00  0.00    +0.000 A 
ATOM      3  N   UNL     1      48.673   7.375  17.279  0.00  0.00    +0.000 NA
ATOM      4  C   UNL     1      48.997   6.884  18.485  0.00  0.00    +0.000 A 
ATOM      5  C   UNL     1      49.654   5.689  18.665  0.00  0.00    +0.000 A 
ATOM      6  C   UNL     1      49.986   4.984  17.523  0.00  0.00    +0.000 A 
ATOM      7  N   UNL     1      49.687   5.456  16.291  0.00  0.00    +0.000 NA
BRANCH   6   8
ATOM      8  C   UNL     1      50.695   3.693  17.564  0.00  0.00    +0.000 A 
ATOM      9  C   UNL     1      51.999   3.554  18.061  0.00  0.00    +0.000 A 
ATOM     10  C   UNL     1      52.636   2.312  18.055  0.00  0.00    +0.000 A 
ATOM     11  C   UNL     1      51.948   1.224  17.552  0.00  0.00    +0.000 A 
ATOM     12  N   UNL     1      50.691   1.297  17.074  0.00  0.00    +0.000 NA
ATOM     13  C   UNL     1      50.097   2.519  17.100  0.00  0.00    +0.000 A 
ENDBRANCH   6   8
ENDBRANCH   1   2
BRANCH   1  14
ATOM     14  O   UNL     1      48.559   6.057  13.922  0.00  0.00    +0.000 OA
BRANCH  14  18
ATOM     15  C   UNL     1      44.933   5.633  11.903  0.00  0.00    +0.000 A 
ATOM     16  C   UNL     1      45.109   4.944  13.108  0.00  0.00    +0.000 A 
ATOM     17  C   UNL     1      46.310   5.059  13.817  0.00  0.00    +0.000 A 
ATOM     18  C   UNL     1      47.343   5.860  13.328  0.00  0.00    +0.000 A 
ATOM     19  C   UNL     1      47.168   6.538  12.118  0.00  0.00    +0.000 A 
ATOM     20  C   UNL     1      45.972   6.422  11.403  0.00  0.00    +0.000 A 
BRANCH  15  22
ATOM     21  N   UNL     1      42.765   6.539  11.266  0.00  0.00    +0.000 N 
ATOM     22  C   UNL     1      43.675   5.529  11.119  0.00  0.00    +0.000 C 
ATOM     23  O   UNL     1      43.471   4.602  10.347  0.00  0.00    +0.000 OA
ATOM     24  H   UNL     1      41.967   6.511  10.644  0.00  0.00    +0.000 HD
ATOM     25  H   UNL     1      43.009   7.430  11.673  0.00  0.00    +0.000 HD
ENDBRANCH  15  22
ENDBRANCH  14  18
ENDBRANCH   1  14
TORSDOF 5
ENDMDL
MODEL 9
REMARK VINA RESULT:    -6.616      5.481      8.385
REMARK INTER + INTRA:          -9.221
REMARK INTER:                  -8.732
REMARK INTRA:                  -0.489
REMARK UNBOUND:                -0.671
REMARK  Name = 
REMARK  5 active torsions:
REMARK  status: ('A' for Active; 'I' for Inactive)
REMARK    1  A    between atoms: C_2  and  C_4
REMARK    2  A    between atoms: C_7  and  O_8
REMARK    3  A    between atoms: O_8  and  C_9
REMARK    4  A    between atoms: C_9  and  C_10
REMARK    5  A    between atoms: C_14  and  C_15
REMARK                            x       y       z     vdW  Elec       q    Type
REMARK                         _______ _______ _______ _____ _____    ______ ____
ROOT
ATOM      1  C   UNL     1      47.775   3.835  16.833  0.00  0.00    +0.000 C 
ENDROOT
BRANCH   1   2
ATOM      2  C   UNL     1      47.529   4.674  15.598  0.00  0.00    +0.000 A 
ATOM      3  N   UNL     1      48.369   5.700  15.359  0.00  0.00    +0.000 NA
ATOM      4  C   UNL     1      48.134   6.418  14.251  0.00  0.00    +0.000 A 
ATOM      5  C   UNL     1      47.103   6.155  13.380  0.00  0.00    +0.000 A 
ATOM      6  C   UNL     1      46.281   5.088  13.695  0.00  0.00    +0.000 A 
ATOM      7  N   UNL     1      46.480   4.351  14.811  0.00  0.00    +0.000 NA
BRANCH   6   8
ATOM      8  C   UNL     1      45.135   4.693  12.857  0.00  0.00    +0.000 A 
ATOM      9  C   UNL     1      43.967   5.463  12.749  0.00  0.00    +0.000 A 
ATOM     10  C   UNL     1      42.900   5.033  11.961  0.00  0.00    +0.000 A 
ATOM     11  C   UNL     1      43.023   3.833  11.287  0.00  0.00    +0.000 A 
ATOM     12  N   UNL     1      44.125   3.059  11.344  0.00  0.00    +0.000 NA
ATOM     13  C   UNL     1      45.149   3.510  12.115  0.00  0.00    +0.000 A 
ENDBRANCH   6   8
ENDBRANCH   1   2
BRANCH   1  14
ATOM     14  O   UNL     1      48.841   4.405  17.598  0.00  0.00    +0.000 OA
BRANCH  14  18
ATOM     15  C   UNL     1      52.248   1.999  17.708  0.00  0.00    +0.000 A 
ATOM     16  C   UNL     1      52.379   3.354  18.029  0.00  0.00    +0.000 A 
ATOM     17  C   UNL     1      51.261   4.196  18.005  0.00  0.00    +0.000 A 
ATOM     18  C   UNL     1      50.007   3.692  17.659  0.00  0.00    +0.000 A 
ATOM     19  C   UNL     1      49.882   2.339  17.329  0.00  0.00    +0.000 A 
ATOM     20  C   UNL     1      50.995   1.495  17.346  0.00  0.00    +0.000 A 
BRANCH  15  22
ATOM     21  N   UNL     1      53.197  -0.195  18.173  0.00  0.00    +0.000 N 
ATOM     22  C   UNL     1      53.412   1.077  17.717  0.00  0.00    +0.000 C 
ATOM     23  O   UNL     1      54.511   1.421  17.302  0.00  0.00    +0.000 OA
ATOM     24  H   UNL     1      53.969  -0.840  18.067  0.00  0.00    +0.000 HD
ATOM     25  H   UNL     1      52.271  -0.585  18.264  0.00  0.00    +0.000 HD
ENDBRANCH  15  22
ENDBRANCH  14  18
ENDBRANCH   1  14
TORSDOF 5
ENDMDL
