MODEL 1
REMARK VINA RESULT:    -8.696      0.000      0.000
REMARK INTER + INTRA:         -12.317
REMARK INTER:                 -11.746
REMARK INTRA:                  -0.572
REMARK UNBOUND:                -0.572
REMARK  Name = 
REMARK  8 active torsions:
REMARK  status: ('A' for Active; 'I' for Inactive)
REMARK    1  A    between atoms: C_1  and  C_2
REMARK    2  A    between atoms: C_2  and  C_3
REMARK    3  A    between atoms: C_2  and  C_4
REMARK    4  A    between atoms: C_2  and  C_19
REMARK    5  A    between atoms: C_4  and  N_5
REMARK    6  A    between atoms: C_10  and  O_11
REMARK    7  A    between atoms: O_11  and  C_12
REMARK    8  A    between atoms: C_22  and  C_23
REMARK                            x       y       z     vdW  Elec       q    Type
REMARK                         _______ _______ _______ _____ _____    ______ ____
ROOT
ATOM      1  C   UNL     1      45.242   4.532  12.110  0.00  0.00    +0.000 C 
ENDROOT
BRANCH   1   2
ATOM      2  N   UNL     1      46.060   5.633  11.632  0.00  0.00    +0.000 N 
ATOM      3  C   UNL     1      46.830   6.236  12.615  0.00  0.00    +0.000 A 
ATOM      4  N   UNL     1      47.063   7.542  12.446  0.00  0.00    +0.000 NA
ATOM      5  C   UNL     1      47.802   8.158  13.384  0.00  0.00    +0.000 A 
ATOM      6  C   UNL     1      48.304   7.518  14.482  0.00  0.00    +0.000 A 
ATOM      7  C   UNL     1      47.999   6.181  14.569  0.00  0.00    +0.000 A 
ATOM      8  N   UNL     1      47.266   5.522  13.662  0.00  0.00    +0.000 NA
ATOM      9  H   UNL     1      45.568   6.387  11.160  0.00  0.00    +0.000 HD
BRANCH   7  10
ATOM     10  O   UNL     1      48.523   5.464  15.630  0.00  0.00    +0.000 OA
BRANCH  10  11
ATOM     11  C   UNL     1      47.723   4.364  16.129  0.00  0.00    +0.000 C 
ATOM     12  C   UNL     1      47.300   4.519  17.606  0.00  0.00    +0.000 C 
ATOM     13  C   UNL     1      47.620   3.034  17.836  0.00  0.00    +0.000 C 
ATOM     14  F   UNL     1      48.334   2.759  18.950  0.00  0.00    +0.000 F 
ATOM     15  F   UNL     1      46.543   2.214  17.856  0.00  0.00    +0.000 F 
ATOM     16  C   UNL     1      48.417   3.041  16.522  0.00  0.00    +0.000 C 
ENDBRANCH  10  11
ENDBRANCH   7  10
ENDBRANCH   1   2
BRANCH   1  18
ATOM     17  C   UNL     1      43.428   2.856  11.611  0.00  0.00    +0.000 C 
ATOM     18  C   UNL     1      44.273   4.007  11.010  0.00  0.00    +0.000 C 
ATOM     19  C   UNL     1      43.298   5.161  10.667  0.00  0.00    +0.000 C 
BRANCH  18  20
ATOM     20  C   UNL     1      45.018   3.587   9.733  0.00  0.00    +0.000 A 
ATOM     21  C   UNL     1      45.490   4.513   8.792  0.00  0.00    +0.000 A 
ATOM     22  C   UNL     1      46.210   4.099   7.676  0.00  0.00    +0.000 A 
ATOM     23  C   UNL     1      46.440   2.742   7.522  0.00  0.00    +0.000 A 
ATOM     24  N   UNL     1      45.987   1.794   8.385  0.00  0.00    +0.000 NA
ATOM     25  C   UNL     1      45.294   2.240   9.461  0.00  0.00    +0.000 A 
BRANCH  23  26
ATOM     26  C   UNL     1      47.250   2.264   6.353  0.00  0.00    +0.000 C 
ATOM     27  N   UNL     1      47.190   3.056   5.240  0.00  0.00    +0.000 N 
ATOM     28  O   UNL     1      47.914   1.231   6.380  0.00  0.00    +0.000 OA
ATOM     29  H   UNL     1      46.612   3.887   5.250  0.00  0.00    +0.000 HD
ATOM     30  H   UNL     1      47.682   2.776   4.405  0.00  0.00    +0.000 HD
ENDBRANCH  23  26
ENDBRANCH  18  20
ENDBRANCH   1  18
TORSDOF 6
ENDMDL
MODEL 2
REMARK VINA RESULT:    -8.161      3.796      8.030
REMARK INTER + INTRA:         -11.595
REMARK INTER:                 -10.975
REMARK INTRA:                  -0.620
REMARK UNBOUND:                -0.572
REMARK  Name = 
REMARK  8 active torsions:
REMARK  status: ('A' for Active; 'I' for Inactive)
REMARK    1  A    between atoms: C_1  and  C_2
REMARK    2  A    between atoms: C_2  and  C_3
REMARK    3  A    between atoms: C_2  and  C_4
REMARK    4  A    between atoms: C_2  and  C_19
REMARK    5  A    between atoms: C_4  and  N_5
REMARK    6  A    between atoms: C_10  and  O_11
REMARK    7  A    between atoms: O_11  and  C_12
REMARK    8  A    between atoms: C_22  and  C_23
REMARK                            x       y       z     vdW  Elec       q    Type
REMARK                         _______ _______ _______ _____ _____    ______ ____
ROOT
ATOM      1  C   UNL     1      46.961   6.915  12.207  0.00  0.00    +0.000 C 
ENDROOT
BRANCH   1   2
ATOM      2  N   UNL     1      45.617   6.829  12.752  0.00  0.00    +0.000 N 
ATOM      3  C   UNL     1      44.794   5.931  12.091  0.00  0.00    +0.000 A 
ATOM      4  N   UNL     1      43.494   6.244  12.072  0.00  0.00    +0.000 NA
ATOM      5  C   UNL     1      42.670   5.396  11.435  0.00  0.00    +0.000 A 
ATOM      6  C   UNL     1      43.100   4.258  10.813  0.00  0.00    +0.000 A 
ATOM      7  C   UNL     1      44.453   4.031  10.881  0.00  0.00    +0.000 A 
ATOM      8  N   UNL     1      45.316   4.846  11.501  0.00  0.00    +0.000 NA
ATOM      9  H   UNL     1      45.096   7.701  12.803  0.00  0.00    +0.000 HD
BRANCH   7  10
ATOM     10  O   UNL     1      44.945   2.867  10.317  0.00  0.00    +0.000 OA
BRANCH  10  11
ATOM     11  C   UNL     1      45.033   2.832   8.872  0.00  0.00    +0.000 C 
ATOM     12  C   UNL     1      46.054   1.807   8.333  0.00  0.00    +0.000 C 
ATOM     13  C   UNL     1      46.527   2.845   7.303  0.00  0.00    +0.000 C 
ATOM     14  F   UNL     1      47.866   2.976   7.183  0.00  0.00    +0.000 F 
ATOM     15  F   UNL     1      46.042   2.671   6.052  0.00  0.00    +0.000 F 
ATOM     16  C   UNL     1      45.826   3.932   8.135  0.00  0.00    +0.000 C 
ENDBRANCH  10  11
ENDBRANCH   7  10
ENDBRANCH   1   2
BRANCH   1  18
ATOM     17  C   UNL     1      49.402   7.372  12.634  0.00  0.00    +0.000 C 
ATOM     18  C   UNL     1      48.017   7.218  13.311  0.00  0.00    +0.000 C 
ATOM     19  C   UNL     1      47.654   8.591  13.930  0.00  0.00    +0.000 C 
BRANCH  18  20
ATOM     20  C   UNL     1      48.019   6.154  14.421  0.00  0.00    +0.000 A 
ATOM     21  C   UNL     1      48.551   6.391  15.696  0.00  0.00    +0.000 A 
ATOM     22  C   UNL     1      48.484   5.423  16.693  0.00  0.00    +0.000 A 
ATOM     23  C   UNL     1      47.879   4.217  16.383  0.00  0.00    +0.000 A 
ATOM     24  N   UNL     1      47.367   3.919  15.160  0.00  0.00    +0.000 NA
ATOM     25  C   UNL     1      47.450   4.890  14.218  0.00  0.00    +0.000 A 
BRANCH  23  26
ATOM     26  C   UNL     1      47.750   3.168  17.447  0.00  0.00    +0.000 C 
ATOM     27  N   UNL     1      48.901   2.886  18.131  0.00  0.00    +0.000 N 
ATOM     28  O   UNL     1      46.694   2.588  17.688  0.00  0.00    +0.000 OA
ATOM     29  H   UNL     1      49.756   3.369  17.886  0.00  0.00    +0.000 HD
ATOM     30  H   UNL     1      48.895   2.165  18.837  0.00  0.00    +0.000 HD
ENDBRANCH  23  26
ENDBRANCH  18  20
ENDBRANCH   1  18
TORSDOF 6
ENDMDL
MODEL 3
REMARK VINA RESULT:    -7.601      3.112      4.247
REMARK INTER + INTRA:         -10.839
REMARK INTER:                  -9.964
REMARK INTRA:                  -0.875
REMARK UNBOUND:                -0.572
REMARK  Name = 
REMARK  8 active torsions:
REMARK  status: ('A' for Active; 'I' for Inactive)
REMARK    1  A    between atoms: C_1  and  C_2
REMARK    2  A    between atoms: C_2  and  C_3
REMARK    3  A    between atoms: C_2  and  C_4
REMARK    4  A    between atoms: C_2  and  C_19
REMARK    5  A    between atoms: C_4  and  N_5
REMARK    6  A    between atoms: C_10  and  O_11
REMARK    7  A    between atoms: O_11  and  C_12
REMARK    8  A    between atoms: C_22  and  C_23
REMARK                            x       y       z     vdW  Elec       q    Type
REMARK                         _______ _______ _______ _____ _____    ______ ____
ROOT
ATOM      1  C   UNL     1      45.367   4.938  12.146  0.00  0.00    +0.000 C 
ENDROOT
BRANCH   1   2
ATOM      2  N   UNL     1      45.260   4.467  13.516  0.00  0.00    +0.000 N 
ATOM      3  C   UNL     1      46.344   4.797  14.315  0.00  0.00    +0.000 A 
ATOM      4  N   UNL     1      46.634   3.923  15.285  0.00  0.00    +0.000 NA
ATOM      5  C   UNL     1      47.683   4.211  16.074  0.00  0.00    +0.000 A 
ATOM      6  C   UNL     1      48.452   5.329  15.920  0.00  0.00    +0.000 A 
ATOM      7  C   UNL     1      48.078   6.158  14.889  0.00  0.00    +0.000 A 
ATOM      8  N   UNL     1      47.044   5.915  14.075  0.00  0.00    +0.000 NA
ATOM      9  H   UNL     1      45.115   3.469  13.639  0.00  0.00    +0.000 HD
BRANCH   7  10
ATOM     10  O   UNL     1      48.784   7.335  14.714  0.00  0.00    +0.000 OA
BRANCH  10  11
ATOM     11  C   UNL     1      48.520   8.077  13.499  0.00  0.00    +0.000 C 
ATOM     12  C   UNL     1      49.615   7.923  12.422  0.00  0.00    +0.000 C 
ATOM     13  C   UNL     1      49.521   9.429  12.134  0.00  0.00    +0.000 C 
ATOM     14  F   UNL     1      50.703  10.078  12.037  0.00  0.00    +0.000 F 
ATOM     15  F   UNL     1      48.809   9.757  11.031  0.00  0.00    +0.000 F 
ATOM     16  C   UNL     1      48.779   9.599  13.470  0.00  0.00    +0.000 C 
ENDBRANCH  10  11
ENDBRANCH   7  10
ENDBRANCH   1   2
BRANCH   1  18
ATOM     17  C   UNL     1      43.890   2.908  11.931  0.00  0.00    +0.000 C 
ATOM     18  C   UNL     1      44.412   4.164  11.189  0.00  0.00    +0.000 C 
ATOM     19  C   UNL     1      43.191   5.078  10.919  0.00  0.00    +0.000 C 
BRANCH  18  20
ATOM     20  C   UNL     1      45.085   3.820   9.850  0.00  0.00    +0.000 A 
ATOM     21  C   UNL     1      45.614   4.798   8.995  0.00  0.00    +0.000 A 
ATOM     22  C   UNL     1      46.266   4.446   7.818  0.00  0.00    +0.000 A 
ATOM     23  C   UNL     1      46.372   3.098   7.517  0.00  0.00    +0.000 A 
ATOM     24  N   UNL     1      45.859   2.106   8.292  0.00  0.00    +0.000 NA
ATOM     25  C   UNL     1      45.235   2.492   9.431  0.00  0.00    +0.000 A 
BRANCH  23  26
ATOM     26  C   UNL     1      47.107   2.681   6.278  0.00  0.00    +0.000 C 
ATOM     27  N   UNL     1      48.436   2.410   6.452  0.00  0.00    +0.000 N 
ATOM     28  O   UNL     1      46.566   2.595   5.178  0.00  0.00    +0.000 OA
ATOM     29  H   UNL     1      48.850   2.515   7.369  0.00  0.00    +0.000 HD
ATOM     30  H   UNL     1      49.000   2.157   5.654  0.00  0.00    +0.000 HD
ENDBRANCH  23  26
ENDBRANCH  18  20
ENDBRANCH   1  18
TORSDOF 6
ENDMDL
MODEL 4
REMARK VINA RESULT:    -7.486      4.043      8.122
REMARK INTER + INTRA:         -10.684
REMARK INTER:                  -9.864
REMARK INTRA:                  -0.820
REMARK UNBOUND:                -0.572
REMARK  Name = 
REMARK  8 active torsions:
REMARK  status: ('A' for Active; 'I' for Inactive)
REMARK    1  A    between atoms: C_1  and  C_2
REMARK    2  A    between atoms: C_2  and  C_3
REMARK    3  A    between atoms: C_2  and  C_4
REMARK    4  A    between atoms: C_2  and  C_19
REMARK    5  A    between atoms: C_4  and  N_5
REMARK    6  A    between atoms: C_10  and  O_11
REMARK    7  A    between atoms: O_11  and  C_12
REMARK    8  A    between atoms: C_22  and  C_23
REMARK                            x       y       z     vdW  Elec       q    Type
REMARK                         _______ _______ _______ _____ _____    ______ ____
ROOT
ATOM      1  C   UNL     1      47.536   4.409  15.829  0.00  0.00    +0.000 C 
ENDROOT
BRANCH   1   2
ATOM      2  N   UNL     1      48.154   5.668  15.448  0.00  0.00    +0.000 N 
ATOM      3  C   UNL     1      47.841   6.088  14.164  0.00  0.00    +0.000 A 
ATOM      4  N   UNL     1      48.791   6.790  13.538  0.00  0.00    +0.000 NA
ATOM      5  C   UNL     1      48.521   7.207  12.290  0.00  0.00    +0.000 A 
ATOM      6  C   UNL     1      47.344   6.940  11.649  0.00  0.00    +0.000 A 
ATOM      7  C   UNL     1      46.438   6.204  12.374  0.00  0.00    +0.000 A 
ATOM      8  N   UNL     1      46.661   5.763  13.618  0.00  0.00    +0.000 NA
ATOM      9  H   UNL     1      49.167   5.710  15.517  0.00  0.00    +0.000 HD
BRANCH   7  10
ATOM     10  O   UNL     1      45.206   5.945  11.800  0.00  0.00    +0.000 OA
BRANCH  10  11
ATOM     11  C   UNL     1      45.105   4.750  10.988  0.00  0.00    +0.000 C 
ATOM     12  C   UNL     1      43.673   4.448  10.496  0.00  0.00    +0.000 C 
ATOM     13  C   UNL     1      43.893   2.962  10.818  0.00  0.00    +0.000 C 
ATOM     14  F   UNL     1      42.886   2.355  11.483  0.00  0.00    +0.000 F 
ATOM     15  F   UNL     1      44.175   2.182   9.749  0.00  0.00    +0.000 F 
ATOM     16  C   UNL     1      45.104   3.367  11.674  0.00  0.00    +0.000 C 
ENDBRANCH  10  11
ENDBRANCH   7  10
ENDBRANCH   1   2
BRANCH   1  18
ATOM     17  C   UNL     1      47.790   5.223  18.200  0.00  0.00    +0.000 C 
ATOM     18  C   UNL     1      47.924   3.986  17.277  0.00  0.00    +0.000 C 
ATOM     19  C   UNL     1      46.876   2.946  17.748  0.00  0.00    +0.000 C 
BRANCH  18  20
ATOM     20  C   UNL     1      49.322   3.351  17.341  0.00  0.00    +0.000 A 
ATOM     21  C   UNL     1      50.444   4.037  17.829  0.00  0.00    +0.000 A 
ATOM     22  C   UNL     1      51.683   3.410  17.924  0.00  0.00    +0.000 A 
ATOM     23  C   UNL     1      51.772   2.089  17.519  0.00  0.00    +0.000 A 
ATOM     24  N   UNL     1      50.728   1.379  17.015  0.00  0.00    +0.000 NA
ATOM     25  C   UNL     1      49.539   2.025  16.941  0.00  0.00    +0.000 A 
BRANCH  23  26
ATOM     26  C   UNL     1      53.082   1.370  17.649  0.00  0.00    +0.000 C 
ATOM     27  N   UNL     1      52.995   0.075  18.079  0.00  0.00    +0.000 N 
ATOM     28  O   UNL     1      54.162   1.901  17.401  0.00  0.00    +0.000 OA
ATOM     29  H   UNL     1      52.088  -0.319  18.295  0.00  0.00    +0.000 HD
ATOM     30  H   UNL     1      53.840  -0.458  18.223  0.00  0.00    +0.000 HD
ENDBRANCH  23  26
ENDBRANCH  18  20
ENDBRANCH   1  18
TORSDOF 6
ENDMDL
MODEL 5
REMARK VINA RESULT:    -7.475      4.057      8.842
REMARK INTER + INTRA:         -10.668
REMARK INTER:                  -9.798
REMARK INTRA:                  -0.870
REMARK UNBOUND:                -0.572
REMARK  Name = 
REMARK  8 active torsions:
REMARK  status: ('A' for Active; 'I' for Inactive)
REMARK    1  A    between atoms: C_1  and  C_2
REMARK    2  A    between atoms: C_2  and  C_3
REMARK    3  A    between atoms: C_2  and  C_4
REMARK    4  A    between atoms: C_2  and  C_19
REMARK    5  A    between atoms: C_4  and  N_5
REMARK    6  A    between atoms: C_10  and  O_11
REMARK    7  A    between atoms: O_11  and  C_12
REMARK    8  A    between atoms: C_22  and  C_23
REMARK                            x       y       z     vdW  Elec       q    Type
REMARK                         _______ _______ _______ _____ _____    ______ ____
ROOT
ATOM      1  C   UNL     1      47.328   5.896  13.093  0.00  0.00    +0.000 C 
ENDROOT
BRANCH   1   2
ATOM      2  N   UNL     1      45.977   5.871  13.627  0.00  0.00    +0.000 N 
ATOM      3  C   UNL     1      45.058   5.225  12.814  0.00  0.00    +0.000 A 
ATOM      4  N   UNL     1      43.807   5.694  12.871  0.00  0.00    +0.000 NA
ATOM      5  C   UNL     1      42.893   5.092  12.091  0.00  0.00    +0.000 A 
ATOM      6  C   UNL     1      43.188   4.052  11.256  0.00  0.00    +0.000 A 
ATOM      7  C   UNL     1      44.502   3.652  11.263  0.00  0.00    +0.000 A 
ATOM      8  N   UNL     1      45.450   4.220  12.019  0.00  0.00    +0.000 NA
ATOM      9  H   UNL     1      45.565   6.773  13.851  0.00  0.00    +0.000 HD
BRANCH   7  10
ATOM     10  O   UNL     1      44.855   2.568  10.479  0.00  0.00    +0.000 OA
BRANCH  10  11
ATOM     11  C   UNL     1      44.879   2.783   9.046  0.00  0.00    +0.000 C 
ATOM     12  C   UNL     1      45.938   1.939   8.306  0.00  0.00    +0.000 C 
ATOM     13  C   UNL     1      46.296   3.166   7.453  0.00  0.00    +0.000 C 
ATOM     14  F   UNL     1      47.617   3.410   7.311  0.00  0.00    +0.000 F 
ATOM     15  F   UNL     1      45.767   3.171   6.208  0.00  0.00    +0.000 F 
ATOM     16  C   UNL     1      45.566   4.045   8.481  0.00  0.00    +0.000 C 
ENDBRANCH  10  11
ENDBRANCH   7  10
ENDBRANCH   1   2
BRANCH   1  18
ATOM     17  C   UNL     1      49.178   7.381  12.247  0.00  0.00    +0.000 C 
ATOM     18  C   UNL     1      47.979   7.304  13.224  0.00  0.00    +0.000 C 
ATOM     19  C   UNL     1      46.931   8.341  12.747  0.00  0.00    +0.000 C 
BRANCH  18  20
ATOM     20  C   UNL     1      48.378   7.628  14.673  0.00  0.00    +0.000 A 
ATOM     21  C   UNL     1      48.200   8.897  15.242  0.00  0.00    +0.000 A 
ATOM     22  C   UNL     1      48.521   9.138  16.574  0.00  0.00    +0.000 A 
ATOM     23  C   UNL     1      49.025   8.085  17.318  0.00  0.00    +0.000 A 
ATOM     24  N   UNL     1      49.243   6.839  16.817  0.00  0.00    +0.000 NA
ATOM     25  C   UNL     1      48.914   6.646  15.517  0.00  0.00    +0.000 A 
BRANCH  23  26
ATOM     26  C   UNL     1      49.340   8.298  18.769  0.00  0.00    +0.000 C 
ATOM     27  N   UNL     1      49.672   9.579  19.111  0.00  0.00    +0.000 N 
ATOM     28  O   UNL     1      49.315   7.390  19.597  0.00  0.00    +0.000 OA
ATOM     29  H   UNL     1      49.704  10.294  18.396  0.00  0.00    +0.000 HD
ATOM     30  H   UNL     1      49.930   9.787  20.065  0.00  0.00    +0.000 HD
ENDBRANCH  23  26
ENDBRANCH  18  20
ENDBRANCH   1  18
TORSDOF 6
ENDMDL
MODEL 6
REMARK VINA RESULT:    -7.291      3.052      4.756
REMARK INTER + INTRA:         -10.420
REMARK INTER:                  -9.343
REMARK INTRA:                  -1.077
REMARK UNBOUND:                -0.572
REMARK  Name = 
REMARK  8 active torsions:
REMARK  status: ('A' for Active; 'I' for Inactive)
REMARK    1  A    between atoms: C_1  and  C_2
REMARK    2  A    between atoms: C_2  and  C_3
REMARK    3  A    between atoms: C_2  and  C_4
REMARK    4  A    between atoms: C_2  and  C_19
REMARK    5  A    between atoms: C_4  and  N_5
REMARK    6  A    between atoms: C_10  and  O_11
REMARK    7  A    between atoms: O_11  and  C_12
REMARK    8  A    between atoms: C_22  and  C_23
REMARK                            x       y       z     vdW  Elec       q    Type
REMARK                         _______ _______ _______ _____ _____    ______ ____
ROOT
ATOM      1  C   UNL     1      48.716   7.269  14.155  0.00  0.00    +0.000 C 
ENDROOT
BRANCH   1   2
ATOM      2  N   UNL     1      48.793   8.460  14.983  0.00  0.00    +0.000 N 
ATOM      3  C   UNL     1      48.624   8.221  16.338  0.00  0.00    +0.000 A 
ATOM      4  N   UNL     1      48.053   9.211  17.032  0.00  0.00    +0.000 NA
ATOM      5  C   UNL     1      47.870   9.009  18.348  0.00  0.00    +0.000 A 
ATOM      6  C   UNL     1      48.229   7.855  18.986  0.00  0.00    +0.000 A 
ATOM      7  C   UNL     1      48.798   6.897  18.183  0.00  0.00    +0.000 A 
ATOM      8  N   UNL     1      49.000   7.049  16.868  0.00  0.00    +0.000 NA
ATOM      9  H   UNL     1      48.151   9.213  14.749  0.00  0.00    +0.000 HD
BRANCH   7  10
ATOM     10  O   UNL     1      49.233   5.726  18.778  0.00  0.00    +0.000 OA
BRANCH  10  11
ATOM     11  C   UNL     1      48.338   4.589  18.706  0.00  0.00    +0.000 C 
ATOM     12  C   UNL     1      48.904   3.399  17.902  0.00  0.00    +0.000 C 
ATOM     13  C   UNL     1      47.528   3.211  17.244  0.00  0.00    +0.000 C 
ATOM     14  F   UNL     1      47.544   3.031  15.905  0.00  0.00    +0.000 F 
ATOM     15  F   UNL     1      46.781   2.207  17.759  0.00  0.00    +0.000 F 
ATOM     16  C   UNL     1      47.150   4.623  17.720  0.00  0.00    +0.000 C 
ENDBRANCH  10  11
ENDBRANCH   7  10
ENDBRANCH   1   2
BRANCH   1  18
ATOM     17  C   UNL     1      47.164   8.875  12.989  0.00  0.00    +0.000 C 
ATOM     18  C   UNL     1      47.897   7.516  12.854  0.00  0.00    +0.000 C 
ATOM     19  C   UNL     1      48.911   7.655  11.691  0.00  0.00    +0.000 C 
BRANCH  18  20
ATOM     20  C   UNL     1      46.936   6.357  12.543  0.00  0.00    +0.000 A 
ATOM     21  C   UNL     1      46.610   5.370  13.485  0.00  0.00    +0.000 A 
ATOM     22  C   UNL     1      45.692   4.368  13.186  0.00  0.00    +0.000 A 
ATOM     23  C   UNL     1      45.116   4.374  11.927  0.00  0.00    +0.000 A 
ATOM     24  N   UNL     1      45.409   5.288  10.964  0.00  0.00    +0.000 NA
ATOM     25  C   UNL     1      46.305   6.249  11.297  0.00  0.00    +0.000 A 
BRANCH  23  26
ATOM     26  C   UNL     1      44.090   3.334  11.586  0.00  0.00    +0.000 C 
ATOM     27  N   UNL     1      43.874   2.390  12.551  0.00  0.00    +0.000 N 
ATOM     28  O   UNL     1      43.488   3.317  10.515  0.00  0.00    +0.000 OA
ATOM     29  H   UNL     1      44.407   2.425  13.411  0.00  0.00    +0.000 HD
ATOM     30  H   UNL     1      43.223   1.639  12.375  0.00  0.00    +0.000 HD
ENDBRANCH  23  26
ENDBRANCH  18  20
ENDBRANCH   1  18
TORSDOF 6
ENDMDL
MODEL 7
REMARK VINA RESULT:    -7.236      3.986      5.045
REMARK INTER + INTRA:         -10.346
REMARK INTER:                  -9.488
REMARK INTRA:                  -0.858
REMARK UNBOUND:                -0.572
REMARK  Name = 
REMARK  8 active torsions:
REMARK  status: ('A' for Active; 'I' for Inactive)
REMARK    1  A    between atoms: C_1  and  C_2
REMARK    2  A    between atoms: C_2  and  C_3
REMARK    3  A    between atoms: C_2  and  C_4
REMARK    4  A    between atoms: C_2  and  C_19
REMARK    5  A    between atoms: C_4  and  N_5
REMARK    6  A    between atoms: C_10  and  O_11
REMARK    7  A    between atoms: O_11  and  C_12
REMARK    8  A    between atoms: C_22  and  C_23
REMARK                            x       y       z     vdW  Elec       q    Type
REMARK                         _______ _______ _______ _____ _____    ______ ____
ROOT
ATOM      1  C   UNL     1      45.130   6.059  11.204  0.00  0.00    +0.000 C 
ENDROOT
BRANCH   1   2
ATOM      2  N   UNL     1      45.447   6.294  12.603  0.00  0.00    +0.000 N 
ATOM      3  C   UNL     1      46.767   6.653  12.832  0.00  0.00    +0.000 A 
ATOM      4  N   UNL     1      47.275   6.262  14.005  0.00  0.00    +0.000 NA
ATOM      5  C   UNL     1      48.554   6.589  14.257  0.00  0.00    +0.000 A 
ATOM      6  C   UNL     1      49.338   7.281  13.377  0.00  0.00    +0.000 A 
ATOM      7  C   UNL     1      48.725   7.628  12.197  0.00  0.00    +0.000 A 
ATOM      8  N   UNL     1      47.455   7.323  11.898  0.00  0.00    +0.000 NA
ATOM      9  H   UNL     1      45.250   5.530  13.244  0.00  0.00    +0.000 HD
BRANCH   7  10
ATOM     10  O   UNL     1      49.448   8.377  11.286  0.00  0.00    +0.000 OA
BRANCH  10  11
ATOM     11  C   UNL     1      50.892   8.282  11.367  0.00  0.00    +0.000 C 
ATOM     12  C   UNL     1      51.632   9.492  10.759  0.00  0.00    +0.000 C 
ATOM     13  C   UNL     1      52.640   8.530  10.112  0.00  0.00    +0.000 C 
ATOM     14  F   UNL     1      52.928   8.776   8.815  0.00  0.00    +0.000 F 
ATOM     15  F   UNL     1      53.825   8.424  10.756  0.00  0.00    +0.000 F 
ATOM     16  C   UNL     1      51.648   7.383  10.365  0.00  0.00    +0.000 C 
ENDBRANCH  10  11
ENDBRANCH   7  10
ENDBRANCH   1   2
BRANCH   1  18
ATOM     17  C   UNL     1      44.727   3.815  12.276  0.00  0.00    +0.000 C 
ATOM     18  C   UNL     1      44.555   4.631  10.971  0.00  0.00    +0.000 C 
ATOM     19  C   UNL     1      43.034   4.783  10.722  0.00  0.00    +0.000 C 
BRANCH  18  20
ATOM     20  C   UNL     1      45.194   3.939   9.755  0.00  0.00    +0.000 A 
ATOM     21  C   UNL     1      45.775   4.652   8.697  0.00  0.00    +0.000 A 
ATOM     22  C   UNL     1      46.393   3.992   7.640  0.00  0.00    +0.000 A 
ATOM     23  C   UNL     1      46.413   2.608   7.666  0.00  0.00    +0.000 A 
ATOM     24  N   UNL     1      45.846   1.860   8.651  0.00  0.00    +0.000 NA
ATOM     25  C   UNL     1      45.257   2.543   9.662  0.00  0.00    +0.000 A 
BRANCH  23  26
ATOM     26  C   UNL     1      47.110   1.864   6.566  0.00  0.00    +0.000 C 
ATOM     27  N   UNL     1      47.733   2.649   5.635  0.00  0.00    +0.000 N 
ATOM     28  O   UNL     1      47.117   0.637   6.490  0.00  0.00    +0.000 OA
ATOM     29  H   UNL     1      47.684   3.656   5.720  0.00  0.00    +0.000 HD
ATOM     30  H   UNL     1      48.192   2.216   4.848  0.00  0.00    +0.000 HD
ENDBRANCH  23  26
ENDBRANCH  18  20
ENDBRANCH   1  18
TORSDOF 6
ENDMDL
MODEL 8
REMARK VINA RESULT:    -6.634      4.060      8.246
REMARK INTER + INTRA:          -9.533
REMARK INTER:                  -8.601
REMARK INTRA:                  -0.932
REMARK UNBOUND:                -0.572
REMARK  Name = 
REMARK  8 active torsions:
REMARK  status: ('A' for Active; 'I' for Inactive)
REMARK    1  A    between atoms: C_1  and  C_2
REMARK    2  A    between atoms: C_2  and  C_3
REMARK    3  A    between atoms: C_2  and  C_4
REMARK    4  A    between atoms: C_2  and  C_19
REMARK    5  A    between atoms: C_4  and  N_5
REMARK    6  A    between atoms: C_10  and  O_11
REMARK    7  A    between atoms: O_11  and  C_12
REMARK    8  A    between atoms: C_22  and  C_23
REMARK                            x       y       z     vdW  Elec       q    Type
REMARK                         _______ _______ _______ _____ _____    ______ ____
ROOT
ATOM      1  C   UNL     1      48.392   8.258  13.734  0.00  0.00    +0.000 C 
ENDROOT
BRANCH   1   2
ATOM      2  N   UNL     1      47.089   8.903  13.736  0.00  0.00    +0.000 N 
ATOM      3  C   UNL     1      46.171   8.328  12.871  0.00  0.00    +0.000 A 
ATOM      4  N   UNL     1      45.271   9.165  12.344  0.00  0.00    +0.000 NA
ATOM      5  C   UNL     1      44.370   8.640  11.498  0.00  0.00    +0.000 A 
ATOM      6  C   UNL     1      44.343   7.317  11.156  0.00  0.00    +0.000 A 
ATOM      7  C   UNL     1      45.315   6.543  11.744  0.00  0.00    +0.000 A 
ATOM      8  N   UNL     1      46.236   7.019  12.591  0.00  0.00    +0.000 NA
ATOM      9  H   UNL     1      47.080   9.899  13.532  0.00  0.00    +0.000 HD
BRANCH   7  10
ATOM     10  O   UNL     1      45.309   5.185  11.481  0.00  0.00    +0.000 OA
BRANCH  10  11
ATOM     11  C   UNL     1      44.809   4.776  10.184  0.00  0.00    +0.000 C 
ATOM     12  C   UNL     1      44.735   3.245   9.998  0.00  0.00    +0.000 C 
ATOM     13  C   UNL     1      45.299   3.407   8.578  0.00  0.00    +0.000 C 
ATOM     14  F   UNL     1      46.289   2.551   8.244  0.00  0.00    +0.000 F 
ATOM     15  F   UNL     1      44.380   3.339   7.587  0.00  0.00    +0.000 F 
ATOM     16  C   UNL     1      45.749   4.827   8.960  0.00  0.00    +0.000 C 
ENDBRANCH  10  11
ENDBRANCH   7  10
ENDBRANCH   1   2
BRANCH   1  18
ATOM     17  C   UNL     1      50.496   8.995  14.908  0.00  0.00    +0.000 C 
ATOM     18  C   UNL     1      49.096   8.366  15.118  0.00  0.00    +0.000 C 
ATOM     19  C   UNL     1      48.272   9.357  15.978  0.00  0.00    +0.000 C 
BRANCH  18  20
ATOM     20  C   UNL     1      49.161   7.012  15.843  0.00  0.00    +0.000 A 
ATOM     21  C   UNL     1      50.034   6.767  16.913  0.00  0.00    +0.000 A 
ATOM     22  C   UNL     1      50.026   5.547  17.582  0.00  0.00    +0.000 A 
ATOM     23  C   UNL     1      49.130   4.582  17.154  0.00  0.00    +0.000 A 
ATOM     24  N   UNL     1      48.277   4.750  16.108  0.00  0.00    +0.000 NA
ATOM     25  C   UNL     1      48.316   5.953  15.486  0.00  0.00    +0.000 A 
BRANCH  23  26
ATOM     26  C   UNL     1      49.064   3.271  17.880  0.00  0.00    +0.000 C 
ATOM     27  N   UNL     1      48.504   3.323  19.127  0.00  0.00    +0.000 N 
ATOM     28  O   UNL     1      49.489   2.221  17.403  0.00  0.00    +0.000 OA
ATOM     29  H   UNL     1      48.187   4.211  19.494  0.00  0.00    +0.000 HD
ATOM     30  H   UNL     1      48.459   2.484  19.686  0.00  0.00    +0.000 HD
ENDBRANCH  23  26
ENDBRANCH  18  20
ENDBRANCH   1  18
TORSDOF 6
ENDMDL
MODEL 9
REMARK VINA RESULT:    -6.620      3.276      4.910
REMARK INTER + INTRA:          -9.514
REMARK INTER:                  -8.655
REMARK INTRA:                  -0.858
REMARK UNBOUND:                -0.572
REMARK  Name = 
REMARK  8 active torsions:
REMARK  status: ('A' for Active; 'I' for Inactive)
REMARK    1  A    between atoms: C_1  and  C_2
REMARK    2  A    between atoms: C_2  and  C_3
REMARK    3  A    between atoms: C_2  and  C_4
REMARK    4  A    between atoms: C_2  and  C_19
REMARK    5  A    between atoms: C_4  and  N_5
REMARK    6  A    between atoms: C_10  and  O_11
REMARK    7  A    between atoms: O_11  and  C_12
REMARK    8  A    between atoms: C_22  and  C_23
REMARK                            x       y       z     vdW  Elec       q    Type
REMARK                         _______ _______ _______ _____ _____    ______ ____
ROOT
ATOM      1  C   UNL     1      48.230   8.029  14.178  0.00  0.00    +0.000 C 
ENDROOT
BRANCH   1   2
ATOM      2  N   UNL     1      49.666   7.811  14.132  0.00  0.00    +0.000 N 
ATOM      3  C   UNL     1      50.159   7.058  15.187  0.00  0.00    +0.000 A 
ATOM      4  N   UNL     1      51.406   7.349  15.572  0.00  0.00    +0.000 NA
ATOM      5  C   UNL     1      51.912   6.641  16.595  0.00  0.00    +0.000 A 
ATOM      6  C   UNL     1      51.214   5.664  17.248  0.00  0.00    +0.000 A 
ATOM      7  C   UNL     1      49.939   5.449  16.784  0.00  0.00    +0.000 A 
ATOM      8  N   UNL     1      49.389   6.129  15.770  0.00  0.00    +0.000 NA
ATOM      9  H   UNL     1      50.247   8.644  14.089  0.00  0.00    +0.000 HD
BRANCH   7  10
ATOM     10  O   UNL     1      49.198   4.436  17.369  0.00  0.00    +0.000 OA
BRANCH  10  11
ATOM     11  C   UNL     1      48.525   4.757  18.611  0.00  0.00    +0.000 C 
ATOM     12  C   UNL     1      47.097   5.312  18.421  0.00  0.00    +0.000 C 
ATOM     13  C   UNL     1      47.380   6.364  19.505  0.00  0.00    +0.000 C 
ATOM     14  F   UNL     1      47.000   7.625  19.204  0.00  0.00    +0.000 F 
ATOM     15  F   UNL     1      46.860   6.085  20.722  0.00  0.00    +0.000 F 
ATOM     16  C   UNL     1      48.880   6.067  19.347  0.00  0.00    +0.000 C 
ENDBRANCH  10  11
ENDBRANCH   7  10
ENDBRANCH   1   2
BRANCH   1  18
ATOM     17  C   UNL     1      46.818   9.346  12.560  0.00  0.00    +0.000 C 
ATOM     18  C   UNL     1      47.596   8.021  12.756  0.00  0.00    +0.000 C 
ATOM     19  C   UNL     1      48.760   8.017  11.733  0.00  0.00    +0.000 C 
BRANCH  18  20
ATOM     20  C   UNL     1      46.718   6.781  12.519  0.00  0.00    +0.000 A 
ATOM     21  C   UNL     1      45.919   6.626  11.377  0.00  0.00    +0.000 A 
ATOM     22  C   UNL     1      45.181   5.465  11.169  0.00  0.00    +0.000 A 
ATOM     23  C   UNL     1      45.258   4.471  12.129  0.00  0.00    +0.000 A 
ATOM     24  N   UNL     1      45.994   4.571  13.268  0.00  0.00    +0.000 NA
ATOM     25  C   UNL     1      46.700   5.717  13.430  0.00  0.00    +0.000 A 
BRANCH  23  26
ATOM     26  C   UNL     1      44.510   3.188  11.916  0.00  0.00    +0.000 C 
ATOM     27  N   UNL     1      44.752   2.563  10.724  0.00  0.00    +0.000 N 
ATOM     28  O   UNL     1      43.725   2.728  12.742  0.00  0.00    +0.000 OA
ATOM     29  H   UNL     1      45.388   2.986  10.060  0.00  0.00    +0.000 HD
ATOM     30  H   UNL     1      44.256   1.713  10.499  0.00  0.00    +0.000 HD
ENDBRANCH  23  26
ENDBRANCH  18  20
ENDBRANCH   1  18
TORSDOF 6
ENDMDL
