MODEL 1
REMARK VINA RESULT:    -7.881      0.000      0.000
REMARK INTER + INTRA:         -11.015
REMARK INTER:                 -10.415
REMARK INTRA:                  -0.600
REMARK UNBOUND:                -0.600
REMARK  Name = 
REMARK  6 active torsions:
REMARK  status: ('A' for Active; 'I' for Inactive)
REMARK    1  A    between atoms: C_2  and  O_3
REMARK    2  A    between atoms: C_2  and  C_4
REMARK    3  A    between atoms: C_4  and  C_5
REMARK    4  A    between atoms: C_5  and  C_6
REMARK    5  A    between atoms: C_9  and  C_10
REMARK    6  A    between atoms: C_10  and  N_11
REMARK                            x       y       z     vdW  Elec       q    Type
REMARK                         _______ _______ _______ _____ _____    ______ ____
ROOT
ATOM      1  C   UNL     1      45.216   3.498   8.483  0.00  0.00    +0.000 A 
ATOM      2  C   UNL     1      44.552   2.786   9.491  0.00  0.00    +0.000 A 
ATOM      3  C   UNL     1      44.343   3.358  10.753  0.00  0.00    +0.000 A 
ATOM      4  C   UNL     1      44.799   4.653  11.038  0.00  0.00    +0.000 A 
ATOM      5  C   UNL     1      45.449   5.369  10.024  0.00  0.00    +0.000 A 
ATOM      6  C   UNL     1      45.651   4.800   8.763  0.00  0.00    +0.000 A 
ENDROOT
BRANCH   1   7
ATOM      7  C   UNL     1      45.550   2.859   7.155  0.00  0.00    +0.000 C 
BRANCH   7   8
ATOM      8  C   UNL     1      46.986   3.082   6.684  0.00  0.00    +0.000 C 
BRANCH   8  10
ATOM      9  O   UNL     1      47.512   0.789   7.298  0.00  0.00    +0.000 OA
ATOM     10  C   UNL     1      47.725   1.768   6.600  0.00  0.00    +0.000 C 
BRANCH  10  11
ATOM     11  O   UNL     1      48.683   1.764   5.636  0.00  0.00    +0.000 OA
ATOM     12  H   UNL     1      48.915   2.657   5.313  0.00  0.00    +0.000 HD
ENDBRANCH  10  11
ENDBRANCH   8  10
ENDBRANCH   7   8
ENDBRANCH   1   7
BRANCH   4  13
ATOM     13  C   UNL     1      44.691   5.239  12.434  0.00  0.00    +0.000 C 
BRANCH  13  14
ATOM     14  N   UNL     1      45.956   5.089  13.147  0.00  0.00    +0.000 N 
ATOM     15  N   UNL     1      46.094   4.098  14.060  0.00  0.00    +0.000 NA
ATOM     16  C   UNL     1      47.075   4.547  14.848  0.00  0.00    +0.000 A 
ATOM     17  C   UNL     1      47.620   5.770  14.398  0.00  0.00    +0.000 A 
ATOM     18  C   UNL     1      48.574   6.689  14.866  0.00  0.00    +0.000 A 
ATOM     19  C   UNL     1      48.910   7.783  14.057  0.00  0.00    +0.000 A 
ATOM     20  C   UNL     1      48.338   7.933  12.795  0.00  0.00    +0.000 A 
ATOM     21 CL   UNL     1      48.843   9.235  11.786  0.00  0.00    +0.000 Cl
ATOM     22  C   UNL     1      47.351   7.059  12.331  0.00  0.00    +0.000 A 
ATOM     23  C   UNL     1      46.982   6.008  13.183  0.00  0.00    +0.000 A 
ENDBRANCH  13  14
ENDBRANCH   4  13
TORSDOF 6
ENDMDL
MODEL 2
REMARK VINA RESULT:    -7.766      2.052      2.930
REMARK INTER + INTRA:         -10.862
REMARK INTER:                 -10.040
REMARK INTRA:                  -0.823
REMARK UNBOUND:                -0.600
REMARK  Name = 
REMARK  6 active torsions:
REMARK  status: ('A' for Active; 'I' for Inactive)
REMARK    1  A    between atoms: C_2  and  O_3
REMARK    2  A    between atoms: C_2  and  C_4
REMARK    3  A    between atoms: C_4  and  C_5
REMARK    4  A    between atoms: C_5  and  C_6
REMARK    5  A    between atoms: C_9  and  C_10
REMARK    6  A    between atoms: C_10  and  N_11
REMARK                            x       y       z     vdW  Elec       q    Type
REMARK                         _______ _______ _______ _____ _____    ______ ____
ROOT
ATOM      1  C   UNL     1      45.394   2.551   8.748  0.00  0.00    +0.000 A 
ATOM      2  C   UNL     1      45.586   3.920   8.524  0.00  0.00    +0.000 A 
ATOM      3  C   UNL     1      44.936   4.874   9.321  0.00  0.00    +0.000 A 
ATOM      4  C   UNL     1      44.076   4.479  10.355  0.00  0.00    +0.000 A 
ATOM      5  C   UNL     1      43.898   3.109  10.586  0.00  0.00    +0.000 A 
ATOM      6  C   UNL     1      44.552   2.158   9.796  0.00  0.00    +0.000 A 
ENDROOT
BRANCH   1   7
ATOM      7  C   UNL     1      45.996   1.510   7.832  0.00  0.00    +0.000 C 
BRANCH   7   8
ATOM      8  C   UNL     1      47.447   1.775   7.433  0.00  0.00    +0.000 C 
BRANCH   8  10
ATOM      9  O   UNL     1      46.706   2.865   5.391  0.00  0.00    +0.000 OA
ATOM     10  C   UNL     1      47.530   2.187   5.983  0.00  0.00    +0.000 C 
BRANCH  10  11
ATOM     11  O   UNL     1      48.652   1.726   5.369  0.00  0.00    +0.000 OA
ATOM     12  H   UNL     1      49.383   2.374   5.356  0.00  0.00    +0.000 HD
ENDBRANCH  10  11
ENDBRANCH   8  10
ENDBRANCH   7   8
ENDBRANCH   1   7
BRANCH   4  13
ATOM     13  C   UNL     1      43.270   5.496  11.143  0.00  0.00    +0.000 C 
BRANCH  13  14
ATOM     14  N   UNL     1      44.157   6.466  11.777  0.00  0.00    +0.000 N 
ATOM     15  N   UNL     1      44.154   7.751  11.348  0.00  0.00    +0.000 NA
ATOM     16  C   UNL     1      45.358   8.197  11.719  0.00  0.00    +0.000 A 
ATOM     17  C   UNL     1      46.091   7.239  12.454  0.00  0.00    +0.000 A 
ATOM     18  C   UNL     1      47.384   7.149  12.997  0.00  0.00    +0.000 A 
ATOM     19  C   UNL     1      47.719   6.022  13.759  0.00  0.00    +0.000 A 
ATOM     20  C   UNL     1      46.772   5.028  14.007  0.00  0.00    +0.000 A 
ATOM     21 CL   UNL     1      47.185   3.703  15.028  0.00  0.00    +0.000 Cl
ATOM     22  C   UNL     1      45.498   5.074  13.436  0.00  0.00    +0.000 A 
ATOM     23  C   UNL     1      45.205   6.178  12.624  0.00  0.00    +0.000 A 
ENDBRANCH  13  14
ENDBRANCH   4  13
TORSDOF 6
ENDMDL
MODEL 3
REMARK VINA RESULT:    -6.996      3.793      7.009
REMARK INTER + INTRA:          -9.845
REMARK INTER:                  -9.675
REMARK INTRA:                  -0.170
REMARK UNBOUND:                -0.600
REMARK  Name = 
REMARK  6 active torsions:
REMARK  status: ('A' for Active; 'I' for Inactive)
REMARK    1  A    between atoms: C_2  and  O_3
REMARK    2  A    between atoms: C_2  and  C_4
REMARK    3  A    between atoms: C_4  and  C_5
REMARK    4  A    between atoms: C_5  and  C_6
REMARK    5  A    between atoms: C_9  and  C_10
REMARK    6  A    between atoms: C_10  and  N_11
REMARK                            x       y       z     vdW  Elec       q    Type
REMARK                         _______ _______ _______ _____ _____    ______ ____
ROOT
ATOM      1  C   UNL     1      47.695   5.217  15.028  0.00  0.00    +0.000 A 
ATOM      2  C   UNL     1      46.770   4.336  14.454  0.00  0.00    +0.000 A 
ATOM      3  C   UNL     1      46.065   4.693  13.296  0.00  0.00    +0.000 A 
ATOM      4  C   UNL     1      46.266   5.941  12.689  0.00  0.00    +0.000 A 
ATOM      5  C   UNL     1      47.203   6.814  13.257  0.00  0.00    +0.000 A 
ATOM      6  C   UNL     1      47.911   6.455  14.408  0.00  0.00    +0.000 A 
ENDROOT
BRANCH   1   7
ATOM      7  C   UNL     1      48.382   4.898  16.336  0.00  0.00    +0.000 C 
BRANCH   7   8
ATOM      8  C   UNL     1      47.936   3.589  16.986  0.00  0.00    +0.000 C 
BRANCH   8  10
ATOM      9  O   UNL     1      49.301   1.850  15.976  0.00  0.00    +0.000 OA
ATOM     10  C   UNL     1      49.045   2.566  16.930  0.00  0.00    +0.000 C 
BRANCH  10  11
ATOM     11  O   UNL     1      49.772   2.515  18.078  0.00  0.00    +0.000 OA
ATOM     12  H   UNL     1      50.592   1.990  17.997  0.00  0.00    +0.000 HD
ENDBRANCH  10  11
ENDBRANCH   8  10
ENDBRANCH   7   8
ENDBRANCH   1   7
BRANCH   4  13
ATOM     13  C   UNL     1      45.422   6.390  11.510  0.00  0.00    +0.000 C 
BRANCH  13  14
ATOM     14  N   UNL     1      44.581   5.294  11.039  0.00  0.00    +0.000 N 
ATOM     15  N   UNL     1      43.574   4.842  11.824  0.00  0.00    +0.000 NA
ATOM     16  C   UNL     1      43.382   3.596  11.382  0.00  0.00    +0.000 A 
ATOM     17  C   UNL     1      44.195   3.281  10.271  0.00  0.00    +0.000 A 
ATOM     18  C   UNL     1      44.450   2.139   9.492  0.00  0.00    +0.000 A 
ATOM     19  C   UNL     1      45.294   2.257   8.379  0.00  0.00    +0.000 A 
ATOM     20  C   UNL     1      45.836   3.493   8.029  0.00  0.00    +0.000 A 
ATOM     21 CL   UNL     1      46.792   3.623   6.602  0.00  0.00    +0.000 Cl
ATOM     22  C   UNL     1      45.636   4.629   8.818  0.00  0.00    +0.000 A 
ATOM     23  C   UNL     1      44.842   4.475   9.963  0.00  0.00    +0.000 A 
ENDBRANCH  13  14
ENDBRANCH   4  13
TORSDOF 6
ENDMDL
MODEL 4
REMARK VINA RESULT:    -6.852      2.808      3.428
REMARK INTER + INTRA:          -9.655
REMARK INTER:                  -9.179
REMARK INTRA:                  -0.476
REMARK UNBOUND:                -0.600
REMARK  Name = 
REMARK  6 active torsions:
REMARK  status: ('A' for Active; 'I' for Inactive)
REMARK    1  A    between atoms: C_2  and  O_3
REMARK    2  A    between atoms: C_2  and  C_4
REMARK    3  A    between atoms: C_4  and  C_5
REMARK    4  A    between atoms: C_5  and  C_6
REMARK    5  A    between atoms: C_9  and  C_10
REMARK    6  A    between atoms: C_10  and  N_11
REMARK                            x       y       z     vdW  Elec       q    Type
REMARK                         _______ _______ _______ _____ _____    ______ ____
ROOT
ATOM      1  C   UNL     1      45.290   3.378   9.290  0.00  0.00    +0.000 A 
ATOM      2  C   UNL     1      44.773   2.992  10.534  0.00  0.00    +0.000 A 
ATOM      3  C   UNL     1      44.588   3.934  11.556  0.00  0.00    +0.000 A 
ATOM      4  C   UNL     1      44.921   5.282  11.358  0.00  0.00    +0.000 A 
ATOM      5  C   UNL     1      45.424   5.667  10.109  0.00  0.00    +0.000 A 
ATOM      6  C   UNL     1      45.602   4.729   9.087  0.00  0.00    +0.000 A 
ENDROOT
BRANCH   1   7
ATOM      7  C   UNL     1      45.602   2.362   8.216  0.00  0.00    +0.000 C 
BRANCH   7   8
ATOM      8  C   UNL     1      46.775   2.733   7.310  0.00  0.00    +0.000 C 
BRANCH   8  10
ATOM      9  O   UNL     1      47.166   0.344   7.095  0.00  0.00    +0.000 OA
ATOM     10  C   UNL     1      47.459   1.490   6.794  0.00  0.00    +0.000 C 
BRANCH  10  11
ATOM     11  O   UNL     1      48.466   1.767   5.924  0.00  0.00    +0.000 OA
ATOM     12  H   UNL     1      49.257   1.207   6.052  0.00  0.00    +0.000 HD
ENDBRANCH  10  11
ENDBRANCH   8  10
ENDBRANCH   7   8
ENDBRANCH   1   7
BRANCH   4  13
ATOM     13  C   UNL     1      44.844   6.288  12.492  0.00  0.00    +0.000 C 
BRANCH  13  14
ATOM     14  N   UNL     1      45.637   7.472  12.175  0.00  0.00    +0.000 N 
ATOM     15  N   UNL     1      46.906   7.568  12.640  0.00  0.00    +0.000 NA
ATOM     16  C   UNL     1      47.128   8.886  12.642  0.00  0.00    +0.000 A 
ATOM     17  C   UNL     1      46.049   9.621  12.104  0.00  0.00    +0.000 A 
ATOM     18  C   UNL     1      45.727  10.980  11.944  0.00  0.00    +0.000 A 
ATOM     19  C   UNL     1      44.552  11.318  11.260  0.00  0.00    +0.000 A 
ATOM     20  C   UNL     1      43.739  10.325  10.713  0.00  0.00    +0.000 A 
ATOM     21 CL   UNL     1      42.353  10.777   9.795  0.00  0.00    +0.000 Cl
ATOM     22  C   UNL     1      44.015   8.969  10.903  0.00  0.00    +0.000 A 
ATOM     23  C   UNL     1      45.160   8.652  11.646  0.00  0.00    +0.000 A 
ENDBRANCH  13  14
ENDBRANCH   4  13
TORSDOF 6
ENDMDL
MODEL 5
REMARK VINA RESULT:    -6.269      4.065      7.158
REMARK INTER + INTRA:          -8.885
REMARK INTER:                  -8.029
REMARK INTRA:                  -0.856
REMARK UNBOUND:                -0.600
REMARK  Name = 
REMARK  6 active torsions:
REMARK  status: ('A' for Active; 'I' for Inactive)
REMARK    1  A    between atoms: C_2  and  O_3
REMARK    2  A    between atoms: C_2  and  C_4
REMARK    3  A    between atoms: C_4  and  C_5
REMARK    4  A    between atoms: C_5  and  C_6
REMARK    5  A    between atoms: C_9  and  C_10
REMARK    6  A    between atoms: C_10  and  N_11
REMARK                            x       y       z     vdW  Elec       q    Type
REMARK                         _______ _______ _______ _____ _____    ______ ____
ROOT
ATOM      1  C   UNL     1      48.324   7.279  14.164  0.00  0.00    +0.000 A 
ATOM      2  C   UNL     1      47.392   8.324  14.132  0.00  0.00    +0.000 A 
ATOM      3  C   UNL     1      46.329   8.308  13.217  0.00  0.00    +0.000 A 
ATOM      4  C   UNL     1      46.178   7.249  12.311  0.00  0.00    +0.000 A 
ATOM      5  C   UNL     1      47.103   6.197  12.356  0.00  0.00    +0.000 A 
ATOM      6  C   UNL     1      48.159   6.210  13.273  0.00  0.00    +0.000 A 
ENDROOT
BRANCH   1   7
ATOM      7  C   UNL     1      49.537   7.331  15.064  0.00  0.00    +0.000 C 
BRANCH   7   8
ATOM      8  C   UNL     1      49.245   7.078  16.542  0.00  0.00    +0.000 C 
BRANCH   8  10
ATOM      9  O   UNL     1      49.485   4.661  16.635  0.00  0.00    +0.000 OA
ATOM     10  C   UNL     1      48.787   5.656  16.755  0.00  0.00    +0.000 C 
BRANCH  10  11
ATOM     11  O   UNL     1      47.479   5.572  17.115  0.00  0.00    +0.000 OA
ATOM     12  H   UNL     1      46.939   5.038  16.501  0.00  0.00    +0.000 HD
ENDBRANCH  10  11
ENDBRANCH   8  10
ENDBRANCH   7   8
ENDBRANCH   1   7
BRANCH   4  13
ATOM     13  C   UNL     1      45.109   7.277  11.235  0.00  0.00    +0.000 C 
BRANCH  13  14
ATOM     14  N   UNL     1      44.335   6.040  11.254  0.00  0.00    +0.000 N 
ATOM     15  N   UNL     1      43.546   5.764  12.321  0.00  0.00    +0.000 NA
ATOM     16  C   UNL     1      43.429   4.434  12.274  0.00  0.00    +0.000 A 
ATOM     17  C   UNL     1      44.061   3.870  11.144  0.00  0.00    +0.000 A 
ATOM     18  C   UNL     1      44.307   2.574  10.661  0.00  0.00    +0.000 A 
ATOM     19  C   UNL     1      44.918   2.426   9.408  0.00  0.00    +0.000 A 
ATOM     20  C   UNL     1      45.237   3.544   8.639  0.00  0.00    +0.000 A 
ATOM     21 CL   UNL     1      45.898   3.326   7.063  0.00  0.00    +0.000 Cl
ATOM     22  C   UNL     1      45.047   4.842   9.122  0.00  0.00    +0.000 A 
ATOM     23  C   UNL     1      44.495   4.967  10.404  0.00  0.00    +0.000 A 
ENDBRANCH  13  14
ENDBRANCH   4  13
TORSDOF 6
ENDMDL
MODEL 6
REMARK VINA RESULT:    -5.911      5.468      8.271
REMARK INTER + INTRA:          -8.411
REMARK INTER:                  -8.064
REMARK INTRA:                  -0.347
REMARK UNBOUND:                -0.600
REMARK  Name = 
REMARK  6 active torsions:
REMARK  status: ('A' for Active; 'I' for Inactive)
REMARK    1  A    between atoms: C_2  and  O_3
REMARK    2  A    between atoms: C_2  and  C_4
REMARK    3  A    between atoms: C_4  and  C_5
REMARK    4  A    between atoms: C_5  and  C_6
REMARK    5  A    between atoms: C_9  and  C_10
REMARK    6  A    between atoms: C_10  and  N_11
REMARK                            x       y       z     vdW  Elec       q    Type
REMARK                         _______ _______ _______ _____ _____    ______ ____
ROOT
ATOM      1  C   UNL     1      50.647   2.848  17.510  0.00  0.00    +0.000 A 
ATOM      2  C   UNL     1      50.282   4.181  17.737  0.00  0.00    +0.000 A 
ATOM      3  C   UNL     1      49.075   4.688  17.236  0.00  0.00    +0.000 A 
ATOM      4  C   UNL     1      48.209   3.875  16.492  0.00  0.00    +0.000 A 
ATOM      5  C   UNL     1      48.569   2.538  16.278  0.00  0.00    +0.000 A 
ATOM      6  C   UNL     1      49.770   2.030  16.785  0.00  0.00    +0.000 A 
ENDROOT
BRANCH   1   7
ATOM      7  C   UNL     1      51.992   2.313  17.945  0.00  0.00    +0.000 C 
BRANCH   7   8
ATOM      8  C   UNL     1      52.323   0.917  17.418  0.00  0.00    +0.000 C 
BRANCH   8  10
ATOM      9  O   UNL     1      54.115   0.890  19.059  0.00  0.00    +0.000 OA
ATOM     10  C   UNL     1      53.508   0.341  18.154  0.00  0.00    +0.000 C 
BRANCH  10  11
ATOM     11  O   UNL     1      53.851  -0.897  17.710  0.00  0.00    +0.000 OA
ATOM     12  H   UNL     1      53.083  -1.461  17.494  0.00  0.00    +0.000 HD
ENDBRANCH  10  11
ENDBRANCH   8  10
ENDBRANCH   7   8
ENDBRANCH   1   7
BRANCH   4  13
ATOM     13  C   UNL     1      46.961   4.441  15.838  0.00  0.00    +0.000 C 
BRANCH  13  14
ATOM     14  N   UNL     1      47.274   4.960  14.510  0.00  0.00    +0.000 N 
ATOM     15  N   UNL     1      48.237   5.904  14.374  0.00  0.00    +0.000 NA
ATOM     16  C   UNL     1      47.912   6.503  13.224  0.00  0.00    +0.000 A 
ATOM     17  C   UNL     1      46.807   5.896  12.586  0.00  0.00    +0.000 A 
ATOM     18  C   UNL     1      46.028   6.153  11.446  0.00  0.00    +0.000 A 
ATOM     19  C   UNL     1      45.033   5.234  11.088  0.00  0.00    +0.000 A 
ATOM     20  C   UNL     1      44.849   4.066  11.827  0.00  0.00    +0.000 A 
ATOM     21 CL   UNL     1      43.683   2.910  11.306  0.00  0.00    +0.000 Cl
ATOM     22  C   UNL     1      45.579   3.816  12.993  0.00  0.00    +0.000 A 
ATOM     23  C   UNL     1      46.523   4.780  13.369  0.00  0.00    +0.000 A 
ENDBRANCH  13  14
ENDBRANCH   4  13
TORSDOF 6
ENDMDL
MODEL 7
REMARK VINA RESULT:    -5.908      3.798      5.300
REMARK INTER + INTRA:          -8.408
REMARK INTER:                  -7.684
REMARK INTRA:                  -0.723
REMARK UNBOUND:                -0.600
REMARK  Name = 
REMARK  6 active torsions:
REMARK  status: ('A' for Active; 'I' for Inactive)
REMARK    1  A    between atoms: C_2  and  O_3
REMARK    2  A    between atoms: C_2  and  C_4
REMARK    3  A    between atoms: C_4  and  C_5
REMARK    4  A    between atoms: C_5  and  C_6
REMARK    5  A    between atoms: C_9  and  C_10
REMARK    6  A    between atoms: C_10  and  N_11
REMARK                            x       y       z     vdW  Elec       q    Type
REMARK                         _______ _______ _______ _____ _____    ______ ____
ROOT
ATOM      1  C   UNL     1      45.292   6.027  12.737  0.00  0.00    +0.000 A 
ATOM      2  C   UNL     1      46.055   5.044  13.381  0.00  0.00    +0.000 A 
ATOM      3  C   UNL     1      47.293   5.363  13.958  0.00  0.00    +0.000 A 
ATOM      4  C   UNL     1      47.797   6.670  13.900  0.00  0.00    +0.000 A 
ATOM      5  C   UNL     1      47.025   7.654  13.268  0.00  0.00    +0.000 A 
ATOM      6  C   UNL     1      45.787   7.337  12.698  0.00  0.00    +0.000 A 
ENDROOT
BRANCH   1   7
ATOM      7  C   UNL     1      44.012   5.682  12.012  0.00  0.00    +0.000 C 
BRANCH   7   8
ATOM      8  C   UNL     1      43.355   4.379  12.465  0.00  0.00    +0.000 C 
BRANCH   8  10
ATOM      9  O   UNL     1      43.656   3.602  10.181  0.00  0.00    +0.000 OA
ATOM     10  C   UNL     1      43.341   3.374  11.338  0.00  0.00    +0.000 C 
BRANCH  10  11
ATOM     11  O   UNL     1      42.938   2.139  11.739  0.00  0.00    +0.000 OA
ATOM     12  H   UNL     1      43.552   1.425  11.479  0.00  0.00    +0.000 HD
ENDBRANCH  10  11
ENDBRANCH   8  10
ENDBRANCH   7   8
ENDBRANCH   1   7
BRANCH   4  13
ATOM     13  C   UNL     1      49.187   7.003  14.409  0.00  0.00    +0.000 C 
BRANCH  13  14
ATOM     14  N   UNL     1      49.265   6.791  15.851  0.00  0.00    +0.000 N 
ATOM     15  N   UNL     1      49.590   5.566  16.328  0.00  0.00    +0.000 NA
ATOM     16  C   UNL     1      49.074   5.574  17.560  0.00  0.00    +0.000 A 
ATOM     17  C   UNL     1      48.501   6.819  17.903  0.00  0.00    +0.000 A 
ATOM     18  C   UNL     1      47.780   7.339  18.992  0.00  0.00    +0.000 A 
ATOM     19  C   UNL     1      47.447   8.700  18.992  0.00  0.00    +0.000 A 
ATOM     20  C   UNL     1      47.859   9.530  17.950  0.00  0.00    +0.000 A 
ATOM     21 CL   UNL     1      47.516  11.217  18.026  0.00  0.00    +0.000 Cl
ATOM     22  C   UNL     1      48.533   9.024  16.835  0.00  0.00    +0.000 A 
ATOM     23  C   UNL     1      48.799   7.648  16.825  0.00  0.00    +0.000 A 
ENDBRANCH  13  14
ENDBRANCH   4  13
TORSDOF 6
ENDMDL
MODEL 8
REMARK VINA RESULT:    -5.820      4.659      7.877
REMARK INTER + INTRA:          -8.292
REMARK INTER:                  -7.807
REMARK INTRA:                  -0.485
REMARK UNBOUND:                -0.600
REMARK  Name = 
REMARK  6 active torsions:
REMARK  status: ('A' for Active; 'I' for Inactive)
REMARK    1  A    between atoms: C_2  and  O_3
REMARK    2  A    between atoms: C_2  and  C_4
REMARK    3  A    between atoms: C_4  and  C_5
REMARK    4  A    between atoms: C_5  and  C_6
REMARK    5  A    between atoms: C_9  and  C_10
REMARK    6  A    between atoms: C_10  and  N_11
REMARK                            x       y       z     vdW  Elec       q    Type
REMARK                         _______ _______ _______ _____ _____    ______ ____
ROOT
ATOM      1  C   UNL     1      47.898   4.903  15.886  0.00  0.00    +0.000 A 
ATOM      2  C   UNL     1      48.383   6.188  15.613  0.00  0.00    +0.000 A 
ATOM      3  C   UNL     1      48.130   6.801  14.377  0.00  0.00    +0.000 A 
ATOM      4  C   UNL     1      47.390   6.140  13.386  0.00  0.00    +0.000 A 
ATOM      5  C   UNL     1      46.894   4.860  13.668  0.00  0.00    +0.000 A 
ATOM      6  C   UNL     1      47.141   4.252  14.903  0.00  0.00    +0.000 A 
ENDROOT
BRANCH   1   7
ATOM      7  C   UNL     1      48.253   4.181  17.166  0.00  0.00    +0.000 C 
BRANCH   7   8
ATOM      8  C   UNL     1      48.933   5.053  18.221  0.00  0.00    +0.000 C 
BRANCH   8  10
ATOM      9  O   UNL     1      49.577   4.724  20.541  0.00  0.00    +0.000 OA
ATOM     10  C   UNL     1      48.989   4.333  19.546  0.00  0.00    +0.000 C 
BRANCH  10  11
ATOM     11  O   UNL     1      48.291   3.166  19.540  0.00  0.00    +0.000 OA
ATOM     12  H   UNL     1      48.650   2.500  18.921  0.00  0.00    +0.000 HD
ENDBRANCH  10  11
ENDBRANCH   8  10
ENDBRANCH   7   8
ENDBRANCH   1   7
BRANCH   4  13
ATOM     13  C   UNL     1      47.214   6.737  12.002  0.00  0.00    +0.000 C 
BRANCH  13  14
ATOM     14  N   UNL     1      45.863   6.489  11.510  0.00  0.00    +0.000 N 
ATOM     15  N   UNL     1      44.800   6.828  12.279  0.00  0.00    +0.000 NA
ATOM     16  C   UNL     1      43.829   6.033  11.820  0.00  0.00    +0.000 A 
ATOM     17  C   UNL     1      44.238   5.256  10.714  0.00  0.00    +0.000 A 
ATOM     18  C   UNL     1      43.674   4.239   9.924  0.00  0.00    +0.000 A 
ATOM     19  C   UNL     1      44.396   3.762   8.822  0.00  0.00    +0.000 A 
ATOM     20  C   UNL     1      45.633   4.316   8.492  0.00  0.00    +0.000 A 
ATOM     21 CL   UNL     1      46.451   3.774   7.076  0.00  0.00    +0.000 Cl
ATOM     22  C   UNL     1      46.234   5.291   9.292  0.00  0.00    +0.000 A 
ATOM     23  C   UNL     1      45.524   5.708  10.426  0.00  0.00    +0.000 A 
ENDBRANCH  13  14
ENDBRANCH   4  13
TORSDOF 6
ENDMDL
MODEL 9
REMARK VINA RESULT:    -5.715      3.003      4.481
REMARK INTER + INTRA:          -8.152
REMARK INTER:                  -7.409
REMARK INTRA:                  -0.744
REMARK UNBOUND:                -0.600
REMARK  Name = 
REMARK  6 active torsions:
REMARK  status: ('A' for Active; 'I' for Inactive)
REMARK    1  A    between atoms: C_2  and  O_3
REMARK    2  A    between atoms: C_2  and  C_4
REMARK    3  A    between atoms: C_4  and  C_5
REMARK    4  A    between atoms: C_5  and  C_6
REMARK    5  A    between atoms: C_9  and  C_10
REMARK    6  A    between atoms: C_10  and  N_11
REMARK                            x       y       z     vdW  Elec       q    Type
REMARK                         _______ _______ _______ _____ _____    ______ ____
ROOT
ATOM      1  C   UNL     1      44.885   5.156  11.706  0.00  0.00    +0.000 A 
ATOM      2  C   UNL     1      45.404   4.605  12.884  0.00  0.00    +0.000 A 
ATOM      3  C   UNL     1      46.576   5.117  13.459  0.00  0.00    +0.000 A 
ATOM      4  C   UNL     1      47.258   6.188  12.865  0.00  0.00    +0.000 A 
ATOM      5  C   UNL     1      46.729   6.747  11.695  0.00  0.00    +0.000 A 
ATOM      6  C   UNL     1      45.556   6.241  11.125  0.00  0.00    +0.000 A 
ENDROOT
BRANCH   1   7
ATOM      7  C   UNL     1      43.688   4.549  11.011  0.00  0.00    +0.000 C 
BRANCH   7   8
ATOM      8  C   UNL     1      43.822   3.060  10.697  0.00  0.00    +0.000 C 
BRANCH   8  10
ATOM      9  O   UNL     1      45.400   1.998   9.183  0.00  0.00    +0.000 OA
ATOM     10  C   UNL     1      44.561   2.858   9.395  0.00  0.00    +0.000 C 
BRANCH  10  11
ATOM     11  O   UNL     1      44.190   3.748   8.437  0.00  0.00    +0.000 OA
ATOM     12  H   UNL     1      44.893   3.931   7.783  0.00  0.00    +0.000 HD
ENDBRANCH  10  11
ENDBRANCH   8  10
ENDBRANCH   7   8
ENDBRANCH   1   7
BRANCH   4  13
ATOM     13  C   UNL     1      48.592   6.670  13.405  0.00  0.00    +0.000 C 
BRANCH  13  14
ATOM     14  N   UNL     1      48.403   7.382  14.665  0.00  0.00    +0.000 N 
ATOM     15  N   UNL     1      48.191   8.719  14.651  0.00  0.00    +0.000 NA
ATOM     16  C   UNL     1      48.581   9.101  15.870  0.00  0.00    +0.000 A 
ATOM     17  C   UNL     1      48.956   8.012  16.688  0.00  0.00    +0.000 A 
ATOM     18  C   UNL     1      49.497   7.849  17.975  0.00  0.00    +0.000 A 
ATOM     19  C   UNL     1      49.654   6.551  18.481  0.00  0.00    +0.000 A 
ATOM     20  C   UNL     1      49.243   5.446  17.736  0.00  0.00    +0.000 A 
ATOM     21 CL   UNL     1      49.360   3.871  18.425  0.00  0.00    +0.000 Cl
ATOM     22  C   UNL     1      48.749   5.583  16.436  0.00  0.00    +0.000 A 
ATOM     23  C   UNL     1      48.661   6.885  15.925  0.00  0.00    +0.000 A 
ENDBRANCH  13  14
ENDBRANCH   4  13
TORSDOF 6
ENDMDL
