MODEL 1
REMARK VINA RESULT:    -7.906      0.000      0.000
REMARK INTER + INTRA:         -11.390
REMARK INTER:                 -10.679
REMARK INTRA:                  -0.711
REMARK UNBOUND:                -0.711
REMARK  Name = 
REMARK  7 active torsions:
REMARK  status: ('A' for Active; 'I' for Inactive)
REMARK    1  A    between atoms: N_1  and  C_2
REMARK    2  A    between atoms: C_2  and  C_3
REMARK    3  A    between atoms: C_3  and  C_4
REMARK    4  A    between atoms: C_8  and  C_9
REMARK    5  A    between atoms: C_9  and  N_10
REMARK    6  A    between atoms: C_15  and  C_16
REMARK    7  A    between atoms: C_16  and  O_18
REMARK                            x       y       z     vdW  Elec       q    Type
REMARK                         _______ _______ _______ _____ _____    ______ ____
ROOT
ATOM      1  N   UNL     1      44.048   4.138  10.501  0.00  0.00    +0.000 N 
ATOM      2  N   UNL     1      43.529   2.988  10.994  0.00  0.00    +0.000 NA
ATOM      3  C   UNL     1      44.124   2.036  10.274  0.00  0.00    +0.000 A 
ATOM      4  C   UNL     1      45.023   2.555   9.320  0.00  0.00    +0.000 A 
ATOM      5  C   UNL     1      45.848   2.011   8.320  0.00  0.00    +0.000 A 
ATOM      6  C   UNL     1      46.604   2.875   7.510  0.00  0.00    +0.000 A 
ATOM      7  C   UNL     1      46.542   4.261   7.705  0.00  0.00    +0.000 A 
ATOM      8  C   UNL     1      45.733   4.816   8.712  0.00  0.00    +0.000 A 
ATOM      9  C   UNL     1      44.974   3.935   9.496  0.00  0.00    +0.000 A 
ENDROOT
BRANCH   6  10
ATOM     10  C   UNL     1      47.393   2.251   6.411  0.00  0.00    +0.000 C 
ATOM     11  O   UNL     1      47.943   1.171   6.531  0.00  0.00    +0.000 OA
BRANCH  10  12
ATOM     12  O   UNL     1      47.476   2.993   5.286  0.00  0.00    +0.000 OA
ATOM     13  H   UNL     1      47.877   3.876   5.389  0.00  0.00    +0.000 HD
ENDBRANCH  10  12
ENDBRANCH   6  10
BRANCH   1  14
ATOM     14  C   UNL     1      43.469   5.408  10.917  0.00  0.00    +0.000 C 
BRANCH  14  19
ATOM     15  C   UNL     1      46.350   6.447  12.980  0.00  0.00    +0.000 A 
ATOM     16  C   UNL     1      46.417   7.825  12.801  0.00  0.00    +0.000 A 
ATOM     17  C   UNL     1      45.441   8.448  12.031  0.00  0.00    +0.000 A 
ATOM     18  C   UNL     1      44.440   7.680  11.446  0.00  0.00    +0.000 A 
ATOM     19  C   UNL     1      44.451   6.299  11.633  0.00  0.00    +0.000 A 
ATOM     20  N   UNL     1      45.396   5.681  12.393  0.00  0.00    +0.000 NA
BRANCH  15  21
ATOM     21  C   UNL     1      47.354   5.747  13.859  0.00  0.00    +0.000 C 
BRANCH  21  22
ATOM     22  C   UNL     1      46.758   4.525  14.556  0.00  0.00    +0.000 C 
BRANCH  22  23
ATOM     23  N   UNL     1      47.182   3.288  13.895  0.00  0.00    +0.000 NA
ATOM     24  H   UNL     1      46.362   2.720  13.687  0.00  0.00    +0.000 HD
ATOM     25  H   UNL     1      47.748   2.736  14.540  0.00  0.00    +0.000 HD
ENDBRANCH  22  23
ENDBRANCH  21  22
ENDBRANCH  15  21
ENDBRANCH  14  19
ENDBRANCH   1  14
TORSDOF 7
ENDMDL
MODEL 2
REMARK VINA RESULT:    -7.391      1.523      2.893
REMARK INTER + INTRA:         -10.695
REMARK INTER:                  -9.976
REMARK INTRA:                  -0.719
REMARK UNBOUND:                -0.711
REMARK  Name = 
REMARK  7 active torsions:
REMARK  status: ('A' for Active; 'I' for Inactive)
REMARK    1  A    between atoms: N_1  and  C_2
REMARK    2  A    between atoms: C_2  and  C_3
REMARK    3  A    between atoms: C_3  and  C_4
REMARK    4  A    between atoms: C_8  and  C_9
REMARK    5  A    between atoms: C_9  and  N_10
REMARK    6  A    between atoms: C_15  and  C_16
REMARK    7  A    between atoms: C_16  and  O_18
REMARK                            x       y       z     vdW  Elec       q    Type
REMARK                         _______ _______ _______ _____ _____    ______ ____
ROOT
ATOM      1  N   UNL     1      44.018   4.333  10.586  0.00  0.00    +0.000 N 
ATOM      2  N   UNL     1      43.425   3.263  11.169  0.00  0.00    +0.000 NA
ATOM      3  C   UNL     1      43.932   2.219  10.510  0.00  0.00    +0.000 A 
ATOM      4  C   UNL     1      44.846   2.600   9.506  0.00  0.00    +0.000 A 
ATOM      5  C   UNL     1      45.606   1.925   8.535  0.00  0.00    +0.000 A 
ATOM      6  C   UNL     1      46.407   2.669   7.653  0.00  0.00    +0.000 A 
ATOM      7  C   UNL     1      46.453   4.067   7.748  0.00  0.00    +0.000 A 
ATOM      8  C   UNL     1      45.710   4.751   8.725  0.00  0.00    +0.000 A 
ATOM      9  C   UNL     1      44.904   3.989   9.584  0.00  0.00    +0.000 A 
ENDROOT
BRANCH   6  10
ATOM     10  C   UNL     1      47.123   1.911   6.590  0.00  0.00    +0.000 C 
ATOM     11  O   UNL     1      47.164   0.694   6.567  0.00  0.00    +0.000 OA
BRANCH  10  12
ATOM     12  O   UNL     1      47.749   2.680   5.673  0.00  0.00    +0.000 OA
ATOM     13  H   UNL     1      47.476   2.541   4.746  0.00  0.00    +0.000 HD
ENDBRANCH  10  12
ENDBRANCH   6  10
BRANCH   1  14
ATOM     14  C   UNL     1      43.544   5.669  10.918  0.00  0.00    +0.000 C 
BRANCH  14  19
ATOM     15  C   UNL     1      45.372   8.657  12.087  0.00  0.00    +0.000 A 
ATOM     16  C   UNL     1      46.317   8.152  12.974  0.00  0.00    +0.000 A 
ATOM     17  C   UNL     1      46.406   6.776  13.145  0.00  0.00    +0.000 A 
ATOM     18  C   UNL     1      45.539   5.943  12.445  0.00  0.00    +0.000 A 
ATOM     19  C   UNL     1      44.590   6.514  11.599  0.00  0.00    +0.000 A 
ATOM     20  N   UNL     1      44.502   7.860  11.417  0.00  0.00    +0.000 NA
BRANCH  15  21
ATOM     21  C   UNL     1      45.290  10.139  11.828  0.00  0.00    +0.000 C 
BRANCH  21  22
ATOM     22  C   UNL     1      43.990  10.533  11.127  0.00  0.00    +0.000 C 
BRANCH  22  23
ATOM     23  N   UNL     1      42.883  10.604  12.083  0.00  0.00    +0.000 NA
ATOM     24  H   UNL     1      42.536   9.663  12.265  0.00  0.00    +0.000 HD
ATOM     25  H   UNL     1      42.104  11.112  11.663  0.00  0.00    +0.000 HD
ENDBRANCH  22  23
ENDBRANCH  21  22
ENDBRANCH  15  21
ENDBRANCH  14  19
ENDBRANCH   1  14
TORSDOF 7
ENDMDL
MODEL 3
REMARK VINA RESULT:    -7.139      3.672      6.730
REMARK INTER + INTRA:         -10.354
REMARK INTER:                  -9.975
REMARK INTRA:                  -0.379
REMARK UNBOUND:                -0.711
REMARK  Name = 
REMARK  7 active torsions:
REMARK  status: ('A' for Active; 'I' for Inactive)
REMARK    1  A    between atoms: N_1  and  C_2
REMARK    2  A    between atoms: C_2  and  C_3
REMARK    3  A    between atoms: C_3  and  C_4
REMARK    4  A    between atoms: C_8  and  C_9
REMARK    5  A    between atoms: C_9  and  N_10
REMARK    6  A    between atoms: C_15  and  C_16
REMARK    7  A    between atoms: C_16  and  O_18
REMARK                            x       y       z     vdW  Elec       q    Type
REMARK                         _______ _______ _______ _____ _____    ______ ____
ROOT
ATOM      1  N   UNL     1      44.716   5.478  11.028  0.00  0.00    +0.000 N 
ATOM      2  N   UNL     1      44.746   6.832  11.006  0.00  0.00    +0.000 NA
ATOM      3  C   UNL     1      45.465   7.153  12.083  0.00  0.00    +0.000 A 
ATOM      4  C   UNL     1      45.902   6.022  12.803  0.00  0.00    +0.000 A 
ATOM      5  C   UNL     1      46.629   5.807  13.986  0.00  0.00    +0.000 A 
ATOM      6  C   UNL     1      46.848   4.491  14.427  0.00  0.00    +0.000 A 
ATOM      7  C   UNL     1      46.353   3.408  13.690  0.00  0.00    +0.000 A 
ATOM      8  C   UNL     1      45.637   3.609  12.497  0.00  0.00    +0.000 A 
ATOM      9  C   UNL     1      45.417   4.932  12.085  0.00  0.00    +0.000 A 
ENDROOT
BRANCH   6  10
ATOM     10  C   UNL     1      47.549   4.324  15.731  0.00  0.00    +0.000 C 
ATOM     11  O   UNL     1      48.672   4.751  15.930  0.00  0.00    +0.000 OA
BRANCH  10  12
ATOM     12  O   UNL     1      46.853   3.635  16.661  0.00  0.00    +0.000 OA
ATOM     13  H   UNL     1      47.388   3.139  17.309  0.00  0.00    +0.000 HD
ENDBRANCH  10  12
ENDBRANCH   6  10
BRANCH   1  14
ATOM     14  C   UNL     1      43.837   4.778  10.102  0.00  0.00    +0.000 C 
BRANCH  14  19
ATOM     15  C   UNL     1      46.148   3.297   7.631  0.00  0.00    +0.000 A 
ATOM     16  C   UNL     1      46.068   1.929   7.868  0.00  0.00    +0.000 A 
ATOM     17  C   UNL     1      45.173   1.468   8.827  0.00  0.00    +0.000 A 
ATOM     18  C   UNL     1      44.399   2.380   9.535  0.00  0.00    +0.000 A 
ATOM     19  C   UNL     1      44.554   3.741   9.276  0.00  0.00    +0.000 A 
ATOM     20  N   UNL     1      45.419   4.203   8.333  0.00  0.00    +0.000 NA
BRANCH  15  21
ATOM     21  C   UNL     1      47.060   3.829   6.556  0.00  0.00    +0.000 C 
BRANCH  21  22
ATOM     22  C   UNL     1      47.151   2.886   5.356  0.00  0.00    +0.000 C 
BRANCH  22  23
ATOM     23  N   UNL     1      48.412   2.142   5.373  0.00  0.00    +0.000 NA
ATOM     24  H   UNL     1      48.228   1.176   5.643  0.00  0.00    +0.000 HD
ATOM     25  H   UNL     1      49.022   2.523   6.096  0.00  0.00    +0.000 HD
ENDBRANCH  22  23
ENDBRANCH  21  22
ENDBRANCH  15  21
ENDBRANCH  14  19
ENDBRANCH   1  14
TORSDOF 7
ENDMDL
MODEL 4
REMARK VINA RESULT:    -6.487      3.826      5.770
REMARK INTER + INTRA:          -9.473
REMARK INTER:                  -8.691
REMARK INTRA:                  -0.782
REMARK UNBOUND:                -0.711
REMARK  Name = 
REMARK  7 active torsions:
REMARK  status: ('A' for Active; 'I' for Inactive)
REMARK    1  A    between atoms: N_1  and  C_2
REMARK    2  A    between atoms: C_2  and  C_3
REMARK    3  A    between atoms: C_3  and  C_4
REMARK    4  A    between atoms: C_8  and  C_9
REMARK    5  A    between atoms: C_9  and  N_10
REMARK    6  A    between atoms: C_15  and  C_16
REMARK    7  A    between atoms: C_16  and  O_18
REMARK                            x       y       z     vdW  Elec       q    Type
REMARK                         _______ _______ _______ _____ _____    ______ ____
ROOT
ATOM      1  N   UNL     1      47.362   6.869  13.709  0.00  0.00    +0.000 N 
ATOM      2  N   UNL     1      46.782   8.025  13.307  0.00  0.00    +0.000 NA
ATOM      3  C   UNL     1      45.667   7.626  12.694  0.00  0.00    +0.000 A 
ATOM      4  C   UNL     1      45.517   6.224  12.693  0.00  0.00    +0.000 A 
ATOM      5  C   UNL     1      44.581   5.316  12.169  0.00  0.00    +0.000 A 
ATOM      6  C   UNL     1      44.790   3.938  12.344  0.00  0.00    +0.000 A 
ATOM      7  C   UNL     1      45.915   3.477  13.040  0.00  0.00    +0.000 A 
ATOM      8  C   UNL     1      46.850   4.375  13.581  0.00  0.00    +0.000 A 
ATOM      9  C   UNL     1      46.630   5.746  13.380  0.00  0.00    +0.000 A 
ENDROOT
BRANCH   6  10
ATOM     10  C   UNL     1      43.813   3.020  11.694  0.00  0.00    +0.000 C 
ATOM     11  O   UNL     1      43.354   3.230  10.585  0.00  0.00    +0.000 OA
BRANCH  10  12
ATOM     12  O   UNL     1      43.454   1.956  12.444  0.00  0.00    +0.000 OA
ATOM     13  H   UNL     1      42.845   1.323  12.019  0.00  0.00    +0.000 HD
ENDBRANCH  10  12
ENDBRANCH   6  10
BRANCH   1  14
ATOM     14  C   UNL     1      48.716   6.909  14.243  0.00  0.00    +0.000 C 
BRANCH  14  19
ATOM     15  C   UNL     1      49.016   5.104  17.451  0.00  0.00    +0.000 A 
ATOM     16  C   UNL     1      49.103   6.115  18.403  0.00  0.00    +0.000 A 
ATOM     17  C   UNL     1      48.991   7.437  17.987  0.00  0.00    +0.000 A 
ATOM     18  C   UNL     1      48.816   7.716  16.636  0.00  0.00    +0.000 A 
ATOM     19  C   UNL     1      48.774   6.659  15.728  0.00  0.00    +0.000 A 
ATOM     20  N   UNL     1      48.872   5.361  16.126  0.00  0.00    +0.000 NA
BRANCH  15  21
ATOM     21  C   UNL     1      49.069   3.659  17.873  0.00  0.00    +0.000 C 
BRANCH  21  22
ATOM     22  C   UNL     1      48.049   2.800  17.125  0.00  0.00    +0.000 C 
BRANCH  22  23
ATOM     23  N   UNL     1      46.683   3.246  17.411  0.00  0.00    +0.000 NA
ATOM     24  H   UNL     1      46.264   3.611  16.556  0.00  0.00    +0.000 HD
ATOM     25  H   UNL     1      46.711   4.028  18.065  0.00  0.00    +0.000 HD
ENDBRANCH  22  23
ENDBRANCH  21  22
ENDBRANCH  15  21
ENDBRANCH  14  19
ENDBRANCH   1  14
TORSDOF 7
ENDMDL
MODEL 5
REMARK VINA RESULT:    -6.426      3.691      6.654
REMARK INTER + INTRA:          -9.391
REMARK INTER:                  -8.847
REMARK INTRA:                  -0.544
REMARK UNBOUND:                -0.711
REMARK  Name = 
REMARK  7 active torsions:
REMARK  status: ('A' for Active; 'I' for Inactive)
REMARK    1  A    between atoms: N_1  and  C_2
REMARK    2  A    between atoms: C_2  and  C_3
REMARK    3  A    between atoms: C_3  and  C_4
REMARK    4  A    between atoms: C_8  and  C_9
REMARK    5  A    between atoms: C_9  and  N_10
REMARK    6  A    between atoms: C_15  and  C_16
REMARK    7  A    between atoms: C_16  and  O_18
REMARK                            x       y       z     vdW  Elec       q    Type
REMARK                         _______ _______ _______ _____ _____    ______ ____
ROOT
ATOM      1  N   UNL     1      44.503   6.494  11.403  0.00  0.00    +0.000 N 
ATOM      2  N   UNL     1      44.313   7.801  11.103  0.00  0.00    +0.000 NA
ATOM      3  C   UNL     1      45.251   8.431  11.813  0.00  0.00    +0.000 A 
ATOM      4  C   UNL     1      46.046   7.547  12.571  0.00  0.00    +0.000 A 
ATOM      5  C   UNL     1      47.105   7.684  13.484  0.00  0.00    +0.000 A 
ATOM      6  C   UNL     1      47.643   6.536  14.088  0.00  0.00    +0.000 A 
ATOM      7  C   UNL     1      47.134   5.268  13.775  0.00  0.00    +0.000 A 
ATOM      8  C   UNL     1      46.085   5.117  12.851  0.00  0.00    +0.000 A 
ATOM      9  C   UNL     1      45.552   6.279  12.274  0.00  0.00    +0.000 A 
ENDROOT
BRANCH   6  10
ATOM     10  C   UNL     1      48.704   6.746  15.112  0.00  0.00    +0.000 C 
ATOM     11  O   UNL     1      49.890   6.739  14.838  0.00  0.00    +0.000 OA
BRANCH  10  12
ATOM     12  O   UNL     1      48.246   6.913  16.372  0.00  0.00    +0.000 OA
ATOM     13  H   UNL     1      48.879   6.702  17.084  0.00  0.00    +0.000 HD
ENDBRANCH  10  12
ENDBRANCH   6  10
BRANCH   1  14
ATOM     14  C   UNL     1      43.516   5.519  10.959  0.00  0.00    +0.000 C 
BRANCH  14  19
ATOM     15  C   UNL     1      45.626   3.764   8.486  0.00  0.00    +0.000 A 
ATOM     16  C   UNL     1      45.427   2.416   8.766  0.00  0.00    +0.000 A 
ATOM     17  C   UNL     1      44.515   2.066   9.755  0.00  0.00    +0.000 A 
ATOM     18  C   UNL     1      43.844   3.065  10.451  0.00  0.00    +0.000 A 
ATOM     19  C   UNL     1      44.116   4.398  10.149  0.00  0.00    +0.000 A 
ATOM     20  N   UNL     1      44.999   4.752   9.176  0.00  0.00    +0.000 NA
BRANCH  15  21
ATOM     21  C   UNL     1      46.558   4.180   7.378  0.00  0.00    +0.000 C 
BRANCH  21  22
ATOM     22  C   UNL     1      46.839   3.039   6.401  0.00  0.00    +0.000 C 
BRANCH  22  23
ATOM     23  N   UNL     1      48.281   2.836   6.236  0.00  0.00    +0.000 NA
ATOM     24  H   UNL     1      48.623   2.238   6.987  0.00  0.00    +0.000 HD
ATOM     25  H   UNL     1      48.763   3.728   6.348  0.00  0.00    +0.000 HD
ENDBRANCH  22  23
ENDBRANCH  21  22
ENDBRANCH  15  21
ENDBRANCH  14  19
ENDBRANCH   1  14
TORSDOF 7
ENDMDL
MODEL 6
REMARK VINA RESULT:    -5.732      3.591      6.400
REMARK INTER + INTRA:          -8.453
REMARK INTER:                  -7.826
REMARK INTRA:                  -0.627
REMARK UNBOUND:                -0.711
REMARK  Name = 
REMARK  7 active torsions:
REMARK  status: ('A' for Active; 'I' for Inactive)
REMARK    1  A    between atoms: N_1  and  C_2
REMARK    2  A    between atoms: C_2  and  C_3
REMARK    3  A    between atoms: C_3  and  C_4
REMARK    4  A    between atoms: C_8  and  C_9
REMARK    5  A    between atoms: C_9  and  N_10
REMARK    6  A    between atoms: C_15  and  C_16
REMARK    7  A    between atoms: C_16  and  O_18
REMARK                            x       y       z     vdW  Elec       q    Type
REMARK                         _______ _______ _______ _____ _____    ______ ____
ROOT
ATOM      1  N   UNL     1      47.368   5.102  14.071  0.00  0.00    +0.000 N 
ATOM      2  N   UNL     1      47.885   5.203  15.319  0.00  0.00    +0.000 NA
ATOM      3  C   UNL     1      48.540   6.365  15.300  0.00  0.00    +0.000 A 
ATOM      4  C   UNL     1      48.454   7.019  14.053  0.00  0.00    +0.000 A 
ATOM      5  C   UNL     1      48.973   8.205  13.506  0.00  0.00    +0.000 A 
ATOM      6  C   UNL     1      48.690   8.523  12.167  0.00  0.00    +0.000 A 
ATOM      7  C   UNL     1      47.893   7.671  11.391  0.00  0.00    +0.000 A 
ATOM      8  C   UNL     1      47.355   6.490  11.932  0.00  0.00    +0.000 A 
ATOM      9  C   UNL     1      47.665   6.184  13.266  0.00  0.00    +0.000 A 
ENDROOT
BRANCH   6  10
ATOM     10  C   UNL     1      49.336   9.746  11.613  0.00  0.00    +0.000 C 
ATOM     11  O   UNL     1      48.719  10.582  10.978  0.00  0.00    +0.000 OA
BRANCH  10  12
ATOM     12  O   UNL     1      50.663   9.837  11.846  0.00  0.00    +0.000 OA
ATOM     13  H   UNL     1      51.063   9.084  12.320  0.00  0.00    +0.000 HD
ENDBRANCH  10  12
ENDBRANCH   6  10
BRANCH   1  14
ATOM     14  C   UNL     1      46.752   3.848  13.663  0.00  0.00    +0.000 C 
BRANCH  14  19
ATOM     15  C   UNL     1      44.352   3.533  10.873  0.00  0.00    +0.000 A 
ATOM     16  C   UNL     1      43.200   4.156  11.344  0.00  0.00    +0.000 A 
ATOM     17  C   UNL     1      43.231   4.762  12.595  0.00  0.00    +0.000 A 
ATOM     18  C   UNL     1      44.399   4.714  13.349  0.00  0.00    +0.000 A 
ATOM     19  C   UNL     1      45.507   4.042  12.836  0.00  0.00    +0.000 A 
ATOM     20  N   UNL     1      45.490   3.454  11.608  0.00  0.00    +0.000 NA
BRANCH  15  21
ATOM     21  C   UNL     1      44.375   2.921   9.497  0.00  0.00    +0.000 C 
BRANCH  21  22
ATOM     22  C   UNL     1      44.592   3.967   8.403  0.00  0.00    +0.000 C 
BRANCH  22  23
ATOM     23  N   UNL     1      45.520   5.007   8.852  0.00  0.00    +0.000 NA
ATOM     24  H   UNL     1      45.357   5.858   8.315  0.00  0.00    +0.000 HD
ATOM     25  H   UNL     1      46.477   4.722   8.640  0.00  0.00    +0.000 HD
ENDBRANCH  22  23
ENDBRANCH  21  22
ENDBRANCH  15  21
ENDBRANCH  14  19
ENDBRANCH   1  14
TORSDOF 7
ENDMDL
MODEL 7
REMARK VINA RESULT:    -5.558      5.761      8.701
REMARK INTER + INTRA:          -8.218
REMARK INTER:                  -7.625
REMARK INTRA:                  -0.593
REMARK UNBOUND:                -0.711
REMARK  Name = 
REMARK  7 active torsions:
REMARK  status: ('A' for Active; 'I' for Inactive)
REMARK    1  A    between atoms: N_1  and  C_2
REMARK    2  A    between atoms: C_2  and  C_3
REMARK    3  A    between atoms: C_3  and  C_4
REMARK    4  A    between atoms: C_8  and  C_9
REMARK    5  A    between atoms: C_9  and  N_10
REMARK    6  A    between atoms: C_15  and  C_16
REMARK    7  A    between atoms: C_16  and  O_18
REMARK                            x       y       z     vdW  Elec       q    Type
REMARK                         _______ _______ _______ _____ _____    ______ ____
ROOT
ATOM      1  N   UNL     1      49.459   4.512  17.305  0.00  0.00    +0.000 N 
ATOM      2  N   UNL     1      48.369   3.775  16.985  0.00  0.00    +0.000 NA
ATOM      3  C   UNL     1      48.812   2.517  17.020  0.00  0.00    +0.000 A 
ATOM      4  C   UNL     1      50.178   2.430  17.359  0.00  0.00    +0.000 A 
ATOM      5  C   UNL     1      51.112   1.389  17.493  0.00  0.00    +0.000 A 
ATOM      6  C   UNL     1      52.442   1.699  17.822  0.00  0.00    +0.000 A 
ATOM      7  C   UNL     1      52.828   3.032  18.023  0.00  0.00    +0.000 A 
ATOM      8  C   UNL     1      51.899   4.080  17.907  0.00  0.00    +0.000 A 
ATOM      9  C   UNL     1      50.581   3.748  17.561  0.00  0.00    +0.000 A 
ENDROOT
BRANCH   6  10
ATOM     10  C   UNL     1      53.409   0.567  17.866  0.00  0.00    +0.000 C 
ATOM     11  O   UNL     1      54.063   0.302  18.859  0.00  0.00    +0.000 OA
BRANCH  10  12
ATOM     12  O   UNL     1      53.524  -0.122  16.710  0.00  0.00    +0.000 OA
ATOM     13  H   UNL     1      53.026   0.237  15.952  0.00  0.00    +0.000 HD
ENDBRANCH  10  12
ENDBRANCH   6  10
BRANCH   1  14
ATOM     14  C   UNL     1      49.398   5.960  17.163  0.00  0.00    +0.000 C 
BRANCH  14  19
ATOM     15  C   UNL     1      48.101   6.312  13.723  0.00  0.00    +0.000 A 
ATOM     16  C   UNL     1      48.878   7.326  13.169  0.00  0.00    +0.000 A 
ATOM     17  C   UNL     1      49.910   7.867  13.927  0.00  0.00    +0.000 A 
ATOM     18  C   UNL     1      50.127   7.400  15.219  0.00  0.00    +0.000 A 
ATOM     19  C   UNL     1      49.290   6.409  15.729  0.00  0.00    +0.000 A 
ATOM     20  N   UNL     1      48.283   5.865  14.992  0.00  0.00    +0.000 NA
BRANCH  15  21
ATOM     21  C   UNL     1      47.015   5.658  12.909  0.00  0.00    +0.000 C 
BRANCH  21  22
ATOM     22  C   UNL     1      46.284   4.567  13.691  0.00  0.00    +0.000 C 
BRANCH  22  23
ATOM     23  N   UNL     1      47.151   3.405  13.900  0.00  0.00    +0.000 NA
ATOM     24  H   UNL     1      47.956   3.471  13.278  0.00  0.00    +0.000 HD
ATOM     25  H   UNL     1      46.654   2.558  13.625  0.00  0.00    +0.000 HD
ENDBRANCH  22  23
ENDBRANCH  21  22
ENDBRANCH  15  21
ENDBRANCH  14  19
ENDBRANCH   1  14
TORSDOF 7
ENDMDL
MODEL 8
REMARK VINA RESULT:    -5.551      2.141      3.003
REMARK INTER + INTRA:          -8.209
REMARK INTER:                  -7.570
REMARK INTRA:                  -0.639
REMARK UNBOUND:                -0.711
REMARK  Name = 
REMARK  7 active torsions:
REMARK  status: ('A' for Active; 'I' for Inactive)
REMARK    1  A    between atoms: N_1  and  C_2
REMARK    2  A    between atoms: C_2  and  C_3
REMARK    3  A    between atoms: C_3  and  C_4
REMARK    4  A    between atoms: C_8  and  C_9
REMARK    5  A    between atoms: C_9  and  N_10
REMARK    6  A    between atoms: C_15  and  C_16
REMARK    7  A    between atoms: C_16  and  O_18
REMARK                            x       y       z     vdW  Elec       q    Type
REMARK                         _______ _______ _______ _____ _____    ______ ____
ROOT
ATOM      1  N   UNL     1      44.575   6.518  11.943  0.00  0.00    +0.000 N 
ATOM      2  N   UNL     1      44.091   5.976  13.086  0.00  0.00    +0.000 NA
ATOM      3  C   UNL     1      44.137   4.662  12.860  0.00  0.00    +0.000 A 
ATOM      4  C   UNL     1      44.646   4.345  11.584  0.00  0.00    +0.000 A 
ATOM      5  C   UNL     1      44.862   3.162  10.857  0.00  0.00    +0.000 A 
ATOM      6  C   UNL     1      45.371   3.244   9.550  0.00  0.00    +0.000 A 
ATOM      7  C   UNL     1      45.668   4.491   8.984  0.00  0.00    +0.000 A 
ATOM      8  C   UNL     1      45.471   5.680   9.707  0.00  0.00    +0.000 A 
ATOM      9  C   UNL     1      44.946   5.575  11.004  0.00  0.00    +0.000 A 
ENDROOT
BRANCH   6  10
ATOM     10  C   UNL     1      45.498   1.967   8.794  0.00  0.00    +0.000 C 
ATOM     11  O   UNL     1      46.421   1.747   8.030  0.00  0.00    +0.000 OA
BRANCH  10  12
ATOM     12  O   UNL     1      44.494   1.088   8.999  0.00  0.00    +0.000 OA
ATOM     13  H   UNL     1      44.682   0.163   8.751  0.00  0.00    +0.000 HD
ENDBRANCH  10  12
ENDBRANCH   6  10
BRANCH   1  14
ATOM     14  C   UNL     1      44.480   7.958  11.750  0.00  0.00    +0.000 C 
BRANCH  14  19
ATOM     15  C   UNL     1      47.595   8.669  13.602  0.00  0.00    +0.000 A 
ATOM     16  C   UNL     1      48.024   9.890  13.090  0.00  0.00    +0.000 A 
ATOM     17  C   UNL     1      47.228  10.538  12.153  0.00  0.00    +0.000 A 
ATOM     18  C   UNL     1      46.041   9.945  11.737  0.00  0.00    +0.000 A 
ATOM     19  C   UNL     1      45.686   8.703  12.260  0.00  0.00    +0.000 A 
ATOM     20  N   UNL     1      46.453   8.065  13.186  0.00  0.00    +0.000 NA
BRANCH  15  21
ATOM     21  C   UNL     1      48.400   7.968  14.665  0.00  0.00    +0.000 C 
BRANCH  21  22
ATOM     22  C   UNL     1      49.625   7.258  14.090  0.00  0.00    +0.000 C 
BRANCH  22  23
ATOM     23  N   UNL     1      49.259   6.448  12.925  0.00  0.00    +0.000 NA
ATOM     24  H   UNL     1      49.294   7.029  12.088  0.00  0.00    +0.000 HD
ATOM     25  H   UNL     1      48.289   6.145  13.014  0.00  0.00    +0.000 HD
ENDBRANCH  22  23
ENDBRANCH  21  22
ENDBRANCH  15  21
ENDBRANCH  14  19
ENDBRANCH   1  14
TORSDOF 7
ENDMDL
MODEL 9
REMARK VINA RESULT:    -5.473      4.034      5.651
REMARK INTER + INTRA:          -8.104
REMARK INTER:                  -7.559
REMARK INTRA:                  -0.545
REMARK UNBOUND:                -0.711
REMARK  Name = 
REMARK  7 active torsions:
REMARK  status: ('A' for Active; 'I' for Inactive)
REMARK    1  A    between atoms: N_1  and  C_2
REMARK    2  A    between atoms: C_2  and  C_3
REMARK    3  A    between atoms: C_3  and  C_4
REMARK    4  A    between atoms: C_8  and  C_9
REMARK    5  A    between atoms: C_9  and  N_10
REMARK    6  A    between atoms: C_15  and  C_16
REMARK    7  A    between atoms: C_16  and  O_18
REMARK                            x       y       z     vdW  Elec       q    Type
REMARK                         _______ _______ _______ _____ _____    ______ ____
ROOT
ATOM      1  N   UNL     1      47.478   6.125  13.942  0.00  0.00    +0.000 N 
ATOM      2  N   UNL     1      47.759   5.252  14.938  0.00  0.00    +0.000 NA
ATOM      3  C   UNL     1      47.096   4.147  14.591  0.00  0.00    +0.000 A 
ATOM      4  C   UNL     1      46.388   4.295  13.381  0.00  0.00    +0.000 A 
ATOM      5  C   UNL     1      45.532   3.485  12.615  0.00  0.00    +0.000 A 
ATOM      6  C   UNL     1      44.965   4.005  11.440  0.00  0.00    +0.000 A 
ATOM      7  C   UNL     1      45.258   5.314  11.033  0.00  0.00    +0.000 A 
ATOM      8  C   UNL     1      46.125   6.128  11.782  0.00  0.00    +0.000 A 
ATOM      9  C   UNL     1      46.666   5.594  12.960  0.00  0.00    +0.000 A 
ENDROOT
BRANCH   6  10
ATOM     10  C   UNL     1      43.997   3.135  10.715  0.00  0.00    +0.000 C 
ATOM     11  O   UNL     1      44.186   2.756   9.573  0.00  0.00    +0.000 OA
BRANCH  10  12
ATOM     12  O   UNL     1      42.883   2.827  11.413  0.00  0.00    +0.000 OA
ATOM     13  H   UNL     1      42.041   3.127  11.022  0.00  0.00    +0.000 HD
ENDBRANCH  10  12
ENDBRANCH   6  10
BRANCH   1  14
ATOM     14  C   UNL     1      47.874   7.518  14.094  0.00  0.00    +0.000 C 
BRANCH  14  19
ATOM     15  C   UNL     1      51.050   8.247  12.356  0.00  0.00    +0.000 A 
ATOM     16  C   UNL     1      51.980   8.373  13.383  0.00  0.00    +0.000 A 
ATOM     17  C   UNL     1      51.566   8.143  14.691  0.00  0.00    +0.000 A 
ATOM     18  C   UNL     1      50.238   7.815  14.939  0.00  0.00    +0.000 A 
ATOM     19  C   UNL     1      49.348   7.741  13.869  0.00  0.00    +0.000 A 
ATOM     20  N   UNL     1      49.745   7.955  12.585  0.00  0.00    +0.000 NA
BRANCH  15  21
ATOM     21  C   UNL     1      51.476   8.426  10.922  0.00  0.00    +0.000 C 
BRANCH  21  22
ATOM     22  C   UNL     1      52.838   7.791  10.639  0.00  0.00    +0.000 C 
BRANCH  22  23
ATOM     23  N   UNL     1      52.702   6.353  10.395  0.00  0.00    +0.000 NA
ATOM     24  H   UNL     1      52.623   5.867  11.288  0.00  0.00    +0.000 HD
ATOM     25  H   UNL     1      53.554   6.001   9.959  0.00  0.00    +0.000 HD
ENDBRANCH  22  23
ENDBRANCH  21  22
ENDBRANCH  15  21
ENDBRANCH  14  19
ENDBRANCH   1  14
TORSDOF 7
ENDMDL
