MODEL 1
REMARK VINA RESULT:    -7.573      0.000      0.000
REMARK INTER + INTRA:          -9.477
REMARK INTER:                  -9.344
REMARK INTRA:                  -0.134
REMARK UNBOUND:                -0.134
REMARK  Name = 
REMARK  6 active torsions:
REMARK  status: ('A' for Active; 'I' for Inactive)
REMARK    1  A    between atoms: C_1  and  C_2
REMARK    2  A    between atoms: C_4  and  N_5
REMARK    3  A    between atoms: C_4  and  C_16
REMARK    4  A    between atoms: N_5  and  C_6
REMARK    5  A    between atoms: C_9  and  C_10
REMARK    6  A    between atoms: C_16  and  C_17
REMARK                            x       y       z     vdW  Elec       q    Type
REMARK                         _______ _______ _______ _____ _____    ______ ____
ROOT
ATOM      1  N   UNL     1      44.167   4.826   9.858  0.00  0.00    +0.000 N 
ATOM      2  H   UNL     1      43.195   4.767   9.558  0.00  0.00    +0.000 HD
ENDROOT
BRANCH   1   3
ATOM      3  C   UNL     1      45.003   4.066   9.002  0.00  0.00    +0.000 A 
ATOM      4  C   UNL     1      45.914   4.772   8.197  0.00  0.00    +0.000 A 
ATOM      5  C   UNL     1      46.796   4.109   7.335  0.00  0.00    +0.000 A 
ATOM      6  C   UNL     1      46.778   2.713   7.258  0.00  0.00    +0.000 A 
ATOM      7  C   UNL     1      45.873   1.996   8.043  0.00  0.00    +0.000 A 
ATOM      8  C   UNL     1      45.008   2.668   8.907  0.00  0.00    +0.000 A 
ATOM      9  F   UNL     1      44.151   1.923   9.622  0.00  0.00    +0.000 F 
BRANCH   6  10
ATOM     10  C   UNL     1      47.669   1.955   6.343  0.00  0.00    +0.000 C 
ATOM     11  N   UNL     1      48.256   2.632   5.316  0.00  0.00    +0.000 N 
ATOM     12  O   UNL     1      47.895   0.760   6.514  0.00  0.00    +0.000 OA
ATOM     13  H   UNL     1      48.296   3.638   5.268  0.00  0.00    +0.000 HD
ATOM     14  H   UNL     1      48.930   2.109   4.774  0.00  0.00    +0.000 HD
ENDBRANCH   6  10
ENDBRANCH   1   3
BRANCH   1  18
ATOM     15  C   UNL     1      43.052   4.499  13.654  0.00  0.00    +0.000 C 
ATOM     16  C   UNL     1      43.484   4.149  12.275  0.00  0.00    +0.000 C 
ATOM     17  C   UNL     1      44.879   3.692  12.008  0.00  0.00    +0.000 C 
ATOM     18  C   UNL     1      44.394   4.988  11.336  0.00  0.00    +0.000 C 
BRANCH  18  19
ATOM     19  C   UNL     1      45.158   6.300  11.730  0.00  0.00    +0.000 C 
ATOM     20  C   UNL     1      44.312   7.547  11.368  0.00  0.00    +0.000 C 
ATOM     21  C   UNL     1      45.607   6.409  13.197  0.00  0.00    +0.000 C 
ATOM     22  C   UNL     1      46.757   7.410  13.227  0.00  0.00    +0.000 C 
ATOM     23  C   UNL     1      47.365   7.384  11.830  0.00  0.00    +0.000 C 
ATOM     24  C   UNL     1      46.530   6.393  11.016  0.00  0.00    +0.000 C 
ENDBRANCH  18  19
ENDBRANCH   1  18
TORSDOF 4
ENDMDL
MODEL 2
REMARK VINA RESULT:    -7.434      1.051      2.445
REMARK INTER + INTRA:          -9.306
REMARK INTER:                  -9.114
REMARK INTRA:                  -0.192
REMARK UNBOUND:                -0.134
REMARK  Name = 
REMARK  6 active torsions:
REMARK  status: ('A' for Active; 'I' for Inactive)
REMARK    1  A    between atoms: C_1  and  C_2
REMARK    2  A    between atoms: C_4  and  N_5
REMARK    3  A    between atoms: C_4  and  C_16
REMARK    4  A    between atoms: N_5  and  C_6
REMARK    5  A    between atoms: C_9  and  C_10
REMARK    6  A    between atoms: C_16  and  C_17
REMARK                            x       y       z     vdW  Elec       q    Type
REMARK                         _______ _______ _______ _____ _____    ______ ____
ROOT
ATOM      1  N   UNL     1      44.343   5.078  10.097  0.00  0.00    +0.000 N 
ATOM      2  H   UNL     1      43.369   4.793  10.184  0.00  0.00    +0.000 HD
ENDROOT
BRANCH   1   3
ATOM      3  C   UNL     1      45.051   4.190   9.248  0.00  0.00    +0.000 A 
ATOM      4  C   UNL     1      45.948   4.759   8.326  0.00  0.00    +0.000 A 
ATOM      5  C   UNL     1      46.709   3.964   7.459  0.00  0.00    +0.000 A 
ATOM      6  C   UNL     1      46.579   2.572   7.497  0.00  0.00    +0.000 A 
ATOM      7  C   UNL     1      45.686   1.991   8.399  0.00  0.00    +0.000 A 
ATOM      8  C   UNL     1      44.944   2.793   9.266  0.00  0.00    +0.000 A 
ATOM      9  F   UNL     1      44.090   2.176  10.097  0.00  0.00    +0.000 F 
BRANCH   6  10
ATOM     10  C   UNL     1      47.337   1.678   6.585  0.00  0.00    +0.000 C 
ATOM     11  N   UNL     1      48.291   2.237   5.788  0.00  0.00    +0.000 N 
ATOM     12  O   UNL     1      47.134   0.467   6.560  0.00  0.00    +0.000 OA
ATOM     13  H   UNL     1      48.658   3.166   5.932  0.00  0.00    +0.000 HD
ATOM     14  H   UNL     1      48.852   1.588   5.253  0.00  0.00    +0.000 HD
ENDBRANCH   6  10
ENDBRANCH   1   3
BRANCH   1  18
ATOM     15  C   UNL     1      46.766   7.715  11.811  0.00  0.00    +0.000 C 
ATOM     16  C   UNL     1      45.635   7.128  11.047  0.00  0.00    +0.000 C 
ATOM     17  C   UNL     1      44.260   7.096  11.626  0.00  0.00    +0.000 C 
ATOM     18  C   UNL     1      44.944   5.758  11.297  0.00  0.00    +0.000 C 
BRANCH  18  19
ATOM     19  C   UNL     1      45.217   4.802  12.511  0.00  0.00    +0.000 C 
ATOM     20  C   UNL     1      43.906   4.105  12.954  0.00  0.00    +0.000 C 
ATOM     21  C   UNL     1      46.306   3.736  12.303  0.00  0.00    +0.000 C 
ATOM     22  C   UNL     1      46.789   3.332  13.692  0.00  0.00    +0.000 C 
ATOM     23  C   UNL     1      46.492   4.522  14.596  0.00  0.00    +0.000 C 
ATOM     24  C   UNL     1      45.813   5.573  13.715  0.00  0.00    +0.000 C 
ENDBRANCH  18  19
ENDBRANCH   1  18
TORSDOF 4
ENDMDL
MODEL 3
REMARK VINA RESULT:    -6.523      3.487      5.374
REMARK INTER + INTRA:          -8.182
REMARK INTER:                  -7.584
REMARK INTRA:                  -0.598
REMARK UNBOUND:                -0.134
REMARK  Name = 
REMARK  6 active torsions:
REMARK  status: ('A' for Active; 'I' for Inactive)
REMARK    1  A    between atoms: C_1  and  C_2
REMARK    2  A    between atoms: C_4  and  N_5
REMARK    3  A    between atoms: C_4  and  C_16
REMARK    4  A    between atoms: N_5  and  C_6
REMARK    5  A    between atoms: C_9  and  C_10
REMARK    6  A    between atoms: C_16  and  C_17
REMARK                            x       y       z     vdW  Elec       q    Type
REMARK                         _______ _______ _______ _____ _____    ______ ____
ROOT
ATOM      1  N   UNL     1      46.562   7.509  13.556  0.00  0.00    +0.000 N 
ATOM      2  H   UNL     1      46.133   7.709  14.459  0.00  0.00    +0.000 HD
ENDROOT
BRANCH   1   3
ATOM      3  C   UNL     1      45.969   6.366  12.962  0.00  0.00    +0.000 A 
ATOM      4  C   UNL     1      45.399   6.526  11.687  0.00  0.00    +0.000 A 
ATOM      5  C   UNL     1      44.809   5.452  11.009  0.00  0.00    +0.000 A 
ATOM      6  C   UNL     1      44.772   4.188  11.605  0.00  0.00    +0.000 A 
ATOM      7  C   UNL     1      45.325   4.013  12.875  0.00  0.00    +0.000 A 
ATOM      8  C   UNL     1      45.922   5.088  13.534  0.00  0.00    +0.000 A 
ATOM      9  F   UNL     1      46.419   4.860  14.759  0.00  0.00    +0.000 F 
BRANCH   6  10
ATOM     10  C   UNL     1      44.136   3.017  10.948  0.00  0.00    +0.000 C 
ATOM     11  N   UNL     1      44.802   2.421   9.919  0.00  0.00    +0.000 N 
ATOM     12  O   UNL     1      43.055   2.578  11.329  0.00  0.00    +0.000 OA
ATOM     13  H   UNL     1      45.778   2.585   9.723  0.00  0.00    +0.000 HD
ATOM     14  H   UNL     1      44.387   1.571   9.561  0.00  0.00    +0.000 HD
ENDBRANCH   6  10
ENDBRANCH   1   3
BRANCH   1  18
ATOM     15  C   UNL     1      50.340   7.474  14.776  0.00  0.00    +0.000 C 
ATOM     16  C   UNL     1      49.026   7.029  14.240  0.00  0.00    +0.000 C 
ATOM     17  C   UNL     1      48.853   6.752  12.785  0.00  0.00    +0.000 C 
ATOM     18  C   UNL     1      48.014   7.875  13.418  0.00  0.00    +0.000 C 
BRANCH  18  19
ATOM     19  C   UNL     1      48.264   9.322  12.865  0.00  0.00    +0.000 C 
ATOM     20  C   UNL     1      48.639  10.284  14.020  0.00  0.00    +0.000 C 
ATOM     21  C   UNL     1      49.312   9.449  11.746  0.00  0.00    +0.000 C 
ATOM     22  C   UNL     1      48.997  10.741  11.000  0.00  0.00    +0.000 C 
ATOM     23  C   UNL     1      47.513  11.001  11.231  0.00  0.00    +0.000 C 
ATOM     24  C   UNL     1      47.013   9.871  12.133  0.00  0.00    +0.000 C 
ENDBRANCH  18  19
ENDBRANCH   1  18
TORSDOF 4
ENDMDL
MODEL 4
REMARK VINA RESULT:    -6.313      3.525      5.517
REMARK INTER + INTRA:          -7.923
REMARK INTER:                  -7.469
REMARK INTRA:                  -0.454
REMARK UNBOUND:                -0.134
REMARK  Name = 
REMARK  6 active torsions:
REMARK  status: ('A' for Active; 'I' for Inactive)
REMARK    1  A    between atoms: C_1  and  C_2
REMARK    2  A    between atoms: C_4  and  N_5
REMARK    3  A    between atoms: C_4  and  C_16
REMARK    4  A    between atoms: N_5  and  C_6
REMARK    5  A    between atoms: C_9  and  C_10
REMARK    6  A    between atoms: C_16  and  C_17
REMARK                            x       y       z     vdW  Elec       q    Type
REMARK                         _______ _______ _______ _____ _____    ______ ____
ROOT
ATOM      1  N   UNL     1      46.650   7.600  13.538  0.00  0.00    +0.000 N 
ATOM      2  H   UNL     1      46.333   7.666  14.504  0.00  0.00    +0.000 HD
ENDROOT
BRANCH   1   3
ATOM      3  C   UNL     1      46.017   6.518  12.876  0.00  0.00    +0.000 A 
ATOM      4  C   UNL     1      46.116   5.250  13.475  0.00  0.00    +0.000 A 
ATOM      5  C   UNL     1      45.507   4.123  12.908  0.00  0.00    +0.000 A 
ATOM      6  C   UNL     1      44.786   4.246  11.716  0.00  0.00    +0.000 A 
ATOM      7  C   UNL     1      44.685   5.496  11.103  0.00  0.00    +0.000 A 
ATOM      8  C   UNL     1      45.286   6.613  11.684  0.00  0.00    +0.000 A 
ATOM      9  F   UNL     1      45.168   7.782  11.037  0.00  0.00    +0.000 F 
BRANCH   6  10
ATOM     10  C   UNL     1      44.142   3.084  11.052  0.00  0.00    +0.000 C 
ATOM     11  N   UNL     1      44.858   2.408  10.110  0.00  0.00    +0.000 N 
ATOM     12  O   UNL     1      43.008   2.722  11.354  0.00  0.00    +0.000 OA
ATOM     13  H   UNL     1      45.854   2.509   9.995  0.00  0.00    +0.000 HD
ATOM     14  H   UNL     1      44.427   1.566   9.751  0.00  0.00    +0.000 HD
ENDBRANCH   6  10
ENDBRANCH   1   3
BRANCH   1  18
ATOM     15  C   UNL     1      50.526   7.714  14.388  0.00  0.00    +0.000 C 
ATOM     16  C   UNL     1      49.189   7.222  13.966  0.00  0.00    +0.000 C 
ATOM     17  C   UNL     1      48.887   6.980  12.525  0.00  0.00    +0.000 C 
ATOM     18  C   UNL     1      48.064   8.041  13.274  0.00  0.00    +0.000 C 
BRANCH  18  19
ATOM     19  C   UNL     1      48.191   9.514  12.750  0.00  0.00    +0.000 C 
ATOM     20  C   UNL     1      48.644  10.456  13.893  0.00  0.00    +0.000 C 
ATOM     21  C   UNL     1      49.109   9.724  11.534  0.00  0.00    +0.000 C 
ATOM     22  C   UNL     1      48.662  11.023  10.871  0.00  0.00    +0.000 C 
ATOM     23  C   UNL     1      47.201  11.207  11.264  0.00  0.00    +0.000 C 
ATOM     24  C   UNL     1      46.848  10.027  12.172  0.00  0.00    +0.000 C 
ENDBRANCH  18  19
ENDBRANCH   1  18
TORSDOF 4
ENDMDL
MODEL 5
REMARK VINA RESULT:    -6.302      5.292      7.910
REMARK INTER + INTRA:          -7.910
REMARK INTER:                  -7.346
REMARK INTRA:                  -0.564
REMARK UNBOUND:                -0.134
REMARK  Name = 
REMARK  6 active torsions:
REMARK  status: ('A' for Active; 'I' for Inactive)
REMARK    1  A    between atoms: C_1  and  C_2
REMARK    2  A    between atoms: C_4  and  N_5
REMARK    3  A    between atoms: C_4  and  C_16
REMARK    4  A    between atoms: N_5  and  C_6
REMARK    5  A    between atoms: C_9  and  C_10
REMARK    6  A    between atoms: C_16  and  C_17
REMARK                            x       y       z     vdW  Elec       q    Type
REMARK                         _______ _______ _______ _____ _____    ______ ____
ROOT
ATOM      1  N   UNL     1      47.571   5.126  13.491  0.00  0.00    +0.000 N 
ATOM      2  H   UNL     1      47.769   4.205  13.101  0.00  0.00    +0.000 HD
ENDROOT
BRANCH   1   3
ATOM      3  C   UNL     1      47.720   5.116  14.901  0.00  0.00    +0.000 A 
ATOM      4  C   UNL     1      47.046   4.108  15.612  0.00  0.00    +0.000 A 
ATOM      5  C   UNL     1      47.148   4.002  17.005  0.00  0.00    +0.000 A 
ATOM      6  C   UNL     1      47.930   4.917  17.718  0.00  0.00    +0.000 A 
ATOM      7  C   UNL     1      48.598   5.930  17.029  0.00  0.00    +0.000 A 
ATOM      8  C   UNL     1      48.498   6.017  15.640  0.00  0.00    +0.000 A 
ATOM      9  F   UNL     1      49.150   7.023  15.038  0.00  0.00    +0.000 F 
BRANCH   6  10
ATOM     10  C   UNL     1      48.055   4.873  19.198  0.00  0.00    +0.000 C 
ATOM     11  N   UNL     1      48.582   3.750  19.762  0.00  0.00    +0.000 N 
ATOM     12  O   UNL     1      47.718   5.824  19.897  0.00  0.00    +0.000 OA
ATOM     13  H   UNL     1      49.084   3.050  19.237  0.00  0.00    +0.000 HD
ATOM     14  H   UNL     1      48.742   3.793  20.759  0.00  0.00    +0.000 HD
ENDBRANCH   6  10
ENDBRANCH   1   3
BRANCH   1  18
ATOM     15  C   UNL     1      45.526   8.471  12.868  0.00  0.00    +0.000 C 
ATOM     16  C   UNL     1      46.643   7.492  12.935  0.00  0.00    +0.000 C 
ATOM     17  C   UNL     1      47.181   6.866  11.692  0.00  0.00    +0.000 C 
ATOM     18  C   UNL     1      46.551   5.951  12.756  0.00  0.00    +0.000 C 
BRANCH  18  19
ATOM     19  C   UNL     1      45.274   5.153  12.315  0.00  0.00    +0.000 C 
ATOM     20  C   UNL     1      45.551   3.630  12.347  0.00  0.00    +0.000 C 
ATOM     21  C   UNL     1      43.986   5.445  13.104  0.00  0.00    +0.000 C 
ATOM     22  C   UNL     1      42.823   5.042  12.204  0.00  0.00    +0.000 C 
ATOM     23  C   UNL     1      43.352   5.135  10.778  0.00  0.00    +0.000 C 
ATOM     24  C   UNL     1      44.819   5.557  10.889  0.00  0.00    +0.000 C 
ENDBRANCH  18  19
ENDBRANCH   1  18
TORSDOF 4
ENDMDL
MODEL 6
REMARK VINA RESULT:    -6.195      4.158      6.046
REMARK INTER + INTRA:          -7.777
REMARK INTER:                  -7.180
REMARK INTRA:                  -0.597
REMARK UNBOUND:                -0.134
REMARK  Name = 
REMARK  6 active torsions:
REMARK  status: ('A' for Active; 'I' for Inactive)
REMARK    1  A    between atoms: C_1  and  C_2
REMARK    2  A    between atoms: C_4  and  N_5
REMARK    3  A    between atoms: C_4  and  C_16
REMARK    4  A    between atoms: N_5  and  C_6
REMARK    5  A    between atoms: C_9  and  C_10
REMARK    6  A    between atoms: C_16  and  C_17
REMARK                            x       y       z     vdW  Elec       q    Type
REMARK                         _______ _______ _______ _____ _____    ______ ____
ROOT
ATOM      1  N   UNL     1      48.511   6.202  13.068  0.00  0.00    +0.000 N 
ATOM      2  H   UNL     1      49.136   5.722  12.421  0.00  0.00    +0.000 HD
ENDROOT
BRANCH   1   3
ATOM      3  C   UNL     1      47.158   5.897  12.777  0.00  0.00    +0.000 A 
ATOM      4  C   UNL     1      46.631   6.393  11.571  0.00  0.00    +0.000 A 
ATOM      5  C   UNL     1      45.311   6.128  11.185  0.00  0.00    +0.000 A 
ATOM      6  C   UNL     1      44.485   5.359  12.011  0.00  0.00    +0.000 A 
ATOM      7  C   UNL     1      44.988   4.866  13.216  0.00  0.00    +0.000 A 
ATOM      8  C   UNL     1      46.309   5.127  13.583  0.00  0.00    +0.000 A 
ATOM      9  F   UNL     1      46.727   4.641  14.761  0.00  0.00    +0.000 F 
BRANCH   6  10
ATOM     10  C   UNL     1      43.069   5.067  11.669  0.00  0.00    +0.000 C 
ATOM     11  N   UNL     1      42.171   6.091  11.734  0.00  0.00    +0.000 N 
ATOM     12  O   UNL     1      42.713   3.947  11.315  0.00  0.00    +0.000 OA
ATOM     13  H   UNL     1      42.442   7.061  11.787  0.00  0.00    +0.000 HD
ATOM     14  H   UNL     1      41.240   5.880  11.402  0.00  0.00    +0.000 HD
ENDBRANCH   6  10
ENDBRANCH   1   3
BRANCH   1  18
ATOM     15  C   UNL     1      48.289   9.319  15.517  0.00  0.00    +0.000 C 
ATOM     16  C   UNL     1      48.507   7.940  15.004  0.00  0.00    +0.000 C 
ATOM     17  C   UNL     1      49.887   7.406  14.821  0.00  0.00    +0.000 C 
ATOM     18  C   UNL     1      48.985   7.534  13.582  0.00  0.00    +0.000 C 
BRANCH  18  19
ATOM     19  C   UNL     1      49.478   8.517  12.464  0.00  0.00    +0.000 C 
ATOM     20  C   UNL     1      50.097   7.727  11.284  0.00  0.00    +0.000 C 
ATOM     21  C   UNL     1      48.430   9.500  11.915  0.00  0.00    +0.000 C 
ATOM     22  C   UNL     1      49.203  10.669  11.313  0.00  0.00    +0.000 C 
ATOM     23  C   UNL     1      50.545  10.693  12.035  0.00  0.00    +0.000 C 
ATOM     24  C   UNL     1      50.529   9.515  13.013  0.00  0.00    +0.000 C 
ENDBRANCH  18  19
ENDBRANCH   1  18
TORSDOF 4
ENDMDL
MODEL 7
REMARK VINA RESULT:    -6.097      3.530      5.741
REMARK INTER + INTRA:          -7.656
REMARK INTER:                  -7.190
REMARK INTRA:                  -0.466
REMARK UNBOUND:                -0.134
REMARK  Name = 
REMARK  6 active torsions:
REMARK  status: ('A' for Active; 'I' for Inactive)
REMARK    1  A    between atoms: C_1  and  C_2
REMARK    2  A    between atoms: C_4  and  N_5
REMARK    3  A    between atoms: C_4  and  C_16
REMARK    4  A    between atoms: N_5  and  C_6
REMARK    5  A    between atoms: C_9  and  C_10
REMARK    6  A    between atoms: C_16  and  C_17
REMARK                            x       y       z     vdW  Elec       q    Type
REMARK                         _______ _______ _______ _____ _____    ______ ____
ROOT
ATOM      1  N   UNL     1      46.555   7.727  13.453  0.00  0.00    +0.000 N 
ATOM      2  H   UNL     1      46.204   7.836  14.404  0.00  0.00    +0.000 HD
ENDROOT
BRANCH   1   3
ATOM      3  C   UNL     1      45.946   6.616  12.818  0.00  0.00    +0.000 A 
ATOM      4  C   UNL     1      46.172   5.348  13.381  0.00  0.00    +0.000 A 
ATOM      5  C   UNL     1      45.597   4.192  12.838  0.00  0.00    +0.000 A 
ATOM      6  C   UNL     1      44.782   4.286  11.705  0.00  0.00    +0.000 A 
ATOM      7  C   UNL     1      44.554   5.536  11.127  0.00  0.00    +0.000 A 
ATOM      8  C   UNL     1      45.123   6.681  11.685  0.00  0.00    +0.000 A 
ATOM      9  F   UNL     1      44.882   7.850  11.072  0.00  0.00    +0.000 F 
BRANCH   6  10
ATOM     10  C   UNL     1      44.167   3.094  11.067  0.00  0.00    +0.000 C 
ATOM     11  N   UNL     1      44.899   2.416  10.139  0.00  0.00    +0.000 N 
ATOM     12  O   UNL     1      43.042   2.710  11.377  0.00  0.00    +0.000 OA
ATOM     13  H   UNL     1      45.893   2.540  10.021  0.00  0.00    +0.000 HD
ATOM     14  H   UNL     1      44.489   1.556   9.799  0.00  0.00    +0.000 HD
ENDBRANCH   6  10
ENDBRANCH   1   3
BRANCH   1  18
ATOM     15  C   UNL     1      49.978   7.653  11.444  0.00  0.00    +0.000 C 
ATOM     16  C   UNL     1      48.556   7.903  11.801  0.00  0.00    +0.000 C 
ATOM     17  C   UNL     1      48.094   9.274  12.167  0.00  0.00    +0.000 C 
ATOM     18  C   UNL     1      47.977   8.159  13.220  0.00  0.00    +0.000 C 
BRANCH  18  19
ATOM     19  C   UNL     1      48.815   8.353  14.531  0.00  0.00    +0.000 C 
ATOM     20  C   UNL     1      49.333   6.988  15.049  0.00  0.00    +0.000 C 
ATOM     21  C   UNL     1      49.994   9.336  14.443  0.00  0.00    +0.000 C 
ATOM     22  C   UNL     1      50.287   9.794  15.868  0.00  0.00    +0.000 C 
ATOM     23  C   UNL     1      48.982   9.618  16.635  0.00  0.00    +0.000 C 
ATOM     24  C   UNL     1      47.975   9.031  15.644  0.00  0.00    +0.000 C 
ENDBRANCH  18  19
ENDBRANCH   1  18
TORSDOF 4
ENDMDL
MODEL 8
REMARK VINA RESULT:    -6.059      3.528      5.733
REMARK INTER + INTRA:          -7.609
REMARK INTER:                  -7.131
REMARK INTRA:                  -0.478
REMARK UNBOUND:                -0.134
REMARK  Name = 
REMARK  6 active torsions:
REMARK  status: ('A' for Active; 'I' for Inactive)
REMARK    1  A    between atoms: C_1  and  C_2
REMARK    2  A    between atoms: C_4  and  N_5
REMARK    3  A    between atoms: C_4  and  C_16
REMARK    4  A    between atoms: N_5  and  C_6
REMARK    5  A    between atoms: C_9  and  C_10
REMARK    6  A    between atoms: C_16  and  C_17
REMARK                            x       y       z     vdW  Elec       q    Type
REMARK                         _______ _______ _______ _____ _____    ______ ____
ROOT
ATOM      1  N   UNL     1      46.622   7.844  13.386  0.00  0.00    +0.000 N 
ATOM      2  H   UNL     1      46.221   8.050  14.299  0.00  0.00    +0.000 HD
ENDROOT
BRANCH   1   3
ATOM      3  C   UNL     1      46.049   6.668  12.840  0.00  0.00    +0.000 A 
ATOM      4  C   UNL     1      45.276   6.809  11.675  0.00  0.00    +0.000 A 
ATOM      5  C   UNL     1      44.685   5.704  11.049  0.00  0.00    +0.000 A 
ATOM      6  C   UNL     1      44.856   4.424  11.588  0.00  0.00    +0.000 A 
ATOM      7  C   UNL     1      45.614   4.267  12.751  0.00  0.00    +0.000 A 
ATOM      8  C   UNL     1      46.207   5.375  13.357  0.00  0.00    +0.000 A 
ATOM      9  F   UNL     1      46.907   5.160  14.481  0.00  0.00    +0.000 F 
BRANCH   6  10
ATOM     10  C   UNL     1      44.233   3.218  10.987  0.00  0.00    +0.000 C 
ATOM     11  N   UNL     1      44.998   2.445  10.165  0.00  0.00    +0.000 N 
ATOM     12  O   UNL     1      43.072   2.905  11.235  0.00  0.00    +0.000 OA
ATOM     13  H   UNL     1      46.003   2.518  10.115  0.00  0.00    +0.000 HD
ATOM     14  H   UNL     1      44.574   1.583   9.852  0.00  0.00    +0.000 HD
ENDBRANCH   6  10
ENDBRANCH   1   3
BRANCH   1  18
ATOM     15  C   UNL     1      50.091   7.716  11.459  0.00  0.00    +0.000 C 
ATOM     16  C   UNL     1      48.664   7.985  11.779  0.00  0.00    +0.000 C 
ATOM     17  C   UNL     1      48.209   9.363  12.123  0.00  0.00    +0.000 C 
ATOM     18  C   UNL     1      48.054   8.258  13.182  0.00  0.00    +0.000 C 
BRANCH  18  19
ATOM     19  C   UNL     1      48.863   8.455  14.512  0.00  0.00    +0.000 C 
ATOM     20  C   UNL     1      49.529   7.124  14.941  0.00  0.00    +0.000 C 
ATOM     21  C   UNL     1      49.926   9.567  14.501  0.00  0.00    +0.000 C 
ATOM     22  C   UNL     1      50.163   9.956  15.956  0.00  0.00    +0.000 C 
ATOM     23  C   UNL     1      48.884   9.585  16.698  0.00  0.00    +0.000 C 
ATOM     24  C   UNL     1      47.951   8.958  15.659  0.00  0.00    +0.000 C 
ENDBRANCH  18  19
ENDBRANCH   1  18
TORSDOF 4
ENDMDL
MODEL 9
REMARK VINA RESULT:    -5.555      4.074      6.397
REMARK INTER + INTRA:          -6.988
REMARK INTER:                  -6.306
REMARK INTRA:                  -0.682
REMARK UNBOUND:                -0.134
REMARK  Name = 
REMARK  6 active torsions:
REMARK  status: ('A' for Active; 'I' for Inactive)
REMARK    1  A    between atoms: C_1  and  C_2
REMARK    2  A    between atoms: C_4  and  N_5
REMARK    3  A    between atoms: C_4  and  C_16
REMARK    4  A    between atoms: N_5  and  C_6
REMARK    5  A    between atoms: C_9  and  C_10
REMARK    6  A    between atoms: C_16  and  C_17
REMARK                            x       y       z     vdW  Elec       q    Type
REMARK                         _______ _______ _______ _____ _____    ______ ____
ROOT
ATOM      1  N   UNL     1      48.540   6.274  13.566  0.00  0.00    +0.000 N 
ATOM      2  H   UNL     1      49.322   6.031  12.959  0.00  0.00    +0.000 HD
ENDROOT
BRANCH   1   3
ATOM      3  C   UNL     1      47.309   5.896  12.972  0.00  0.00    +0.000 A 
ATOM      4  C   UNL     1      46.503   4.990  13.683  0.00  0.00    +0.000 A 
ATOM      5  C   UNL     1      45.260   4.573  13.190  0.00  0.00    +0.000 A 
ATOM      6  C   UNL     1      44.800   5.057  11.961  0.00  0.00    +0.000 A 
ATOM      7  C   UNL     1      45.593   5.949  11.237  0.00  0.00    +0.000 A 
ATOM      8  C   UNL     1      46.823   6.366  11.745  0.00  0.00    +0.000 A 
ATOM      9  F   UNL     1      47.545   7.211  10.994  0.00  0.00    +0.000 F 
BRANCH   6  10
ATOM     10  C   UNL     1      43.505   4.631  11.372  0.00  0.00    +0.000 C 
ATOM     11  N   UNL     1      42.974   3.445  11.785  0.00  0.00    +0.000 N 
ATOM     12  O   UNL     1      42.911   5.330  10.557  0.00  0.00    +0.000 OA
ATOM     13  H   UNL     1      43.290   2.954  12.607  0.00  0.00    +0.000 HD
ATOM     14  H   UNL     1      42.048   3.234  11.438  0.00  0.00    +0.000 HD
ENDBRANCH   6  10
ENDBRANCH   1   3
BRANCH   1  18
ATOM     15  C   UNL     1      49.637  10.043  14.153  0.00  0.00    +0.000 C 
ATOM     16  C   UNL     1      48.884   8.850  13.686  0.00  0.00    +0.000 C 
ATOM     17  C   UNL     1      47.566   8.497  14.290  0.00  0.00    +0.000 C 
ATOM     18  C   UNL     1      48.724   7.493  14.427  0.00  0.00    +0.000 C 
BRANCH  18  19
ATOM     19  C   UNL     1      49.204   7.184  15.888  0.00  0.00    +0.000 C 
ATOM     20  C   UNL     1      50.749   7.087  15.940  0.00  0.00    +0.000 C 
ATOM     21  C   UNL     1      48.725   8.157  16.979  0.00  0.00    +0.000 C 
ATOM     22  C   UNL     1      48.804   7.401  18.301  0.00  0.00    +0.000 C 
ATOM     23  C   UNL     1      48.699   5.924  17.940  0.00  0.00    +0.000 C 
ATOM     24  C   UNL     1      48.595   5.860  16.414  0.00  0.00    +0.000 C 
ENDBRANCH  18  19
ENDBRANCH   1  18
TORSDOF 4
ENDMDL
