MODEL 1
REMARK VINA RESULT:    -9.041      0.000      0.000
REMARK INTER + INTRA:         -11.864
REMARK INTER:                 -12.212
REMARK INTRA:                   0.349
REMARK UNBOUND:                 0.349
REMARK  Name = 
REMARK  7 active torsions:
REMARK  status: ('A' for Active; 'I' for Inactive)
REMARK    1  A    between atoms: C_1  and  C_2
REMARK    2  A    between atoms: C_2  and  N_3
REMARK    3  A    between atoms: C_2  and  C_19
REMARK    4  A    between atoms: C_4  and  C_6
REMARK    5  A    between atoms: C_11  and  C_12
REMARK    6  A    between atoms: C_22  and  O_23
REMARK    7  A    between atoms: O_23  and  C_24
REMARK                            x       y       z     vdW  Elec       q    Type
REMARK                         _______ _______ _______ _____ _____    ______ ____
ROOT
ATOM      1  N   UNL     1      45.535   6.614  13.137  0.00  0.00    +0.000 N 
ATOM      2  C   UNL     1      46.860   6.817  12.859  0.00  0.00    +0.000 C 
ATOM      3  O   UNL     1      47.262   7.109  11.737  0.00  0.00    +0.000 OA
ATOM      4  H   UNL     1      45.275   6.223  14.036  0.00  0.00    +0.000 HD
ENDROOT
BRANCH   2   5
ATOM      5  C   UNL     1      47.775   6.733  14.002  0.00  0.00    +0.000 A 
ATOM      6  C   UNL     1      48.683   7.755  14.239  0.00  0.00    +0.000 A 
ATOM      7  S   UNL     1      49.663   7.492  15.610  0.00  0.00    +0.000 S 
ATOM      8  C   UNL     1      48.942   5.977  15.905  0.00  0.00    +0.000 A 
ATOM      9  N   UNL     1      49.365   5.190  16.931  0.00  0.00    +0.000 NA
ATOM     10  C   UNL     1      48.748   4.049  17.002  0.00  0.00    +0.000 A 
ATOM     11  N   UNL     1      47.745   3.639  16.155  0.00  0.00    +0.000 N 
ATOM     12  C   UNL     1      47.251   4.424  15.147  0.00  0.00    +0.000 A 
ATOM     13  O   UNL     1      46.292   4.081  14.467  0.00  0.00    +0.000 OA
ATOM     14  C   UNL     1      47.939   5.696  14.993  0.00  0.00    +0.000 A 
ATOM     15  H   UNL     1      47.312   2.737  16.316  0.00  0.00    +0.000 HD
BRANCH  10  16
ATOM     16  C   UNL     1      49.101   3.033  18.083  0.00  0.00    +0.000 C 
ATOM     17  N   UNL     1      48.357   3.103  19.219  0.00  0.00    +0.000 N 
ATOM     18  O   UNL     1      50.009   2.237  17.887  0.00  0.00    +0.000 OA
ATOM     19  H   UNL     1      47.621   3.799  19.308  0.00  0.00    +0.000 HD
ATOM     20  H   UNL     1      48.539   2.464  19.979  0.00  0.00    +0.000 HD
ENDBRANCH  10  16
ENDBRANCH   2   5
BRANCH   1  22
ATOM     21  C   UNL     1      44.528   7.962  11.349  0.00  0.00    +0.000 C 
ATOM     22  C   UNL     1      44.511   6.631  12.111  0.00  0.00    +0.000 C 
BRANCH  22  23
ATOM     23  C   UNL     1      44.681   5.407  11.240  0.00  0.00    +0.000 A 
ATOM     24  C   UNL     1      45.136   5.533   9.919  0.00  0.00    +0.000 A 
ATOM     25  C   UNL     1      45.258   4.406   9.109  0.00  0.00    +0.000 A 
ATOM     26  C   UNL     1      44.922   3.177   9.649  0.00  0.00    +0.000 A 
ATOM     27  N   UNL     1      44.425   3.022  10.896  0.00  0.00    +0.000 NA
ATOM     28  C   UNL     1      44.324   4.130  11.659  0.00  0.00    +0.000 A 
BRANCH  26  29
ATOM     29  O   UNL     1      45.102   2.055   8.851  0.00  0.00    +0.000 OA
BRANCH  29  30
ATOM     30  C   UNL     1      46.004   2.158   7.820  0.00  0.00    +0.000 A 
ATOM     31  C   UNL     1      45.981   3.170   6.861  0.00  0.00    +0.000 A 
ATOM     32  C   UNL     1      46.936   3.180   5.848  0.00  0.00    +0.000 A 
ATOM     33  C   UNL     1      47.860   2.150   5.807  0.00  0.00    +0.000 A 
ATOM     34  N   UNL     1      47.889   1.130   6.693  0.00  0.00    +0.000 NA
ATOM     35  C   UNL     1      46.958   1.160   7.683  0.00  0.00    +0.000 A 
ENDBRANCH  29  30
ENDBRANCH  26  29
ENDBRANCH  22  23
ENDBRANCH   1  22
TORSDOF 6
ENDMDL
MODEL 2
REMARK VINA RESULT:    -8.876      3.336      8.696
REMARK INTER + INTRA:         -11.641
REMARK INTER:                 -11.379
REMARK INTRA:                  -0.262
REMARK UNBOUND:                 0.349
REMARK  Name = 
REMARK  7 active torsions:
REMARK  status: ('A' for Active; 'I' for Inactive)
REMARK    1  A    between atoms: C_1  and  C_2
REMARK    2  A    between atoms: C_2  and  N_3
REMARK    3  A    between atoms: C_2  and  C_19
REMARK    4  A    between atoms: C_4  and  C_6
REMARK    5  A    between atoms: C_11  and  C_12
REMARK    6  A    between atoms: C_22  and  O_23
REMARK    7  A    between atoms: O_23  and  C_24
REMARK                            x       y       z     vdW  Elec       q    Type
REMARK                         _______ _______ _______ _____ _____    ______ ____
ROOT
ATOM      1  N   UNL     1      47.949   5.472  16.323  0.00  0.00    +0.000 N 
ATOM      2  C   UNL     1      48.473   6.061  15.204  0.00  0.00    +0.000 C 
ATOM      3  O   UNL     1      49.642   6.428  15.137  0.00  0.00    +0.000 OA
ATOM      4  H   UNL     1      46.946   5.333  16.383  0.00  0.00    +0.000 HD
ENDROOT
BRANCH   2   5
ATOM      5  C   UNL     1      47.569   6.169  14.054  0.00  0.00    +0.000 A 
ATOM      6  C   UNL     1      47.336   7.406  13.470  0.00  0.00    +0.000 A 
ATOM      7  S   UNL     1      46.264   7.343  12.146  0.00  0.00    +0.000 S 
ATOM      8  C   UNL     1      46.033   5.667  12.339  0.00  0.00    +0.000 A 
ATOM      9  N   UNL     1      45.174   4.983  11.535  0.00  0.00    +0.000 NA
ATOM     10  C   UNL     1      45.074   3.722  11.832  0.00  0.00    +0.000 A 
ATOM     11  N   UNL     1      45.764   3.091  12.841  0.00  0.00    +0.000 N 
ATOM     12  C   UNL     1      46.680   3.731  13.634  0.00  0.00    +0.000 A 
ATOM     13  O   UNL     1      47.355   3.130  14.461  0.00  0.00    +0.000 OA
ATOM     14  C   UNL     1      46.796   5.156  13.375  0.00  0.00    +0.000 A 
ATOM     15  H   UNL     1      45.631   2.095  12.971  0.00  0.00    +0.000 HD
BRANCH  10  16
ATOM     16  C   UNL     1      44.147   2.803  11.044  0.00  0.00    +0.000 C 
ATOM     17  N   UNL     1      44.710   2.178   9.975  0.00  0.00    +0.000 N 
ATOM     18  O   UNL     1      42.982   2.680  11.395  0.00  0.00    +0.000 OA
ATOM     19  H   UNL     1      45.687   2.337   9.744  0.00  0.00    +0.000 HD
ATOM     20  H   UNL     1      44.153   1.559   9.404  0.00  0.00    +0.000 HD
ENDBRANCH  10  16
ENDBRANCH   2   5
BRANCH   1  22
ATOM     21  C   UNL     1      47.771   5.353  18.769  0.00  0.00    +0.000 C 
ATOM     22  C   UNL     1      48.704   5.322  17.552  0.00  0.00    +0.000 C 
BRANCH  22  23
ATOM     23  C   UNL     1      49.554   4.076  17.445  0.00  0.00    +0.000 A 
ATOM     24  C   UNL     1      50.889   4.089  17.875  0.00  0.00    +0.000 A 
ATOM     25  C   UNL     1      51.680   2.949  17.742  0.00  0.00    +0.000 A 
ATOM     26  C   UNL     1      51.106   1.821  17.181  0.00  0.00    +0.000 A 
ATOM     27  N   UNL     1      49.844   1.788  16.702  0.00  0.00    +0.000 NA
ATOM     28  C   UNL     1      49.100   2.904  16.851  0.00  0.00    +0.000 A 
BRANCH  26  29
ATOM     29  O   UNL     1      51.886   0.675  17.107  0.00  0.00    +0.000 OA
BRANCH  29  30
ATOM     30  C   UNL     1      53.147   0.739  17.647  0.00  0.00    +0.000 A 
ATOM     31  C   UNL     1      54.151   1.594  17.191  0.00  0.00    +0.000 A 
ATOM     32  C   UNL     1      55.401   1.576  17.801  0.00  0.00    +0.000 A 
ATOM     33  C   UNL     1      55.617   0.671  18.826  0.00  0.00    +0.000 A 
ATOM     34  N   UNL     1      54.684  -0.201  19.270  0.00  0.00    +0.000 NA
ATOM     35  C   UNL     1      53.468  -0.144  18.668  0.00  0.00    +0.000 A 
ENDBRANCH  29  30
ENDBRANCH  26  29
ENDBRANCH  22  23
ENDBRANCH   1  22
TORSDOF 6
ENDMDL
MODEL 3
REMARK VINA RESULT:    -8.264      3.534      5.970
REMARK INTER + INTRA:         -10.814
REMARK INTER:                  -9.646
REMARK INTRA:                  -1.169
REMARK UNBOUND:                 0.349
REMARK  Name = 
REMARK  7 active torsions:
REMARK  status: ('A' for Active; 'I' for Inactive)
REMARK    1  A    between atoms: C_1  and  C_2
REMARK    2  A    between atoms: C_2  and  N_3
REMARK    3  A    between atoms: C_2  and  C_19
REMARK    4  A    between atoms: C_4  and  C_6
REMARK    5  A    between atoms: C_11  and  C_12
REMARK    6  A    between atoms: C_22  and  O_23
REMARK    7  A    between atoms: O_23  and  C_24
REMARK                            x       y       z     vdW  Elec       q    Type
REMARK                         _______ _______ _______ _____ _____    ______ ____
ROOT
ATOM      1  N   UNL     1      50.161   6.052  16.949  0.00  0.00    +0.000 N 
ATOM      2  C   UNL     1      50.196   5.818  18.297  0.00  0.00    +0.000 C 
ATOM      3  O   UNL     1      49.307   6.195  19.055  0.00  0.00    +0.000 OA
ATOM      4  H   UNL     1      50.988   5.860  16.394  0.00  0.00    +0.000 HD
ENDROOT
BRANCH   2   5
ATOM      5  C   UNL     1      51.331   5.027  18.782  0.00  0.00    +0.000 A 
ATOM      6  C   UNL     1      52.228   5.583  19.682  0.00  0.00    +0.000 A 
ATOM      7  S   UNL     1      53.482   4.521  20.138  0.00  0.00    +0.000 S 
ATOM      8  C   UNL     1      52.898   3.297  19.109  0.00  0.00    +0.000 A 
ATOM      9  N   UNL     1      53.555   2.112  18.989  0.00  0.00    +0.000 NA
ATOM     10  C   UNL     1      53.011   1.297  18.135  0.00  0.00    +0.000 A 
ATOM     11  N   UNL     1      51.870   1.557  17.412  0.00  0.00    +0.000 N 
ATOM     12  C   UNL     1      51.147   2.713  17.548  0.00  0.00    +0.000 A 
ATOM     13  O   UNL     1      50.081   2.883  16.969  0.00  0.00    +0.000 OA
ATOM     14  C   UNL     1      51.738   3.680  18.457  0.00  0.00    +0.000 A 
ATOM     15  H   UNL     1      51.515   0.839  16.792  0.00  0.00    +0.000 HD
BRANCH  10  16
ATOM     16  C   UNL     1      53.621  -0.073  17.862  0.00  0.00    +0.000 C 
ATOM     17  N   UNL     1      53.950  -0.320  16.565  0.00  0.00    +0.000 N 
ATOM     18  O   UNL     1      53.775  -0.859  18.786  0.00  0.00    +0.000 OA
ATOM     19  H   UNL     1      53.785   0.384  15.851  0.00  0.00    +0.000 HD
ATOM     20  H   UNL     1      54.353  -1.209  16.310  0.00  0.00    +0.000 HD
ENDBRANCH  10  16
ENDBRANCH   2   5
BRANCH   1  22
ATOM     21  C   UNL     1      49.727   8.044  15.581  0.00  0.00    +0.000 C 
ATOM     22  C   UNL     1      49.122   6.844  16.320  0.00  0.00    +0.000 C 
BRANCH  22  23
ATOM     23  C   UNL     1      48.280   5.934  15.455  0.00  0.00    +0.000 A 
ATOM     24  C   UNL     1      48.058   6.244  14.105  0.00  0.00    +0.000 A 
ATOM     25  C   UNL     1      47.252   5.421  13.320  0.00  0.00    +0.000 A 
ATOM     26  C   UNL     1      46.692   4.302  13.913  0.00  0.00    +0.000 A 
ATOM     27  N   UNL     1      46.835   4.003  15.222  0.00  0.00    +0.000 NA
ATOM     28  C   UNL     1      47.626   4.814  15.955  0.00  0.00    +0.000 A 
BRANCH  26  29
ATOM     29  O   UNL     1      45.939   3.460  13.107  0.00  0.00    +0.000 OA
BRANCH  29  30
ATOM     30  C   UNL     1      44.854   4.008  12.466  0.00  0.00    +0.000 A 
ATOM     31  C   UNL     1      44.748   4.138  11.081  0.00  0.00    +0.000 A 
ATOM     32  C   UNL     1      43.610   4.717  10.529  0.00  0.00    +0.000 A 
ATOM     33  C   UNL     1      42.630   5.185  11.388  0.00  0.00    +0.000 A 
ATOM     34  N   UNL     1      42.714   5.115  12.735  0.00  0.00    +0.000 NA
ATOM     35  C   UNL     1      43.827   4.525  13.243  0.00  0.00    +0.000 A 
ENDBRANCH  29  30
ENDBRANCH  26  29
ENDBRANCH  22  23
ENDBRANCH   1  22
TORSDOF 6
ENDMDL
MODEL 4
REMARK VINA RESULT:    -8.091      2.275      3.199
REMARK INTER + INTRA:         -10.580
REMARK INTER:                  -9.435
REMARK INTRA:                  -1.145
REMARK UNBOUND:                 0.349
REMARK  Name = 
REMARK  7 active torsions:
REMARK  status: ('A' for Active; 'I' for Inactive)
REMARK    1  A    between atoms: C_1  and  C_2
REMARK    2  A    between atoms: C_2  and  N_3
REMARK    3  A    between atoms: C_2  and  C_19
REMARK    4  A    between atoms: C_4  and  C_6
REMARK    5  A    between atoms: C_11  and  C_12
REMARK    6  A    between atoms: C_22  and  O_23
REMARK    7  A    between atoms: O_23  and  C_24
REMARK                            x       y       z     vdW  Elec       q    Type
REMARK                         _______ _______ _______ _____ _____    ______ ____
ROOT
ATOM      1  N   UNL     1      48.199   7.864  14.451  0.00  0.00    +0.000 N 
ATOM      2  C   UNL     1      48.608   8.247  15.700  0.00  0.00    +0.000 C 
ATOM      3  O   UNL     1      47.997   9.075  16.369  0.00  0.00    +0.000 OA
ATOM      4  H   UNL     1      48.820   7.300  13.880  0.00  0.00    +0.000 HD
ENDROOT
BRANCH   2   5
ATOM      5  C   UNL     1      49.789   7.558  16.227  0.00  0.00    +0.000 A 
ATOM      6  C   UNL     1      50.982   8.249  16.382  0.00  0.00    +0.000 A 
ATOM      7  S   UNL     1      52.247   7.292  17.009  0.00  0.00    +0.000 S 
ATOM      8  C   UNL     1      51.257   5.907  17.047  0.00  0.00    +0.000 A 
ATOM      9  N   UNL     1      51.753   4.705  17.449  0.00  0.00    +0.000 NA
ATOM     10  C   UNL     1      50.889   3.736  17.384  0.00  0.00    +0.000 A 
ATOM     11  N   UNL     1      49.584   3.868  16.971  0.00  0.00    +0.000 N 
ATOM     12  C   UNL     1      49.031   5.070  16.615  0.00  0.00    +0.000 A 
ATOM     13  O   UNL     1      47.841   5.183  16.346  0.00  0.00    +0.000 OA
ATOM     14  C   UNL     1      49.968   6.181  16.625  0.00  0.00    +0.000 A 
ATOM     15  H   UNL     1      48.985   3.051  16.984  0.00  0.00    +0.000 HD
BRANCH  10  16
ATOM     16  C   UNL     1      51.274   2.316  17.782  0.00  0.00    +0.000 C 
ATOM     17  N   UNL     1      52.343   2.210  18.616  0.00  0.00    +0.000 N 
ATOM     18  O   UNL     1      50.630   1.373  17.345  0.00  0.00    +0.000 OA
ATOM     19  H   UNL     1      52.831   3.044  18.932  0.00  0.00    +0.000 HD
ATOM     20  H   UNL     1      52.658   1.299  18.917  0.00  0.00    +0.000 HD
ENDBRANCH  10  16
ENDBRANCH   2   5
BRANCH   1  22
ATOM     21  C   UNL     1      47.522   9.660  12.920  0.00  0.00    +0.000 C 
ATOM     22  C   UNL     1      47.068   8.473  13.778  0.00  0.00    +0.000 C 
BRANCH  22  23
ATOM     23  C   UNL     1      46.324   7.399  13.019  0.00  0.00    +0.000 A 
ATOM     24  C   UNL     1      46.683   6.050  13.162  0.00  0.00    +0.000 A 
ATOM     25  C   UNL     1      46.017   5.066  12.434  0.00  0.00    +0.000 A 
ATOM     26  C   UNL     1      45.002   5.463  11.579  0.00  0.00    +0.000 A 
ATOM     27  N   UNL     1      44.668   6.755  11.371  0.00  0.00    +0.000 NA
ATOM     28  C   UNL     1      45.325   7.685  12.095  0.00  0.00    +0.000 A 
BRANCH  26  29
ATOM     29  O   UNL     1      44.308   4.469  10.903  0.00  0.00    +0.000 OA
BRANCH  29  30
ATOM     30  C   UNL     1      44.923   3.908   9.810  0.00  0.00    +0.000 A 
ATOM     31  C   UNL     1      45.068   2.534   9.616  0.00  0.00    +0.000 A 
ATOM     32  C   UNL     1      45.716   2.064   8.478  0.00  0.00    +0.000 A 
ATOM     33  C   UNL     1      46.234   2.991   7.588  0.00  0.00    +0.000 A 
ATOM     34  N   UNL     1      46.150   4.329   7.762  0.00  0.00    +0.000 NA
ATOM     35  C   UNL     1      45.493   4.756   8.872  0.00  0.00    +0.000 A 
ENDBRANCH  29  30
ENDBRANCH  26  29
ENDBRANCH  22  23
ENDBRANCH   1  22
TORSDOF 6
ENDMDL
MODEL 5
REMARK VINA RESULT:    -7.991      3.474      8.211
REMARK INTER + INTRA:         -10.445
REMARK INTER:                  -9.147
REMARK INTRA:                  -1.298
REMARK UNBOUND:                 0.349
REMARK  Name = 
REMARK  7 active torsions:
REMARK  status: ('A' for Active; 'I' for Inactive)
REMARK    1  A    between atoms: C_1  and  C_2
REMARK    2  A    between atoms: C_2  and  N_3
REMARK    3  A    between atoms: C_2  and  C_19
REMARK    4  A    between atoms: C_4  and  C_6
REMARK    5  A    between atoms: C_11  and  C_12
REMARK    6  A    between atoms: C_22  and  O_23
REMARK    7  A    between atoms: O_23  and  C_24
REMARK                            x       y       z     vdW  Elec       q    Type
REMARK                         _______ _______ _______ _____ _____    ______ ____
ROOT
ATOM      1  N   UNL     1      47.580   8.909  15.352  0.00  0.00    +0.000 N 
ATOM      2  C   UNL     1      47.847   8.750  14.019  0.00  0.00    +0.000 C 
ATOM      3  O   UNL     1      48.951   8.980  13.536  0.00  0.00    +0.000 OA
ATOM      4  H   UNL     1      46.618   8.859  15.672  0.00  0.00    +0.000 HD
ENDROOT
BRANCH   2   5
ATOM      5  C   UNL     1      46.749   8.221  13.204  0.00  0.00    +0.000 A 
ATOM      6  C   UNL     1      45.901   9.092  12.536  0.00  0.00    +0.000 A 
ATOM      7  S   UNL     1      44.686   8.303  11.636  0.00  0.00    +0.000 S 
ATOM      8  C   UNL     1      45.221   6.770  12.149  0.00  0.00    +0.000 A 
ATOM      9  N   UNL     1      44.569   5.639  11.767  0.00  0.00    +0.000 NA
ATOM     10  C   UNL     1      45.070   4.552  12.272  0.00  0.00    +0.000 A 
ATOM     11  N   UNL     1      46.164   4.499  13.104  0.00  0.00    +0.000 N 
ATOM     12  C   UNL     1      46.883   5.608  13.464  0.00  0.00    +0.000 A 
ATOM     13  O   UNL     1      47.912   5.528  14.124  0.00  0.00    +0.000 OA
ATOM     14  C   UNL     1      46.337   6.858  12.963  0.00  0.00    +0.000 A 
ATOM     15  H   UNL     1      46.490   3.593  13.421  0.00  0.00    +0.000 HD
BRANCH  10  16
ATOM     16  C   UNL     1      44.458   3.190  11.963  0.00  0.00    +0.000 C 
ATOM     17  N   UNL     1      44.746   2.683  10.735  0.00  0.00    +0.000 N 
ATOM     18  O   UNL     1      43.758   2.640  12.802  0.00  0.00    +0.000 OA
ATOM     19  H   UNL     1      45.333   3.204  10.089  0.00  0.00    +0.000 HD
ATOM     20  H   UNL     1      44.370   1.787  10.460  0.00  0.00    +0.000 HD
ENDBRANCH  10  16
ENDBRANCH   2   5
BRANCH   1  22
ATOM     21  C   UNL     1      47.900  10.508  17.188  0.00  0.00    +0.000 C 
ATOM     22  C   UNL     1      48.548   9.452  16.284  0.00  0.00    +0.000 C 
BRANCH  22  23
ATOM     23  C   UNL     1      49.198   8.306  17.025  0.00  0.00    +0.000 A 
ATOM     24  C   UNL     1      48.697   7.888  18.267  0.00  0.00    +0.000 A 
ATOM     25  C   UNL     1      49.320   6.854  18.963  0.00  0.00    +0.000 A 
ATOM     26  C   UNL     1      50.432   6.262  18.390  0.00  0.00    +0.000 A 
ATOM     27  N   UNL     1      50.978   6.674  17.226  0.00  0.00    +0.000 NA
ATOM     28  C   UNL     1      50.349   7.672  16.571  0.00  0.00    +0.000 A 
BRANCH  26  29
ATOM     29  O   UNL     1      51.009   5.195  19.065  0.00  0.00    +0.000 OA
BRANCH  29  30
ATOM     30  C   UNL     1      51.052   3.988  18.411  0.00  0.00    +0.000 A 
ATOM     31  C   UNL     1      49.946   3.386  17.810  0.00  0.00    +0.000 A 
ATOM     32  C   UNL     1      50.092   2.154  17.179  0.00  0.00    +0.000 A 
ATOM     33  C   UNL     1      51.335   1.546  17.205  0.00  0.00    +0.000 A 
ATOM     34  N   UNL     1      52.420   2.078  17.812  0.00  0.00    +0.000 NA
ATOM     35  C   UNL     1      52.252   3.291  18.400  0.00  0.00    +0.000 A 
ENDBRANCH  29  30
ENDBRANCH  26  29
ENDBRANCH  22  23
ENDBRANCH   1  22
TORSDOF 6
ENDMDL
MODEL 6
REMARK VINA RESULT:    -7.702      2.771      3.780
REMARK INTER + INTRA:         -10.054
REMARK INTER:                  -9.190
REMARK INTRA:                  -0.864
REMARK UNBOUND:                 0.349
REMARK  Name = 
REMARK  7 active torsions:
REMARK  status: ('A' for Active; 'I' for Inactive)
REMARK    1  A    between atoms: C_1  and  C_2
REMARK    2  A    between atoms: C_2  and  N_3
REMARK    3  A    between atoms: C_2  and  C_19
REMARK    4  A    between atoms: C_4  and  C_6
REMARK    5  A    between atoms: C_11  and  C_12
REMARK    6  A    between atoms: C_22  and  O_23
REMARK    7  A    between atoms: O_23  and  C_24
REMARK                            x       y       z     vdW  Elec       q    Type
REMARK                         _______ _______ _______ _____ _____    ______ ____
ROOT
ATOM      1  N   UNL     1      47.636   8.672  14.814  0.00  0.00    +0.000 N 
ATOM      2  C   UNL     1      48.275   9.513  15.684  0.00  0.00    +0.000 C 
ATOM      3  O   UNL     1      48.857  10.528  15.314  0.00  0.00    +0.000 OA
ATOM      4  H   UNL     1      47.308   7.772  15.149  0.00  0.00    +0.000 HD
ENDROOT
BRANCH   2   5
ATOM      5  C   UNL     1      48.167   9.168  17.105  0.00  0.00    +0.000 A 
ATOM      6  C   UNL     1      47.734  10.119  18.018  0.00  0.00    +0.000 A 
ATOM      7  S   UNL     1      47.666   9.543  19.622  0.00  0.00    +0.000 S 
ATOM      8  C   UNL     1      48.264   8.017  19.159  0.00  0.00    +0.000 A 
ATOM      9  N   UNL     1      48.491   7.046  20.085  0.00  0.00    +0.000 NA
ATOM     10  C   UNL     1      48.986   5.953  19.585  0.00  0.00    +0.000 A 
ATOM     11  N   UNL     1      49.253   5.746  18.252  0.00  0.00    +0.000 N 
ATOM     12  C   UNL     1      48.984   6.675  17.282  0.00  0.00    +0.000 A 
ATOM     13  O   UNL     1      49.137   6.433  16.091  0.00  0.00    +0.000 OA
ATOM     14  C   UNL     1      48.472   7.936  17.793  0.00  0.00    +0.000 A 
ATOM     15  H   UNL     1      49.614   4.844  17.963  0.00  0.00    +0.000 HD
BRANCH  10  16
ATOM     16  C   UNL     1      49.317   4.763  20.477  0.00  0.00    +0.000 C 
ATOM     17  N   UNL     1      50.604   4.696  20.911  0.00  0.00    +0.000 N 
ATOM     18  O   UNL     1      48.443   3.951  20.746  0.00  0.00    +0.000 OA
ATOM     19  H   UNL     1      51.275   5.409  20.638  0.00  0.00    +0.000 HD
ATOM     20  H   UNL     1      50.896   3.931  21.502  0.00  0.00    +0.000 HD
ENDBRANCH  10  16
ENDBRANCH   2   5
BRANCH   1  22
ATOM     21  C   UNL     1      49.121   8.834  12.866  0.00  0.00    +0.000 C 
ATOM     22  C   UNL     1      47.676   8.858  13.377  0.00  0.00    +0.000 C 
BRANCH  22  23
ATOM     23  C   UNL     1      46.766   7.836  12.734  0.00  0.00    +0.000 A 
ATOM     24  C   UNL     1      47.079   6.469  12.795  0.00  0.00    +0.000 A 
ATOM     25  C   UNL     1      46.256   5.533  12.171  0.00  0.00    +0.000 A 
ATOM     26  C   UNL     1      45.135   5.995  11.502  0.00  0.00    +0.000 A 
ATOM     27  N   UNL     1      44.833   7.305  11.372  0.00  0.00    +0.000 NA
ATOM     28  C   UNL     1      45.644   8.188  11.992  0.00  0.00    +0.000 A 
BRANCH  26  29
ATOM     29  O   UNL     1      44.293   5.049  10.934  0.00  0.00    +0.000 OA
BRANCH  29  30
ATOM     30  C   UNL     1      44.826   4.237   9.963  0.00  0.00    +0.000 A 
ATOM     31  C   UNL     1      45.470   4.708   8.818  0.00  0.00    +0.000 A 
ATOM     32  C   UNL     1      45.969   3.801   7.888  0.00  0.00    +0.000 A 
ATOM     33  C   UNL     1      45.771   2.450   8.116  0.00  0.00    +0.000 A 
ATOM     34  N   UNL     1      45.117   1.957   9.192  0.00  0.00    +0.000 NA
ATOM     35  C   UNL     1      44.661   2.866  10.093  0.00  0.00    +0.000 A 
ENDBRANCH  29  30
ENDBRANCH  26  29
ENDBRANCH  22  23
ENDBRANCH   1  22
TORSDOF 6
ENDMDL
MODEL 7
REMARK VINA RESULT:    -7.532      4.320      7.738
REMARK INTER + INTRA:          -9.825
REMARK INTER:                  -8.794
REMARK INTRA:                  -1.031
REMARK UNBOUND:                 0.349
REMARK  Name = 
REMARK  7 active torsions:
REMARK  status: ('A' for Active; 'I' for Inactive)
REMARK    1  A    between atoms: C_1  and  C_2
REMARK    2  A    between atoms: C_2  and  N_3
REMARK    3  A    between atoms: C_2  and  C_19
REMARK    4  A    between atoms: C_4  and  C_6
REMARK    5  A    between atoms: C_11  and  C_12
REMARK    6  A    between atoms: C_22  and  O_23
REMARK    7  A    between atoms: O_23  and  C_24
REMARK                            x       y       z     vdW  Elec       q    Type
REMARK                         _______ _______ _______ _____ _____    ______ ____
ROOT
ATOM      1  N   UNL     1      45.868   7.036  11.610  0.00  0.00    +0.000 N 
ATOM      2  C   UNL     1      44.596   6.651  11.284  0.00  0.00    +0.000 C 
ATOM      3  O   UNL     1      43.680   7.454  11.140  0.00  0.00    +0.000 OA
ATOM      4  H   UNL     1      46.546   6.328  11.871  0.00  0.00    +0.000 HD
ENDROOT
BRANCH   2   5
ATOM      5  C   UNL     1      44.401   5.217  11.050  0.00  0.00    +0.000 A 
ATOM      6  C   UNL     1      43.555   4.489  11.876  0.00  0.00    +0.000 A 
ATOM      7  S   UNL     1      43.446   2.840  11.455  0.00  0.00    +0.000 S 
ATOM      8  C   UNL     1      44.565   3.031  10.186  0.00  0.00    +0.000 A 
ATOM      9  N   UNL     1      44.958   1.966   9.436  0.00  0.00    +0.000 NA
ATOM     10  C   UNL     1      45.846   2.262   8.534  0.00  0.00    +0.000 A 
ATOM     11  N   UNL     1      46.357   3.519   8.312  0.00  0.00    +0.000 N 
ATOM     12  C   UNL     1      45.946   4.627   9.006  0.00  0.00    +0.000 A 
ATOM     13  O   UNL     1      46.340   5.752   8.726  0.00  0.00    +0.000 OA
ATOM     14  C   UNL     1      44.985   4.343  10.060  0.00  0.00    +0.000 A 
ATOM     15  H   UNL     1      47.029   3.646   7.564  0.00  0.00    +0.000 HD
BRANCH  10  16
ATOM     16  C   UNL     1      46.412   1.190   7.610  0.00  0.00    +0.000 C 
ATOM     17  N   UNL     1      46.893   1.636   6.419  0.00  0.00    +0.000 N 
ATOM     18  O   UNL     1      46.401   0.020   7.967  0.00  0.00    +0.000 OA
ATOM     19  H   UNL     1      46.860   2.627   6.192  0.00  0.00    +0.000 HD
ATOM     20  H   UNL     1      47.277   0.981   5.754  0.00  0.00    +0.000 HD
ENDBRANCH  10  16
ENDBRANCH   2   5
BRANCH   1  22
ATOM     21  C   UNL     1      45.660   8.834  13.269  0.00  0.00    +0.000 C 
ATOM     22  C   UNL     1      46.217   8.412  11.904  0.00  0.00    +0.000 C 
BRANCH  22  23
ATOM     23  C   UNL     1      47.713   8.571  11.761  0.00  0.00    +0.000 A 
ATOM     24  C   UNL     1      48.548   7.444  11.742  0.00  0.00    +0.000 A 
ATOM     25  C   UNL     1      49.930   7.597  11.645  0.00  0.00    +0.000 A 
ATOM     26  C   UNL     1      50.439   8.882  11.565  0.00  0.00    +0.000 A 
ATOM     27  N   UNL     1      49.673   9.991  11.639  0.00  0.00    +0.000 NA
ATOM     28  C   UNL     1      48.338   9.813  11.726  0.00  0.00    +0.000 A 
BRANCH  26  29
ATOM     29  O   UNL     1      51.812   9.019  11.411  0.00  0.00    +0.000 OA
BRANCH  29  30
ATOM     30  C   UNL     1      52.304   8.994  10.129  0.00  0.00    +0.000 A 
ATOM     31  C   UNL     1      52.337  10.104   9.283  0.00  0.00    +0.000 A 
ATOM     32  C   UNL     1      52.849   9.973   7.996  0.00  0.00    +0.000 A 
ATOM     33  C   UNL     1      53.275   8.722   7.583  0.00  0.00    +0.000 A 
ATOM     34  N   UNL     1      53.222   7.616   8.358  0.00  0.00    +0.000 NA
ATOM     35  C   UNL     1      52.738   7.780   9.617  0.00  0.00    +0.000 A 
ENDBRANCH  29  30
ENDBRANCH  26  29
ENDBRANCH  22  23
ENDBRANCH   1  22
TORSDOF 6
ENDMDL
MODEL 8
REMARK VINA RESULT:    -7.307      3.468      5.184
REMARK INTER + INTRA:          -9.521
REMARK INTER:                  -8.835
REMARK INTRA:                  -0.686
REMARK UNBOUND:                 0.349
REMARK  Name = 
REMARK  7 active torsions:
REMARK  status: ('A' for Active; 'I' for Inactive)
REMARK    1  A    between atoms: C_1  and  C_2
REMARK    2  A    between atoms: C_2  and  N_3
REMARK    3  A    between atoms: C_2  and  C_19
REMARK    4  A    between atoms: C_4  and  C_6
REMARK    5  A    between atoms: C_11  and  C_12
REMARK    6  A    between atoms: C_22  and  O_23
REMARK    7  A    between atoms: O_23  and  C_24
REMARK                            x       y       z     vdW  Elec       q    Type
REMARK                         _______ _______ _______ _____ _____    ______ ____
ROOT
ATOM      1  N   UNL     1      49.709   7.931  16.100  0.00  0.00    +0.000 N 
ATOM      2  C   UNL     1      49.628   7.287  17.305  0.00  0.00    +0.000 C 
ATOM      3  O   UNL     1      48.610   7.295  17.990  0.00  0.00    +0.000 OA
ATOM      4  H   UNL     1      50.614   8.025  15.652  0.00  0.00    +0.000 HD
ENDROOT
BRANCH   2   5
ATOM      5  C   UNL     1      50.814   6.524  17.706  0.00  0.00    +0.000 A 
ATOM      6  C   UNL     1      51.942   7.189  18.164  0.00  0.00    +0.000 A 
ATOM      7  S   UNL     1      53.223   6.144  18.588  0.00  0.00    +0.000 S 
ATOM      8  C   UNL     1      52.331   4.770  18.124  0.00  0.00    +0.000 A 
ATOM      9  N   UNL     1      52.879   3.526  18.192  0.00  0.00    +0.000 NA
ATOM     10  C   UNL     1      52.091   2.585  17.765  0.00  0.00    +0.000 A 
ATOM     11  N   UNL     1      50.812   2.777  17.297  0.00  0.00    +0.000 N 
ATOM     12  C   UNL     1      50.204   4.004  17.267  0.00  0.00    +0.000 A 
ATOM     13  O   UNL     1      49.032   4.140  16.940  0.00  0.00    +0.000 OA
ATOM     14  C   UNL     1      51.059   5.101  17.690  0.00  0.00    +0.000 A 
ATOM     15  H   UNL     1      50.273   1.968  17.012  0.00  0.00    +0.000 HD
BRANCH  10  16
ATOM     16  C   UNL     1      52.544   1.129  17.755  0.00  0.00    +0.000 C 
ATOM     17  N   UNL     1      51.603   0.220  18.126  0.00  0.00    +0.000 N 
ATOM     18  O   UNL     1      53.692   0.858  17.432  0.00  0.00    +0.000 OA
ATOM     19  H   UNL     1      50.670   0.526  18.388  0.00  0.00    +0.000 HD
ATOM     20  H   UNL     1      51.834  -0.763  18.148  0.00  0.00    +0.000 HD
ENDBRANCH  10  16
ENDBRANCH   2   5
BRANCH   1  22
ATOM     21  C   UNL     1      49.136  10.167  15.266  0.00  0.00    +0.000 C 
ATOM     22  C   UNL     1      48.634   8.752  15.579  0.00  0.00    +0.000 C 
BRANCH  22  23
ATOM     23  C   UNL     1      48.006   8.036  14.406  0.00  0.00    +0.000 A 
ATOM     24  C   UNL     1      48.462   6.765  14.023  0.00  0.00    +0.000 A 
ATOM     25  C   UNL     1      47.903   6.123  12.919  0.00  0.00    +0.000 A 
ATOM     26  C   UNL     1      46.895   6.775  12.229  0.00  0.00    +0.000 A 
ATOM     27  N   UNL     1      46.470   8.020  12.532  0.00  0.00    +0.000 NA
ATOM     28  C   UNL     1      47.024   8.614  13.609  0.00  0.00    +0.000 A 
BRANCH  26  29
ATOM     29  O   UNL     1      46.307   6.101  11.167  0.00  0.00    +0.000 OA
BRANCH  29  30
ATOM     30  C   UNL     1      45.312   5.201  11.469  0.00  0.00    +0.000 A 
ATOM     31  C   UNL     1      44.019   5.264  10.950  0.00  0.00    +0.000 A 
ATOM     32  C   UNL     1      43.080   4.308  11.325  0.00  0.00    +0.000 A 
ATOM     33  C   UNL     1      43.458   3.341  12.241  0.00  0.00    +0.000 A 
ATOM     34  N   UNL     1      44.688   3.272  12.797  0.00  0.00    +0.000 NA
ATOM     35  C   UNL     1      45.589   4.206  12.395  0.00  0.00    +0.000 A 
ENDBRANCH  29  30
ENDBRANCH  26  29
ENDBRANCH  22  23
ENDBRANCH   1  22
TORSDOF 6
ENDMDL
MODEL 9
REMARK VINA RESULT:    -7.059      4.347      9.273
REMARK INTER + INTRA:          -9.187
REMARK INTER:                  -8.745
REMARK INTRA:                  -0.441
REMARK UNBOUND:                 0.349
REMARK  Name = 
REMARK  7 active torsions:
REMARK  status: ('A' for Active; 'I' for Inactive)
REMARK    1  A    between atoms: C_1  and  C_2
REMARK    2  A    between atoms: C_2  and  N_3
REMARK    3  A    between atoms: C_2  and  C_19
REMARK    4  A    between atoms: C_4  and  C_6
REMARK    5  A    between atoms: C_11  and  C_12
REMARK    6  A    between atoms: C_22  and  O_23
REMARK    7  A    between atoms: O_23  and  C_24
REMARK                            x       y       z     vdW  Elec       q    Type
REMARK                         _______ _______ _______ _____ _____    ______ ____
ROOT
ATOM      1  N   UNL     1      47.419   4.757  16.478  0.00  0.00    +0.000 N 
ATOM      2  C   UNL     1      47.382   4.214  15.222  0.00  0.00    +0.000 C 
ATOM      3  O   UNL     1      47.631   3.032  15.007  0.00  0.00    +0.000 OA
ATOM      4  H   UNL     1      47.360   5.765  16.581  0.00  0.00    +0.000 HD
ENDROOT
BRANCH   2   5
ATOM      5  C   UNL     1      46.958   5.115  14.146  0.00  0.00    +0.000 A 
ATOM      6  C   UNL     1      45.793   4.851  13.440  0.00  0.00    +0.000 A 
ATOM      7  S   UNL     1      45.453   6.003  12.230  0.00  0.00    +0.000 S 
ATOM      8  C   UNL     1      46.879   6.869  12.574  0.00  0.00    +0.000 A 
ATOM      9  N   UNL     1      47.221   7.968  11.848  0.00  0.00    +0.000 NA
ATOM     10  C   UNL     1      48.355   8.494  12.202  0.00  0.00    +0.000 A 
ATOM     11  N   UNL     1      49.159   8.031  13.217  0.00  0.00    +0.000 N 
ATOM     12  C   UNL     1      48.822   6.964  14.008  0.00  0.00    +0.000 A 
ATOM     13  O   UNL     1      49.503   6.629  14.970  0.00  0.00    +0.000 OA
ATOM     14  C   UNL     1      47.583   6.308  13.625  0.00  0.00    +0.000 A 
ATOM     15  H   UNL     1      50.013   8.533  13.428  0.00  0.00    +0.000 HD
BRANCH  10  16
ATOM     16  C   UNL     1      48.904   9.725  11.488  0.00  0.00    +0.000 C 
ATOM     17  N   UNL     1      48.017  10.739  11.303  0.00  0.00    +0.000 N 
ATOM     18  O   UNL     1      50.071   9.739  11.124  0.00  0.00    +0.000 OA
ATOM     19  H   UNL     1      47.059  10.649  11.630  0.00  0.00    +0.000 HD
ATOM     20  H   UNL     1      48.310  11.583  10.832  0.00  0.00    +0.000 HD
ENDBRANCH  10  16
ENDBRANCH   2   5
BRANCH   1  22
ATOM     21  C   UNL     1      47.159   2.637  17.689  0.00  0.00    +0.000 C 
ATOM     22  C   UNL     1      47.848   4.006  17.641  0.00  0.00    +0.000 C 
BRANCH  22  23
ATOM     23  C   UNL     1      49.359   3.948  17.646  0.00  0.00    +0.000 A 
ATOM     24  C   UNL     1      50.023   2.731  17.432  0.00  0.00    +0.000 A 
ATOM     25  C   UNL     1      51.415   2.676  17.472  0.00  0.00    +0.000 A 
ATOM     26  C   UNL     1      52.106   3.849  17.723  0.00  0.00    +0.000 A 
ATOM     27  N   UNL     1      51.501   5.026  17.992  0.00  0.00    +0.000 NA
ATOM     28  C   UNL     1      50.153   5.051  17.939  0.00  0.00    +0.000 A 
BRANCH  26  29
ATOM     29  O   UNL     1      53.493   3.793  17.703  0.00  0.00    +0.000 OA
BRANCH  29  30
ATOM     30  C   UNL     1      54.082   2.660  18.212  0.00  0.00    +0.000 A 
ATOM     31  C   UNL     1      54.514   1.587  17.432  0.00  0.00    +0.000 A 
ATOM     32  C   UNL     1      55.091   0.480  18.045  0.00  0.00    +0.000 A 
ATOM     33  C   UNL     1      55.181   0.467  19.427  0.00  0.00    +0.000 A 
ATOM     34  N   UNL     1      54.737   1.468  20.219  0.00  0.00    +0.000 NA
ATOM     35  C   UNL     1      54.198   2.545  19.590  0.00  0.00    +0.000 A 
ENDBRANCH  29  30
ENDBRANCH  26  29
ENDBRANCH  22  23
ENDBRANCH   1  22
TORSDOF 6
ENDMDL
