MODEL 1
REMARK VINA RESULT:    -7.772      0.000      0.000
REMARK INTER + INTRA:         -10.269
REMARK INTER:                  -9.590
REMARK INTRA:                  -0.679
REMARK UNBOUND:                -0.679
REMARK  Name = 
REMARK  4 active torsions:
REMARK  status: ('A' for Active; 'I' for Inactive)
REMARK    1  A    between atoms: N_6  and  C_7
REMARK    2  A    between atoms: C_7  and  C_8
REMARK    3  A    between atoms: C_8  and  C_9
REMARK    4  A    between atoms: C_13  and  N_14
REMARK                            x       y       z     vdW  Elec       q    Type
REMARK                         _______ _______ _______ _____ _____    ______ ____
ROOT
ATOM      1  C   UNL     1      44.727   5.165  12.272  0.00  0.00    +0.000 A 
ATOM      2  C   UNL     1      43.992   4.403  13.166  0.00  0.00    +0.000 A 
ATOM      3  N   UNL     1      43.427   3.230  12.822  0.00  0.00    +0.000 NA
ATOM      4  C   UNL     1      43.637   2.852  11.532  0.00  0.00    +0.000 A 
ATOM      5  C   UNL     1      44.380   3.576  10.593  0.00  0.00    +0.000 A 
ATOM      6  N   UNL     1      44.915   4.755  10.989  0.00  0.00    +0.000 NA
ENDROOT
BRANCH   5   7
ATOM      7  N   UNL     1      44.549   3.173   9.281  0.00  0.00    +0.000 N 
ATOM      8  C   UNL     1      44.724   1.775   8.893  0.00  0.00    +0.000 C 
ATOM      9  C   UNL     1      46.142   1.545   8.363  0.00  0.00    +0.000 C 
ATOM     10  C   UNL     1      46.488   2.529   7.250  0.00  0.00    +0.000 C 
ATOM     11  C   UNL     1      46.282   3.966   7.723  0.00  0.00    +0.000 C 
ATOM     12  C   UNL     1      44.866   4.174   8.259  0.00  0.00    +0.000 C 
ENDBRANCH   5   7
BRANCH   1  13
ATOM     13  C   UNL     1      45.311   6.487  12.708  0.00  0.00    +0.000 C 
BRANCH  13  14
ATOM     14  C   UNL     1      46.797   6.395  13.061  0.00  0.00    +0.000 C 
BRANCH  14  20
ATOM     15 BR   UNL     1      48.796   4.004  19.002  0.00  0.00    +0.000 Br
ATOM     16  C   UNL     1      48.305   4.325  17.221  0.00  0.00    +0.000 A 
ATOM     17  C   UNL     1      47.693   3.379  16.439  0.00  0.00    +0.000 A 
ATOM     18  N   UNL     1      47.316   3.594  15.157  0.00  0.00    +0.000 NA
ATOM     19  C   UNL     1      47.584   4.803  14.641  0.00  0.00    +0.000 A 
ATOM     20  N   UNL     1      47.182   5.010  13.324  0.00  0.00    +0.000 N 
ATOM     21  N   UNL     1      48.181   5.788  15.331  0.00  0.00    +0.000 NA
ATOM     22  C   UNL     1      48.528   5.532  16.608  0.00  0.00    +0.000 A 
ATOM     23  H   UNL     1      46.472   4.308  13.142  0.00  0.00    +0.000 HD
ENDBRANCH  14  20
ENDBRANCH  13  14
ENDBRANCH   1  13
TORSDOF 4
ENDMDL
MODEL 2
REMARK VINA RESULT:    -7.683      3.265      6.734
REMARK INTER + INTRA:         -10.159
REMARK INTER:                  -9.209
REMARK INTRA:                  -0.950
REMARK UNBOUND:                -0.679
REMARK  Name = 
REMARK  4 active torsions:
REMARK  status: ('A' for Active; 'I' for Inactive)
REMARK    1  A    between atoms: N_6  and  C_7
REMARK    2  A    between atoms: C_7  and  C_8
REMARK    3  A    between atoms: C_8  and  C_9
REMARK    4  A    between atoms: C_13  and  N_14
REMARK                            x       y       z     vdW  Elec       q    Type
REMARK                         _______ _______ _______ _____ _____    ______ ____
ROOT
ATOM      1  C   UNL     1      44.703   5.244  12.771  0.00  0.00    +0.000 A 
ATOM      2  C   UNL     1      45.104   4.015  13.271  0.00  0.00    +0.000 A 
ATOM      3  N   UNL     1      46.328   3.813  13.795  0.00  0.00    +0.000 NA
ATOM      4  C   UNL     1      47.137   4.908  13.798  0.00  0.00    +0.000 A 
ATOM      5  C   UNL     1      46.778   6.173  13.318  0.00  0.00    +0.000 A 
ATOM      6  N   UNL     1      45.539   6.316  12.790  0.00  0.00    +0.000 NA
ENDROOT
BRANCH   5   7
ATOM      7  N   UNL     1      47.636   7.256  13.312  0.00  0.00    +0.000 N 
ATOM      8  C   UNL     1      47.175   8.638  13.433  0.00  0.00    +0.000 C 
ATOM      9  C   UNL     1      47.409   9.393  12.122  0.00  0.00    +0.000 C 
ATOM     10  C   UNL     1      48.860   9.277  11.663  0.00  0.00    +0.000 C 
ATOM     11  C   UNL     1      49.273   7.811  11.559  0.00  0.00    +0.000 C 
ATOM     12  C   UNL     1      49.021   7.072  12.872  0.00  0.00    +0.000 C 
ENDBRANCH   5   7
BRANCH   1  13
ATOM     13  C   UNL     1      43.329   5.402  12.168  0.00  0.00    +0.000 C 
BRANCH  13  14
ATOM     14  C   UNL     1      43.292   5.067  10.675  0.00  0.00    +0.000 C 
BRANCH  14  20
ATOM     15 BR   UNL     1      47.090   1.030   6.895  0.00  0.00    +0.000 Br
ATOM     16  C   UNL     1      46.298   2.409   7.889  0.00  0.00    +0.000 A 
ATOM     17  C   UNL     1      46.402   3.730   7.536  0.00  0.00    +0.000 A 
ATOM     18  N   UNL     1      45.826   4.740   8.230  0.00  0.00    +0.000 NA
ATOM     19  C   UNL     1      45.136   4.404   9.330  0.00  0.00    +0.000 A 
ATOM     20  N   UNL     1      44.542   5.453  10.026  0.00  0.00    +0.000 N 
ATOM     21  N   UNL     1      44.984   3.138   9.752  0.00  0.00    +0.000 NA
ATOM     22  C   UNL     1      45.566   2.164   9.023  0.00  0.00    +0.000 A 
ATOM     23  H   UNL     1      44.483   6.220   9.364  0.00  0.00    +0.000 HD
ENDBRANCH  14  20
ENDBRANCH  13  14
ENDBRANCH   1  13
TORSDOF 4
ENDMDL
MODEL 3
REMARK VINA RESULT:    -7.368      3.182      7.739
REMARK INTER + INTRA:          -9.770
REMARK INTER:                  -9.277
REMARK INTRA:                  -0.493
REMARK UNBOUND:                -0.679
REMARK  Name = 
REMARK  4 active torsions:
REMARK  status: ('A' for Active; 'I' for Inactive)
REMARK    1  A    between atoms: N_6  and  C_7
REMARK    2  A    between atoms: C_7  and  C_8
REMARK    3  A    between atoms: C_8  and  C_9
REMARK    4  A    between atoms: C_13  and  N_14
REMARK                            x       y       z     vdW  Elec       q    Type
REMARK                         _______ _______ _______ _____ _____    ______ ____
ROOT
ATOM      1  C   UNL     1      45.746   4.352  13.076  0.00  0.00    +0.000 A 
ATOM      2  C   UNL     1      46.205   5.412  12.309  0.00  0.00    +0.000 A 
ATOM      3  N   UNL     1      47.139   6.274  12.754  0.00  0.00    +0.000 NA
ATOM      4  C   UNL     1      47.597   6.023  14.011  0.00  0.00    +0.000 A 
ATOM      5  C   UNL     1      47.177   4.962  14.821  0.00  0.00    +0.000 A 
ATOM      6  N   UNL     1      46.227   4.132  14.328  0.00  0.00    +0.000 NA
ENDROOT
BRANCH   5   7
ATOM      7  N   UNL     1      47.645   4.753  16.105  0.00  0.00    +0.000 N 
ATOM      8  C   UNL     1      48.573   5.664  16.773  0.00  0.00    +0.000 C 
ATOM      9  C   UNL     1      49.933   4.987  16.967  0.00  0.00    +0.000 C 
ATOM     10  C   UNL     1      49.790   3.643  17.675  0.00  0.00    +0.000 C 
ATOM     11  C   UNL     1      48.808   2.745  16.926  0.00  0.00    +0.000 C 
ATOM     12  C   UNL     1      47.463   3.441  16.731  0.00  0.00    +0.000 C 
ENDBRANCH   5   7
BRANCH   1  13
ATOM     13  C   UNL     1      44.675   3.436  12.534  0.00  0.00    +0.000 C 
BRANCH  13  14
ATOM     14  C   UNL     1      44.350   3.706  11.063  0.00  0.00    +0.000 C 
BRANCH  14  20
ATOM     15 BR   UNL     1      47.895   2.472   5.502  0.00  0.00    +0.000 Br
ATOM     16  C   UNL     1      46.762   2.476   6.998  0.00  0.00    +0.000 A 
ATOM     17  C   UNL     1      46.490   1.345   7.724  0.00  0.00    +0.000 A 
ATOM     18  N   UNL     1      45.688   1.328   8.814  0.00  0.00    +0.000 NA
ATOM     19  C   UNL     1      45.128   2.492   9.174  0.00  0.00    +0.000 A 
ATOM     20  N   UNL     1      44.315   2.459  10.304  0.00  0.00    +0.000 N 
ATOM     21  N   UNL     1      45.337   3.648   8.522  0.00  0.00    +0.000 NA
ATOM     22  C   UNL     1      46.152   3.619   7.448  0.00  0.00    +0.000 A 
ATOM     23  H   UNL     1      44.585   1.621  10.808  0.00  0.00    +0.000 HD
ENDBRANCH  14  20
ENDBRANCH  13  14
ENDBRANCH   1  13
TORSDOF 4
ENDMDL
MODEL 4
REMARK VINA RESULT:    -6.988      1.221      1.724
REMARK INTER + INTRA:          -9.301
REMARK INTER:                  -8.936
REMARK INTRA:                  -0.365
REMARK UNBOUND:                -0.679
REMARK  Name = 
REMARK  4 active torsions:
REMARK  status: ('A' for Active; 'I' for Inactive)
REMARK    1  A    between atoms: N_6  and  C_7
REMARK    2  A    between atoms: C_7  and  C_8
REMARK    3  A    between atoms: C_8  and  C_9
REMARK    4  A    between atoms: C_13  and  N_14
REMARK                            x       y       z     vdW  Elec       q    Type
REMARK                         _______ _______ _______ _____ _____    ______ ____
ROOT
ATOM      1  C   UNL     1      45.162   4.736  12.301  0.00  0.00    +0.000 A 
ATOM      2  C   UNL     1      44.224   4.127  13.120  0.00  0.00    +0.000 A 
ATOM      3  N   UNL     1      43.417   3.141  12.684  0.00  0.00    +0.000 NA
ATOM      4  C   UNL     1      43.595   2.789  11.382  0.00  0.00    +0.000 A 
ATOM      5  C   UNL     1      44.534   3.362  10.516  0.00  0.00    +0.000 A 
ATOM      6  N   UNL     1      45.311   4.359  11.004  0.00  0.00    +0.000 NA
ENDROOT
BRANCH   5   7
ATOM      7  N   UNL     1      44.668   2.999   9.190  0.00  0.00    +0.000 N 
ATOM      8  C   UNL     1      44.877   1.617   8.760  0.00  0.00    +0.000 C 
ATOM      9  C   UNL     1      46.282   1.450   8.174  0.00  0.00    +0.000 C 
ATOM     10  C   UNL     1      46.552   2.473   7.074  0.00  0.00    +0.000 C 
ATOM     11  C   UNL     1      46.315   3.890   7.591  0.00  0.00    +0.000 C 
ATOM     12  C   UNL     1      44.914   4.034   8.183  0.00  0.00    +0.000 C 
ENDBRANCH   5   7
BRANCH   1  13
ATOM     13  C   UNL     1      46.018   5.858  12.838  0.00  0.00    +0.000 C 
BRANCH  13  14
ATOM     14  C   UNL     1      47.003   5.393  13.913  0.00  0.00    +0.000 C 
BRANCH  14  20
ATOM     15 BR   UNL     1      51.728   4.981  18.658  0.00  0.00    +0.000 Br
ATOM     16  C   UNL     1      50.486   5.462  17.337  0.00  0.00    +0.000 A 
ATOM     17  C   UNL     1      50.714   6.471  16.437  0.00  0.00    +0.000 A 
ATOM     18  N   UNL     1      49.839   6.824  15.467  0.00  0.00    +0.000 NA
ATOM     19  C   UNL     1      48.683   6.144  15.416  0.00  0.00    +0.000 A 
ATOM     20  N   UNL     1      47.798   6.514  14.406  0.00  0.00    +0.000 N 
ATOM     21  N   UNL     1      48.374   5.144  16.257  0.00  0.00    +0.000 NA
ATOM     22  C   UNL     1      49.281   4.819  17.200  0.00  0.00    +0.000 A 
ATOM     23  H   UNL     1      48.361   7.000  13.716  0.00  0.00    +0.000 HD
ENDBRANCH  14  20
ENDBRANCH  13  14
ENDBRANCH   1  13
TORSDOF 4
ENDMDL
MODEL 5
REMARK VINA RESULT:    -6.871      2.563      2.909
REMARK INTER + INTRA:          -9.157
REMARK INTER:                  -8.433
REMARK INTRA:                  -0.724
REMARK UNBOUND:                -0.679
REMARK  Name = 
REMARK  4 active torsions:
REMARK  status: ('A' for Active; 'I' for Inactive)
REMARK    1  A    between atoms: N_6  and  C_7
REMARK    2  A    between atoms: C_7  and  C_8
REMARK    3  A    between atoms: C_8  and  C_9
REMARK    4  A    between atoms: C_13  and  N_14
REMARK                            x       y       z     vdW  Elec       q    Type
REMARK                         _______ _______ _______ _____ _____    ______ ____
ROOT
ATOM      1  C   UNL     1      44.444   5.311  12.145  0.00  0.00    +0.000 A 
ATOM      2  C   UNL     1      43.898   4.477  13.108  0.00  0.00    +0.000 A 
ATOM      3  N   UNL     1      43.543   3.205  12.845  0.00  0.00    +0.000 NA
ATOM      4  C   UNL     1      43.763   2.803  11.564  0.00  0.00    +0.000 A 
ATOM      5  C   UNL     1      44.321   3.598  10.557  0.00  0.00    +0.000 A 
ATOM      6  N   UNL     1      44.649   4.874  10.874  0.00  0.00    +0.000 NA
ENDROOT
BRANCH   5   7
ATOM      7  N   UNL     1      44.505   3.165   9.258  0.00  0.00    +0.000 N 
ATOM      8  C   UNL     1      44.719   1.761   8.909  0.00  0.00    +0.000 C 
ATOM      9  C   UNL     1      46.145   1.555   8.389  0.00  0.00    +0.000 C 
ATOM     10  C   UNL     1      46.467   2.518   7.250  0.00  0.00    +0.000 C 
ATOM     11  C   UNL     1      46.221   3.961   7.682  0.00  0.00    +0.000 C 
ATOM     12  C   UNL     1      44.798   4.144   8.209  0.00  0.00    +0.000 C 
ENDBRANCH   5   7
BRANCH   1  13
ATOM     13  C   UNL     1      44.795   6.737  12.491  0.00  0.00    +0.000 C 
BRANCH  13  14
ATOM     14  C   UNL     1      46.091   7.209  11.829  0.00  0.00    +0.000 C 
BRANCH  14  20
ATOM     15 BR   UNL     1      51.529   9.696  14.871  0.00  0.00    +0.000 Br
ATOM     16  C   UNL     1      50.188   8.674  14.049  0.00  0.00    +0.000 A 
ATOM     17  C   UNL     1      49.904   7.385  14.424  0.00  0.00    +0.000 A 
ATOM     18  N   UNL     1      48.931   6.635  13.856  0.00  0.00    +0.000 NA
ATOM     19  C   UNL     1      48.231   7.202  12.861  0.00  0.00    +0.000 A 
ATOM     20  N   UNL     1      47.228   6.420  12.294  0.00  0.00    +0.000 N 
ATOM     21  N   UNL     1      48.441   8.456  12.428  0.00  0.00    +0.000 NA
ATOM     22  C   UNL     1      49.413   9.169  13.031  0.00  0.00    +0.000 A 
ATOM     23  H   UNL     1      47.022   5.702  12.981  0.00  0.00    +0.000 HD
ENDBRANCH  14  20
ENDBRANCH  13  14
ENDBRANCH   1  13
TORSDOF 4
ENDMDL
MODEL 6
REMARK VINA RESULT:    -6.663      3.057      3.866
REMARK INTER + INTRA:          -8.900
REMARK INTER:                  -8.433
REMARK INTRA:                  -0.467
REMARK UNBOUND:                -0.679
REMARK  Name = 
REMARK  4 active torsions:
REMARK  status: ('A' for Active; 'I' for Inactive)
REMARK    1  A    between atoms: N_6  and  C_7
REMARK    2  A    between atoms: C_7  and  C_8
REMARK    3  A    between atoms: C_8  and  C_9
REMARK    4  A    between atoms: C_13  and  N_14
REMARK                            x       y       z     vdW  Elec       q    Type
REMARK                         _______ _______ _______ _____ _____    ______ ____
ROOT
ATOM      1  C   UNL     1      45.094   5.008  12.085  0.00  0.00    +0.000 A 
ATOM      2  C   UNL     1      44.264   4.360  12.986  0.00  0.00    +0.000 A 
ATOM      3  N   UNL     1      43.559   3.261  12.657  0.00  0.00    +0.000 NA
ATOM      4  C   UNL     1      43.728   2.836  11.375  0.00  0.00    +0.000 A 
ATOM      5  C   UNL     1      44.561   3.444  10.430  0.00  0.00    +0.000 A 
ATOM      6  N   UNL     1      45.237   4.555  10.811  0.00  0.00    +0.000 NA
ENDROOT
BRANCH   5   7
ATOM      7  N   UNL     1      44.686   3.001   9.127  0.00  0.00    +0.000 N 
ATOM      8  C   UNL     1      44.925   1.600   8.782  0.00  0.00    +0.000 C 
ATOM      9  C   UNL     1      46.325   1.432   8.186  0.00  0.00    +0.000 C 
ATOM     10  C   UNL     1      46.554   2.389   7.020  0.00  0.00    +0.000 C 
ATOM     11  C   UNL     1      46.286   3.830   7.450  0.00  0.00    +0.000 C 
ATOM     12  C   UNL     1      44.890   3.976   8.053  0.00  0.00    +0.000 C 
ENDBRANCH   5   7
BRANCH   1  13
ATOM     13  C   UNL     1      45.835   6.255  12.502  0.00  0.00    +0.000 C 
BRANCH  13  14
ATOM     14  C   UNL     1      47.015   5.962  13.433  0.00  0.00    +0.000 C 
BRANCH  14  20
ATOM     15 BR   UNL     1      51.573  10.007  10.626  0.00  0.00    +0.000 Br
ATOM     16  C   UNL     1      50.317   9.117  11.697  0.00  0.00    +0.000 A 
ATOM     17  C   UNL     1      49.449   9.779  12.527  0.00  0.00    +0.000 A 
ATOM     18  N   UNL     1      48.524   9.158  13.296  0.00  0.00    +0.000 NA
ATOM     19  C   UNL     1      48.487   7.818  13.237  0.00  0.00    +0.000 A 
ATOM     20  N   UNL     1      47.524   7.195  14.027  0.00  0.00    +0.000 N 
ATOM     21  N   UNL     1      49.299   7.087  12.455  0.00  0.00    +0.000 NA
ATOM     22  C   UNL     1      50.196   7.750  11.698  0.00  0.00    +0.000 A 
ATOM     23  H   UNL     1      46.834   7.912  14.229  0.00  0.00    +0.000 HD
ENDBRANCH  14  20
ENDBRANCH  13  14
ENDBRANCH   1  13
TORSDOF 4
ENDMDL
MODEL 7
REMARK VINA RESULT:    -6.600      3.100      5.148
REMARK INTER + INTRA:          -8.822
REMARK INTER:                  -8.330
REMARK INTRA:                  -0.492
REMARK UNBOUND:                -0.679
REMARK  Name = 
REMARK  4 active torsions:
REMARK  status: ('A' for Active; 'I' for Inactive)
REMARK    1  A    between atoms: N_6  and  C_7
REMARK    2  A    between atoms: C_7  and  C_8
REMARK    3  A    between atoms: C_8  and  C_9
REMARK    4  A    between atoms: C_13  and  N_14
REMARK                            x       y       z     vdW  Elec       q    Type
REMARK                         _______ _______ _______ _____ _____    ______ ____
ROOT
ATOM      1  C   UNL     1      47.284   4.384  15.772  0.00  0.00    +0.000 A 
ATOM      2  C   UNL     1      48.189   5.433  15.749  0.00  0.00    +0.000 A 
ATOM      3  N   UNL     1      48.339   6.233  14.676  0.00  0.00    +0.000 NA
ATOM      4  C   UNL     1      47.534   5.932  13.621  0.00  0.00    +0.000 A 
ATOM      5  C   UNL     1      46.596   4.894  13.597  0.00  0.00    +0.000 A 
ATOM      6  N   UNL     1      46.495   4.112  14.699  0.00  0.00    +0.000 NA
ENDROOT
BRANCH   5   7
ATOM      7  N   UNL     1      45.814   4.600  12.496  0.00  0.00    +0.000 N 
ATOM      8  C   UNL     1      45.420   5.603  11.508  0.00  0.00    +0.000 C 
ATOM      9  C   UNL     1      43.912   5.856  11.580  0.00  0.00    +0.000 C 
ATOM     10  C   UNL     1      43.123   4.554  11.468  0.00  0.00    +0.000 C 
ATOM     11  C   UNL     1      43.585   3.555  12.526  0.00  0.00    +0.000 C 
ATOM     12  C   UNL     1      45.093   3.326  12.447  0.00  0.00    +0.000 C 
ENDBRANCH   5   7
BRANCH   1  13
ATOM     13  C   UNL     1      47.181   3.502  16.993  0.00  0.00    +0.000 C 
BRANCH  13  14
ATOM     14  C   UNL     1      48.534   3.258  17.666  0.00  0.00    +0.000 C 
BRANCH  14  20
ATOM     15 BR   UNL     1      55.069   2.005  18.526  0.00  0.00    +0.000 Br
ATOM     16  C   UNL     1      53.265   2.093  18.020  0.00  0.00    +0.000 A 
ATOM     17  C   UNL     1      52.556   0.993  17.610  0.00  0.00    +0.000 A 
ATOM     18  N   UNL     1      51.250   1.031  17.256  0.00  0.00    +0.000 NA
ATOM     19  C   UNL     1      50.644   2.226  17.301  0.00  0.00    +0.000 A 
ATOM     20  N   UNL     1      49.298   2.246  16.942  0.00  0.00    +0.000 N 
ATOM     21  N   UNL     1      51.259   3.356  17.687  0.00  0.00    +0.000 NA
ATOM     22  C   UNL     1      52.557   3.268  18.042  0.00  0.00    +0.000 A 
ATOM     23  H   UNL     1      48.977   1.288  17.041  0.00  0.00    +0.000 HD
ENDBRANCH  14  20
ENDBRANCH  13  14
ENDBRANCH   1  13
TORSDOF 4
ENDMDL
MODEL 8
REMARK VINA RESULT:    -6.296      3.954      7.333
REMARK INTER + INTRA:          -8.447
REMARK INTER:                  -7.986
REMARK INTRA:                  -0.461
REMARK UNBOUND:                -0.679
REMARK  Name = 
REMARK  4 active torsions:
REMARK  status: ('A' for Active; 'I' for Inactive)
REMARK    1  A    between atoms: N_6  and  C_7
REMARK    2  A    between atoms: C_7  and  C_8
REMARK    3  A    between atoms: C_8  and  C_9
REMARK    4  A    between atoms: C_13  and  N_14
REMARK                            x       y       z     vdW  Elec       q    Type
REMARK                         _______ _______ _______ _____ _____    ______ ____
ROOT
ATOM      1  C   UNL     1      45.745   6.593  11.931  0.00  0.00    +0.000 A 
ATOM      2  C   UNL     1      44.814   7.617  12.004  0.00  0.00    +0.000 A 
ATOM      3  N   UNL     1      45.164   8.896  12.241  0.00  0.00    +0.000 NA
ATOM      4  C   UNL     1      46.499   9.103  12.399  0.00  0.00    +0.000 A 
ATOM      5  C   UNL     1      47.481   8.109  12.323  0.00  0.00    +0.000 A 
ATOM      6  N   UNL     1      47.072   6.838  12.095  0.00  0.00    +0.000 NA
ENDROOT
BRANCH   5   7
ATOM      7  N   UNL     1      48.828   8.352  12.517  0.00  0.00    +0.000 N 
ATOM      8  C   UNL     1      49.380   9.697  12.677  0.00  0.00    +0.000 C 
ATOM      9  C   UNL     1      50.250  10.060  11.471  0.00  0.00    +0.000 C 
ATOM     10  C   UNL     1      51.313   8.997  11.210  0.00  0.00    +0.000 C 
ATOM     11  C   UNL     1      50.669   7.622  11.054  0.00  0.00    +0.000 C 
ATOM     12  C   UNL     1      49.795   7.282  12.260  0.00  0.00    +0.000 C 
ENDBRANCH   5   7
BRANCH   1  13
ATOM     13  C   UNL     1      45.290   5.174  11.694  0.00  0.00    +0.000 C 
BRANCH  13  14
ATOM     14  C   UNL     1      44.043   5.089  10.810  0.00  0.00    +0.000 C 
BRANCH  14  20
ATOM     15 BR   UNL     1      47.790   2.136   6.092  0.00  0.00    +0.000 Br
ATOM     16  C   UNL     1      46.548   2.643   7.403  0.00  0.00    +0.000 A 
ATOM     17  C   UNL     1      46.012   1.753   8.299  0.00  0.00    +0.000 A 
ATOM     18  N   UNL     1      45.126   2.099   9.262  0.00  0.00    +0.000 NA
ATOM     19  C   UNL     1      44.756   3.387   9.311  0.00  0.00    +0.000 A 
ATOM     20  N   UNL     1      43.852   3.728  10.314  0.00  0.00    +0.000 N 
ATOM     21  N   UNL     1      45.227   4.327   8.474  0.00  0.00    +0.000 NA
ATOM     22  C   UNL     1      46.116   3.938   7.538  0.00  0.00    +0.000 A 
ATOM     23  H   UNL     1      43.920   2.987  11.004  0.00  0.00    +0.000 HD
ENDBRANCH  14  20
ENDBRANCH  13  14
ENDBRANCH   1  13
TORSDOF 4
ENDMDL
MODEL 9
REMARK VINA RESULT:    -6.118      3.040      7.387
REMARK INTER + INTRA:          -8.228
REMARK INTER:                  -7.466
REMARK INTRA:                  -0.762
REMARK UNBOUND:                -0.679
REMARK  Name = 
REMARK  4 active torsions:
REMARK  status: ('A' for Active; 'I' for Inactive)
REMARK    1  A    between atoms: N_6  and  C_7
REMARK    2  A    between atoms: C_7  and  C_8
REMARK    3  A    between atoms: C_8  and  C_9
REMARK    4  A    between atoms: C_13  and  N_14
REMARK                            x       y       z     vdW  Elec       q    Type
REMARK                         _______ _______ _______ _____ _____    ______ ____
ROOT
ATOM      1  C   UNL     1      48.605   7.168  13.678  0.00  0.00    +0.000 A 
ATOM      2  C   UNL     1      49.677   8.032  13.834  0.00  0.00    +0.000 A 
ATOM      3  N   UNL     1      50.449   8.033  14.937  0.00  0.00    +0.000 NA
ATOM      4  C   UNL     1      50.096   7.120  15.883  0.00  0.00    +0.000 A 
ATOM      5  C   UNL     1      49.033   6.218  15.771  0.00  0.00    +0.000 A 
ATOM      6  N   UNL     1      48.281   6.269  14.645  0.00  0.00    +0.000 NA
ENDROOT
BRANCH   5   7
ATOM      7  N   UNL     1      48.686   5.322  16.765  0.00  0.00    +0.000 N 
ATOM      8  C   UNL     1      49.537   5.046  17.921  0.00  0.00    +0.000 C 
ATOM      9  C   UNL     1      50.077   3.615  17.854  0.00  0.00    +0.000 C 
ATOM     10  C   UNL     1      48.950   2.602  17.677  0.00  0.00    +0.000 C 
ATOM     11  C   UNL     1      48.103   2.951  16.455  0.00  0.00    +0.000 C 
ATOM     12  C   UNL     1      47.584   4.385  16.535  0.00  0.00    +0.000 C 
ENDBRANCH   5   7
BRANCH   1  13
ATOM     13  C   UNL     1      47.757   7.234  12.431  0.00  0.00    +0.000 C 
BRANCH  13  14
ATOM     14  C   UNL     1      46.293   7.574  12.724  0.00  0.00    +0.000 C 
BRANCH  14  20
ATOM     15 BR   UNL     1      44.585   2.126   9.200  0.00  0.00    +0.000 Br
ATOM     16  C   UNL     1      44.887   3.477  10.466  0.00  0.00    +0.000 A 
ATOM     17  C   UNL     1      45.102   3.212  11.795  0.00  0.00    +0.000 A 
ATOM     18  N   UNL     1      45.337   4.169  12.722  0.00  0.00    +0.000 NA
ATOM     19  C   UNL     1      45.337   5.441  12.296  0.00  0.00    +0.000 A 
ATOM     20  N   UNL     1      45.589   6.412  13.261  0.00  0.00    +0.000 N 
ATOM     21  N   UNL     1      45.133   5.793  11.016  0.00  0.00    +0.000 NA
ATOM     22  C   UNL     1      44.914   4.805  10.125  0.00  0.00    +0.000 A 
ATOM     23  H   UNL     1      46.049   5.924  14.024  0.00  0.00    +0.000 HD
ENDBRANCH  14  20
ENDBRANCH  13  14
ENDBRANCH   1  13
TORSDOF 4
ENDMDL
