MODEL 1
REMARK VINA RESULT:    -8.310      0.000      0.000
REMARK INTER + INTRA:         -11.425
REMARK INTER:                 -10.739
REMARK INTRA:                  -0.685
REMARK UNBOUND:                -0.685
REMARK  Name = 
REMARK  5 active torsions:
REMARK  status: ('A' for Active; 'I' for Inactive)
REMARK    1  A    between atoms: C_2  and  C_4
REMARK    2  A    between atoms: C_7  and  O_8
REMARK    3  A    between atoms: O_8  and  C_9
REMARK    4  A    between atoms: C_9  and  C_10
REMARK    5  A    between atoms: C_10  and  C_13
REMARK                            x       y       z     vdW  Elec       q    Type
REMARK                         _______ _______ _______ _____ _____    ______ ____
ROOT
ATOM      1  C   UNL     1      46.370   2.457   7.750  0.00  0.00    +0.000 A 
ATOM      2  C   UNL     1      45.631   1.791   8.729  0.00  0.00    +0.000 A 
ATOM      3  C   UNL     1      44.725   2.514   9.508  0.00  0.00    +0.000 A 
ATOM      4  C   UNL     1      44.613   3.881   9.296  0.00  0.00    +0.000 A 
ATOM      5  N   UNL     1      45.317   4.551   8.361  0.00  0.00    +0.000 NA
ATOM      6  C   UNL     1      46.182   3.827   7.611  0.00  0.00    +0.000 A 
ENDROOT
BRANCH   1   8
ATOM      7  N   UNL     1      48.462   2.516   6.512  0.00  0.00    +0.000 N 
ATOM      8  C   UNL     1      47.361   1.795   6.878  0.00  0.00    +0.000 C 
ATOM      9  O   UNL     1      47.224   0.632   6.528  0.00  0.00    +0.000 OA
ATOM     10  H   UNL     1      49.180   2.008   6.008  0.00  0.00    +0.000 HD
ATOM     11  H   UNL     1      48.738   3.369   6.975  0.00  0.00    +0.000 HD
ENDBRANCH   1   8
BRANCH   4  12
ATOM     12  O   UNL     1      43.708   4.568  10.076  0.00  0.00    +0.000 OA
BRANCH  12  13
ATOM     13  C   UNL     1      43.334   3.827  11.253  0.00  0.00    +0.000 C 
BRANCH  13  14
ATOM     14  C   UNL     1      43.303   4.745  12.482  0.00  0.00    +0.000 C 
ATOM     15  F   UNL     1      42.306   5.667  12.312  0.00  0.00    +0.000 F 
ATOM     16  F   UNL     1      42.928   4.010  13.573  0.00  0.00    +0.000 F 
BRANCH  14  17
ATOM     17  C   UNL     1      44.652   5.412  12.695  0.00  0.00    +0.000 A 
ATOM     18  C   UNL     1      44.817   6.786  12.460  0.00  0.00    +0.000 A 
ATOM     19  C   UNL     1      46.058   7.396  12.658  0.00  0.00    +0.000 A 
ATOM     20  C   UNL     1      47.146   6.641  13.092  0.00  0.00    +0.000 A 
ATOM     21  C   UNL     1      46.998   5.275  13.324  0.00  0.00    +0.000 A 
ATOM     22  C   UNL     1      45.759   4.663  13.125  0.00  0.00    +0.000 A 
ENDBRANCH  14  17
ENDBRANCH  13  14
ENDBRANCH  12  13
ENDBRANCH   4  12
TORSDOF 5
ENDMDL
MODEL 2
REMARK VINA RESULT:    -7.490      3.172      6.446
REMARK INTER + INTRA:         -10.364
REMARK INTER:                  -9.929
REMARK INTRA:                  -0.435
REMARK UNBOUND:                -0.685
REMARK  Name = 
REMARK  5 active torsions:
REMARK  status: ('A' for Active; 'I' for Inactive)
REMARK    1  A    between atoms: C_2  and  C_4
REMARK    2  A    between atoms: C_7  and  O_8
REMARK    3  A    between atoms: O_8  and  C_9
REMARK    4  A    between atoms: C_9  and  C_10
REMARK    5  A    between atoms: C_10  and  C_13
REMARK                            x       y       z     vdW  Elec       q    Type
REMARK                         _______ _______ _______ _____ _____    ______ ____
ROOT
ATOM      1  C   UNL     1      47.064   5.594  13.850  0.00  0.00    +0.000 A 
ATOM      2  C   UNL     1      46.411   6.506  13.018  0.00  0.00    +0.000 A 
ATOM      3  C   UNL     1      45.441   6.040  12.127  0.00  0.00    +0.000 A 
ATOM      4  C   UNL     1      45.179   4.678  12.084  0.00  0.00    +0.000 A 
ATOM      5  N   UNL     1      45.797   3.775  12.873  0.00  0.00    +0.000 NA
ATOM      6  C   UNL     1      46.727   4.251  13.735  0.00  0.00    +0.000 A 
ENDROOT
BRANCH   1   8
ATOM      7  N   UNL     1      47.883   5.694  16.137  0.00  0.00    +0.000 N 
ATOM      8  C   UNL     1      48.111   5.973  14.819  0.00  0.00    +0.000 C 
ATOM      9  O   UNL     1      49.162   6.482  14.456  0.00  0.00    +0.000 OA
ATOM     10  H   UNL     1      48.659   5.860  16.768  0.00  0.00    +0.000 HD
ATOM     11  H   UNL     1      47.163   5.059  16.446  0.00  0.00    +0.000 HD
ENDBRANCH   1   8
BRANCH   4  12
ATOM     12  O   UNL     1      44.214   4.248  11.200  0.00  0.00    +0.000 OA
BRANCH  12  13
ATOM     13  C   UNL     1      44.726   3.277  10.268  0.00  0.00    +0.000 C 
BRANCH  13  14
ATOM     14  C   UNL     1      45.045   3.939   8.920  0.00  0.00    +0.000 C 
ATOM     15  F   UNL     1      43.868   4.300   8.323  0.00  0.00    +0.000 F 
ATOM     16  F   UNL     1      45.704   5.115   9.152  0.00  0.00    +0.000 F 
BRANCH  14  17
ATOM     17  C   UNL     1      45.858   3.008   8.037  0.00  0.00    +0.000 A 
ATOM     18  C   UNL     1      46.433   3.472   6.843  0.00  0.00    +0.000 A 
ATOM     19  C   UNL     1      47.181   2.613   6.035  0.00  0.00    +0.000 A 
ATOM     20  C   UNL     1      47.364   1.283   6.410  0.00  0.00    +0.000 A 
ATOM     21  C   UNL     1      46.795   0.808   7.589  0.00  0.00    +0.000 A 
ATOM     22  C   UNL     1      46.045   1.664   8.399  0.00  0.00    +0.000 A 
ENDBRANCH  14  17
ENDBRANCH  13  14
ENDBRANCH  12  13
ENDBRANCH   4  12
TORSDOF 5
ENDMDL
MODEL 3
REMARK VINA RESULT:    -7.411      2.993      6.205
REMARK INTER + INTRA:         -10.262
REMARK INTER:                 -10.001
REMARK INTRA:                  -0.262
REMARK UNBOUND:                -0.685
REMARK  Name = 
REMARK  5 active torsions:
REMARK  status: ('A' for Active; 'I' for Inactive)
REMARK    1  A    between atoms: C_2  and  C_4
REMARK    2  A    between atoms: C_7  and  O_8
REMARK    3  A    between atoms: O_8  and  C_9
REMARK    4  A    between atoms: C_9  and  C_10
REMARK    5  A    between atoms: C_10  and  C_13
REMARK                            x       y       z     vdW  Elec       q    Type
REMARK                         _______ _______ _______ _____ _____    ______ ____
ROOT
ATOM      1  C   UNL     1      46.601   5.990  13.112  0.00  0.00    +0.000 A 
ATOM      2  C   UNL     1      46.485   6.430  11.793  0.00  0.00    +0.000 A 
ATOM      3  C   UNL     1      45.489   5.886  10.979  0.00  0.00    +0.000 A 
ATOM      4  C   UNL     1      44.663   4.903  11.508  0.00  0.00    +0.000 A 
ATOM      5  N   UNL     1      44.755   4.457  12.778  0.00  0.00    +0.000 NA
ATOM      6  C   UNL     1      45.722   5.007  13.551  0.00  0.00    +0.000 A 
ENDROOT
BRANCH   1   8
ATOM      7  N   UNL     1      47.712   7.840  14.233  0.00  0.00    +0.000 N 
ATOM      8  C   UNL     1      47.621   6.489  14.056  0.00  0.00    +0.000 C 
ATOM      9  O   UNL     1      48.333   5.721  14.687  0.00  0.00    +0.000 OA
ATOM     10  H   UNL     1      48.340   8.152  14.965  0.00  0.00    +0.000 HD
ATOM     11  H   UNL     1      46.992   8.481  13.937  0.00  0.00    +0.000 HD
ENDBRANCH   1   8
BRANCH   4  12
ATOM     12  O   UNL     1      43.686   4.388  10.684  0.00  0.00    +0.000 OA
BRANCH  12  13
ATOM     13  C   UNL     1      44.198   4.053   9.380  0.00  0.00    +0.000 C 
BRANCH  13  14
ATOM     14  C   UNL     1      44.868   2.672   9.403  0.00  0.00    +0.000 C 
ATOM     15  F   UNL     1      45.564   2.545  10.574  0.00  0.00    +0.000 F 
ATOM     16  F   UNL     1      43.896   1.712   9.458  0.00  0.00    +0.000 F 
BRANCH  14  17
ATOM     17  C   UNL     1      45.768   2.486   8.193  0.00  0.00    +0.000 A 
ATOM     18  C   UNL     1      45.918   3.512   7.247  0.00  0.00    +0.000 A 
ATOM     19  C   UNL     1      46.748   3.337   6.137  0.00  0.00    +0.000 A 
ATOM     20  C   UNL     1      47.436   2.139   5.960  0.00  0.00    +0.000 A 
ATOM     21  C   UNL     1      47.292   1.110   6.889  0.00  0.00    +0.000 A 
ATOM     22  C   UNL     1      46.463   1.281   7.999  0.00  0.00    +0.000 A 
ENDBRANCH  14  17
ENDBRANCH  13  14
ENDBRANCH  12  13
ENDBRANCH   4  12
TORSDOF 5
ENDMDL
MODEL 4
REMARK VINA RESULT:    -7.107      3.107      6.523
REMARK INTER + INTRA:          -9.869
REMARK INTER:                  -9.244
REMARK INTRA:                  -0.625
REMARK UNBOUND:                -0.685
REMARK  Name = 
REMARK  5 active torsions:
REMARK  status: ('A' for Active; 'I' for Inactive)
REMARK    1  A    between atoms: C_2  and  C_4
REMARK    2  A    between atoms: C_7  and  O_8
REMARK    3  A    between atoms: O_8  and  C_9
REMARK    4  A    between atoms: C_9  and  C_10
REMARK    5  A    between atoms: C_10  and  C_13
REMARK                            x       y       z     vdW  Elec       q    Type
REMARK                         _______ _______ _______ _____ _____    ______ ____
ROOT
ATOM      1  C   UNL     1      45.142   7.919  11.789  0.00  0.00    +0.000 A 
ATOM      2  C   UNL     1      46.032   6.846  11.718  0.00  0.00    +0.000 A 
ATOM      3  C   UNL     1      45.552   5.587  11.351  0.00  0.00    +0.000 A 
ATOM      4  C   UNL     1      44.195   5.444  11.095  0.00  0.00    +0.000 A 
ATOM      5  N   UNL     1      43.312   6.462  11.160  0.00  0.00    +0.000 NA
ATOM      6  C   UNL     1      43.804   7.676  11.508  0.00  0.00    +0.000 A 
ENDROOT
BRANCH   1   8
ATOM      7  N   UNL     1      44.550  10.144  12.574  0.00  0.00    +0.000 N 
ATOM      8  C   UNL     1      45.539   9.289  12.176  0.00  0.00    +0.000 C 
ATOM      9  O   UNL     1      46.711   9.635  12.179  0.00  0.00    +0.000 OA
ATOM     10  H   UNL     1      44.856  11.038  12.939  0.00  0.00    +0.000 HD
ATOM     11  H   UNL     1      43.625   9.832  12.827  0.00  0.00    +0.000 HD
ENDBRANCH   1   8
BRANCH   4  12
ATOM     12  O   UNL     1      43.750   4.192  10.730  0.00  0.00    +0.000 OA
BRANCH  12  13
ATOM     13  C   UNL     1      44.141   3.848   9.387  0.00  0.00    +0.000 C 
BRANCH  13  14
ATOM     14  C   UNL     1      44.937   2.536   9.376  0.00  0.00    +0.000 C 
ATOM     15  F   UNL     1      45.622   2.432  10.556  0.00  0.00    +0.000 F 
ATOM     16  F   UNL     1      44.058   1.488   9.379  0.00  0.00    +0.000 F 
BRANCH  14  17
ATOM     17  C   UNL     1      45.871   2.478   8.180  0.00  0.00    +0.000 A 
ATOM     18  C   UNL     1      46.613   1.318   7.905  0.00  0.00    +0.000 A 
ATOM     19  C   UNL     1      47.470   1.269   6.803  0.00  0.00    +0.000 A 
ATOM     20  C   UNL     1      47.595   2.375   5.965  0.00  0.00    +0.000 A 
ATOM     21  C   UNL     1      46.869   3.534   6.229  0.00  0.00    +0.000 A 
ATOM     22  C   UNL     1      46.013   3.587   7.330  0.00  0.00    +0.000 A 
ENDBRANCH  14  17
ENDBRANCH  13  14
ENDBRANCH  12  13
ENDBRANCH   4  12
TORSDOF 5
ENDMDL
MODEL 5
REMARK VINA RESULT:    -6.809      3.167      6.004
REMARK INTER + INTRA:          -9.484
REMARK INTER:                  -8.652
REMARK INTRA:                  -0.832
REMARK UNBOUND:                -0.685
REMARK  Name = 
REMARK  5 active torsions:
REMARK  status: ('A' for Active; 'I' for Inactive)
REMARK    1  A    between atoms: C_2  and  C_4
REMARK    2  A    between atoms: C_7  and  O_8
REMARK    3  A    between atoms: O_8  and  C_9
REMARK    4  A    between atoms: C_9  and  C_10
REMARK    5  A    between atoms: C_10  and  C_13
REMARK                            x       y       z     vdW  Elec       q    Type
REMARK                         _______ _______ _______ _____ _____    ______ ____
ROOT
ATOM      1  C   UNL     1      47.017   7.917  12.427  0.00  0.00    +0.000 A 
ATOM      2  C   UNL     1      47.540   6.623  12.397  0.00  0.00    +0.000 A 
ATOM      3  C   UNL     1      46.677   5.536  12.553  0.00  0.00    +0.000 A 
ATOM      4  C   UNL     1      45.327   5.785  12.758  0.00  0.00    +0.000 A 
ATOM      5  N   UNL     1      44.795   7.024  12.794  0.00  0.00    +0.000 NA
ATOM      6  C   UNL     1      45.650   8.062  12.631  0.00  0.00    +0.000 A 
ENDROOT
BRANCH   1   8
ATOM      7  N   UNL     1      47.454  10.242  12.990  0.00  0.00    +0.000 N 
ATOM      8  C   UNL     1      47.837   9.137  12.284  0.00  0.00    +0.000 C 
ATOM      9  O   UNL     1      48.844   9.149  11.591  0.00  0.00    +0.000 OA
ATOM     10  H   UNL     1      48.091  11.029  12.964  0.00  0.00    +0.000 HD
ATOM     11  H   UNL     1      46.797  10.203  13.754  0.00  0.00    +0.000 HD
ENDBRANCH   1   8
BRANCH   4  12
ATOM     12  O   UNL     1      44.499   4.694  12.902  0.00  0.00    +0.000 OA
BRANCH  12  13
ATOM     13  C   UNL     1      44.970   3.553  12.159  0.00  0.00    +0.000 C 
BRANCH  13  14
ATOM     14  C   UNL     1      44.093   3.317  10.921  0.00  0.00    +0.000 C 
ATOM     15  F   UNL     1      43.379   2.165  11.107  0.00  0.00    +0.000 F 
ATOM     16  F   UNL     1      43.157   4.311  10.848  0.00  0.00    +0.000 F 
BRANCH  14  17
ATOM     17  C   UNL     1      44.940   3.253   9.661  0.00  0.00    +0.000 A 
ATOM     18  C   UNL     1      45.306   2.017   9.106  0.00  0.00    +0.000 A 
ATOM     19  C   UNL     1      46.083   1.963   7.946  0.00  0.00    +0.000 A 
ATOM     20  C   UNL     1      46.502   3.140   7.330  0.00  0.00    +0.000 A 
ATOM     21  C   UNL     1      46.151   4.374   7.874  0.00  0.00    +0.000 A 
ATOM     22  C   UNL     1      45.375   4.432   9.033  0.00  0.00    +0.000 A 
ENDBRANCH  14  17
ENDBRANCH  13  14
ENDBRANCH  12  13
ENDBRANCH   4  12
TORSDOF 5
ENDMDL
MODEL 6
REMARK VINA RESULT:    -6.722      3.719      6.531
REMARK INTER + INTRA:          -9.372
REMARK INTER:                  -8.786
REMARK INTRA:                  -0.586
REMARK UNBOUND:                -0.685
REMARK  Name = 
REMARK  5 active torsions:
REMARK  status: ('A' for Active; 'I' for Inactive)
REMARK    1  A    between atoms: C_2  and  C_4
REMARK    2  A    between atoms: C_7  and  O_8
REMARK    3  A    between atoms: O_8  and  C_9
REMARK    4  A    between atoms: C_9  and  C_10
REMARK    5  A    between atoms: C_10  and  C_13
REMARK                            x       y       z     vdW  Elec       q    Type
REMARK                         _______ _______ _______ _____ _____    ______ ____
ROOT
ATOM      1  C   UNL     1      48.109   5.711  15.297  0.00  0.00    +0.000 A 
ATOM      2  C   UNL     1      47.811   6.178  14.016  0.00  0.00    +0.000 A 
ATOM      3  C   UNL     1      46.931   5.448  13.213  0.00  0.00    +0.000 A 
ATOM      4  C   UNL     1      46.403   4.265  13.714  0.00  0.00    +0.000 A 
ATOM      5  N   UNL     1      46.677   3.789  14.946  0.00  0.00    +0.000 NA
ATOM      6  C   UNL     1      47.525   4.520  15.709  0.00  0.00    +0.000 A 
ENDROOT
BRANCH   1   8
ATOM      7  N   UNL     1      48.481   7.138  17.231  0.00  0.00    +0.000 N 
ATOM      8  C   UNL     1      49.032   6.396  16.225  0.00  0.00    +0.000 C 
ATOM      9  O   UNL     1      50.244   6.272  16.124  0.00  0.00    +0.000 OA
ATOM     10  H   UNL     1      49.128   7.505  17.919  0.00  0.00    +0.000 HD
ATOM     11  H   UNL     1      47.513   7.061  17.502  0.00  0.00    +0.000 HD
ENDBRANCH   1   8
BRANCH   4  12
ATOM     12  O   UNL     1      45.534   3.569  12.902  0.00  0.00    +0.000 OA
BRANCH  12  13
ATOM     13  C   UNL     1      44.456   4.397  12.426  0.00  0.00    +0.000 C 
BRANCH  13  14
ATOM     14  C   UNL     1      43.669   3.676  11.323  0.00  0.00    +0.000 C 
ATOM     15  F   UNL     1      43.216   2.484  11.820  0.00  0.00    +0.000 F 
ATOM     16  F   UNL     1      42.541   4.398  11.043  0.00  0.00    +0.000 F 
BRANCH  14  17
ATOM     17  C   UNL     1      44.526   3.478  10.086  0.00  0.00    +0.000 A 
ATOM     18  C   UNL     1      45.053   4.580   9.394  0.00  0.00    +0.000 A 
ATOM     19  C   UNL     1      45.843   4.393   8.257  0.00  0.00    +0.000 A 
ATOM     20  C   UNL     1      46.115   3.106   7.799  0.00  0.00    +0.000 A 
ATOM     21  C   UNL     1      45.594   2.003   8.472  0.00  0.00    +0.000 A 
ATOM     22  C   UNL     1      44.803   2.186   9.608  0.00  0.00    +0.000 A 
ENDBRANCH  14  17
ENDBRANCH  13  14
ENDBRANCH  12  13
ENDBRANCH   4  12
TORSDOF 5
ENDMDL
MODEL 7
REMARK VINA RESULT:    -6.610      4.406      6.410
REMARK INTER + INTRA:          -9.227
REMARK INTER:                  -8.740
REMARK INTRA:                  -0.487
REMARK UNBOUND:                -0.685
REMARK  Name = 
REMARK  5 active torsions:
REMARK  status: ('A' for Active; 'I' for Inactive)
REMARK    1  A    between atoms: C_2  and  C_4
REMARK    2  A    between atoms: C_7  and  O_8
REMARK    3  A    between atoms: O_8  and  C_9
REMARK    4  A    between atoms: C_9  and  C_10
REMARK    5  A    between atoms: C_10  and  C_13
REMARK                            x       y       z     vdW  Elec       q    Type
REMARK                         _______ _______ _______ _____ _____    ______ ____
ROOT
ATOM      1  C   UNL     1      44.787   4.733  11.827  0.00  0.00    +0.000 A 
ATOM      2  C   UNL     1      45.440   5.748  12.527  0.00  0.00    +0.000 A 
ATOM      3  C   UNL     1      46.377   5.407  13.506  0.00  0.00    +0.000 A 
ATOM      4  C   UNL     1      46.606   4.063  13.763  0.00  0.00    +0.000 A 
ATOM      5  N   UNL     1      45.988   3.061  13.104  0.00  0.00    +0.000 NA
ATOM      6  C   UNL     1      45.091   3.417  12.154  0.00  0.00    +0.000 A 
ENDROOT
BRANCH   1   8
ATOM      7  N   UNL     1      44.129   4.734   9.486  0.00  0.00    +0.000 N 
ATOM      8  C   UNL     1      43.773   4.978  10.782  0.00  0.00    +0.000 C 
ATOM      9  O   UNL     1      42.643   5.349  11.065  0.00  0.00    +0.000 OA
ATOM     10  H   UNL     1      43.387   4.801   8.799  0.00  0.00    +0.000 HD
ATOM     11  H   UNL     1      44.944   4.196   9.234  0.00  0.00    +0.000 HD
ENDBRANCH   1   8
BRANCH   4  12
ATOM     12  O   UNL     1      47.540   3.756  14.729  0.00  0.00    +0.000 OA
BRANCH  12  13
ATOM     13  C   UNL     1      47.505   4.684  15.831  0.00  0.00    +0.000 C 
BRANCH  13  14
ATOM     14  C   UNL     1      47.707   3.948  17.162  0.00  0.00    +0.000 C 
ATOM     15  F   UNL     1      47.292   4.765  18.178  0.00  0.00    +0.000 F 
ATOM     16  F   UNL     1      46.865   2.871  17.203  0.00  0.00    +0.000 F 
BRANCH  14  17
ATOM     17  C   UNL     1      49.157   3.530  17.337  0.00  0.00    +0.000 A 
ATOM     18  C   UNL     1      49.558   2.209  17.080  0.00  0.00    +0.000 A 
ATOM     19  C   UNL     1      50.893   1.829  17.240  0.00  0.00    +0.000 A 
ATOM     20  C   UNL     1      51.839   2.762  17.659  0.00  0.00    +0.000 A 
ATOM     21  C   UNL     1      51.454   4.074  17.924  0.00  0.00    +0.000 A 
ATOM     22  C   UNL     1      50.120   4.457  17.766  0.00  0.00    +0.000 A 
ENDBRANCH  14  17
ENDBRANCH  13  14
ENDBRANCH  12  13
ENDBRANCH   4  12
TORSDOF 5
ENDMDL
MODEL 8
REMARK VINA RESULT:    -6.248      4.636      6.391
REMARK INTER + INTRA:          -8.759
REMARK INTER:                  -8.318
REMARK INTRA:                  -0.442
REMARK UNBOUND:                -0.685
REMARK  Name = 
REMARK  5 active torsions:
REMARK  status: ('A' for Active; 'I' for Inactive)
REMARK    1  A    between atoms: C_2  and  C_4
REMARK    2  A    between atoms: C_7  and  O_8
REMARK    3  A    between atoms: O_8  and  C_9
REMARK    4  A    between atoms: C_9  and  C_10
REMARK    5  A    between atoms: C_10  and  C_13
REMARK                            x       y       z     vdW  Elec       q    Type
REMARK                         _______ _______ _______ _____ _____    ______ ____
ROOT
ATOM      1  C   UNL     1      44.810   4.793  11.864  0.00  0.00    +0.000 A 
ATOM      2  C   UNL     1      45.443   5.731  12.681  0.00  0.00    +0.000 A 
ATOM      3  C   UNL     1      46.341   5.290  13.656  0.00  0.00    +0.000 A 
ATOM      4  C   UNL     1      46.551   3.924  13.793  0.00  0.00    +0.000 A 
ATOM      5  N   UNL     1      45.950   2.996  13.021  0.00  0.00    +0.000 NA
ATOM      6  C   UNL     1      45.091   3.449  12.076  0.00  0.00    +0.000 A 
ENDROOT
BRANCH   1   8
ATOM      7  N   UNL     1      44.104   4.731   9.538  0.00  0.00    +0.000 N 
ATOM      8  C   UNL     1      43.837   5.147  10.811  0.00  0.00    +0.000 C 
ATOM      9  O   UNL     1      42.809   5.755  11.072  0.00  0.00    +0.000 OA
ATOM     10  H   UNL     1      43.372   4.887   8.855  0.00  0.00    +0.000 HD
ATOM     11  H   UNL     1      44.791   4.024   9.326  0.00  0.00    +0.000 HD
ENDBRANCH   1   8
BRANCH   4  12
ATOM     12  O   UNL     1      47.445   3.518  14.759  0.00  0.00    +0.000 OA
BRANCH  12  13
ATOM     13  C   UNL     1      47.382   4.342  15.939  0.00  0.00    +0.000 C 
BRANCH  13  14
ATOM     14  C   UNL     1      47.737   3.524  17.188  0.00  0.00    +0.000 C 
ATOM     15  F   UNL     1      46.708   2.661  17.449  0.00  0.00    +0.000 F 
ATOM     16  F   UNL     1      48.810   2.726  16.902  0.00  0.00    +0.000 F 
BRANCH  14  17
ATOM     17  C   UNL     1      48.017   4.435  18.371  0.00  0.00    +0.000 A 
ATOM     18  C   UNL     1      47.186   5.533  18.642  0.00  0.00    +0.000 A 
ATOM     19  C   UNL     1      47.446   6.368  19.733  0.00  0.00    +0.000 A 
ATOM     20  C   UNL     1      48.537   6.115  20.561  0.00  0.00    +0.000 A 
ATOM     21  C   UNL     1      49.374   5.032  20.300  0.00  0.00    +0.000 A 
ATOM     22  C   UNL     1      49.117   4.197  19.211  0.00  0.00    +0.000 A 
ENDBRANCH  14  17
ENDBRANCH  13  14
ENDBRANCH  12  13
ENDBRANCH   4  12
TORSDOF 5
ENDMDL
MODEL 9
REMARK VINA RESULT:    -6.165      5.031      7.703
REMARK INTER + INTRA:          -8.652
REMARK INTER:                  -8.127
REMARK INTRA:                  -0.525
REMARK UNBOUND:                -0.685
REMARK  Name = 
REMARK  5 active torsions:
REMARK  status: ('A' for Active; 'I' for Inactive)
REMARK    1  A    between atoms: C_2  and  C_4
REMARK    2  A    between atoms: C_7  and  O_8
REMARK    3  A    between atoms: O_8  and  C_9
REMARK    4  A    between atoms: C_9  and  C_10
REMARK    5  A    between atoms: C_10  and  C_13
REMARK                            x       y       z     vdW  Elec       q    Type
REMARK                         _______ _______ _______ _____ _____    ______ ____
ROOT
ATOM      1  C   UNL     1      48.271   4.750  17.935  0.00  0.00    +0.000 A 
ATOM      2  C   UNL     1      48.538   5.602  16.862  0.00  0.00    +0.000 A 
ATOM      3  C   UNL     1      47.974   5.323  15.614  0.00  0.00    +0.000 A 
ATOM      4  C   UNL     1      47.186   4.188  15.482  0.00  0.00    +0.000 A 
ATOM      5  N   UNL     1      46.915   3.346  16.501  0.00  0.00    +0.000 NA
ATOM      6  C   UNL     1      47.465   3.643  17.703  0.00  0.00    +0.000 A 
ENDROOT
BRANCH   1   8
ATOM      7  N   UNL     1      48.611   3.950  20.205  0.00  0.00    +0.000 N 
ATOM      8  C   UNL     1      48.822   4.943  19.291  0.00  0.00    +0.000 C 
ATOM      9  O   UNL     1      49.477   5.934  19.578  0.00  0.00    +0.000 OA
ATOM     10  H   UNL     1      49.091   4.052  21.092  0.00  0.00    +0.000 HD
ATOM     11  H   UNL     1      48.307   3.023  19.948  0.00  0.00    +0.000 HD
ENDBRANCH   1   8
BRANCH   4  12
ATOM     12  O   UNL     1      46.638   3.942  14.242  0.00  0.00    +0.000 OA
BRANCH  12  13
ATOM     13  C   UNL     1      46.456   5.150  13.480  0.00  0.00    +0.000 C 
BRANCH  13  14
ATOM     14  C   UNL     1      45.069   5.170  12.822  0.00  0.00    +0.000 C 
ATOM     15  F   UNL     1      44.218   4.411  13.580  0.00  0.00    +0.000 F 
ATOM     16  F   UNL     1      44.569   6.441  12.887  0.00  0.00    +0.000 F 
BRANCH  14  17
ATOM     17  C   UNL     1      45.141   4.669  11.390  0.00  0.00    +0.000 A 
ATOM     18  C   UNL     1      45.635   5.494  10.367  0.00  0.00    +0.000 A 
ATOM     19  C   UNL     1      45.701   5.029   9.051  0.00  0.00    +0.000 A 
ATOM     20  C   UNL     1      45.274   3.739   8.743  0.00  0.00    +0.000 A 
ATOM     21  C   UNL     1      44.775   2.912   9.748  0.00  0.00    +0.000 A 
ATOM     22  C   UNL     1      44.708   3.374  11.064  0.00  0.00    +0.000 A 
ENDBRANCH  14  17
ENDBRANCH  13  14
ENDBRANCH  12  13
ENDBRANCH   4  12
TORSDOF 5
ENDMDL
