MODEL 1
REMARK VINA RESULT:    -8.829      0.000      0.000
REMARK INTER + INTRA:         -13.495
REMARK INTER:                 -12.442
REMARK INTRA:                  -1.054
REMARK UNBOUND:                -1.054
REMARK  Name = 
REMARK  7 active torsions:
REMARK  status: ('A' for Active; 'I' for Inactive)
REMARK    1  A    between atoms: C_2  and  C_4
REMARK    2  A    between atoms: C_7  and  O_8
REMARK    3  A    between atoms: O_8  and  C_9
REMARK    4  A    between atoms: C_9  and  C_10
REMARK    5  A    between atoms: C_10  and  C_13
REMARK    6  A    between atoms: C_17  and  O_18
REMARK    7  A    between atoms: O_18  and  C_19
REMARK                            x       y       z     vdW  Elec       q    Type
REMARK                         _______ _______ _______ _____ _____    ______ ____
ROOT
ATOM      1  C   UNL     1      43.799   4.498  12.512  0.00  0.00    +0.000 C 
ATOM      2  F   UNL     1      42.897   5.212  13.245  0.00  0.00    +0.000 F 
ATOM      3  F   UNL     1      43.728   3.218  12.978  0.00  0.00    +0.000 F 
ENDROOT
BRANCH   1   4
ATOM      4  C   UNL     1      45.207   5.058  12.615  0.00  0.00    +0.000 A 
ATOM      5  C   UNL     1      45.679   5.951  11.646  0.00  0.00    +0.000 A 
ATOM      6  C   UNL     1      46.916   6.576  11.810  0.00  0.00    +0.000 A 
ATOM      7  C   UNL     1      47.711   6.302  12.942  0.00  0.00    +0.000 A 
ATOM      8  C   UNL     1      47.271   5.385  13.893  0.00  0.00    +0.000 A 
ATOM      9  C   UNL     1      46.023   4.768  13.724  0.00  0.00    +0.000 A 
BRANCH   8  10
ATOM     10  O   UNL     1      47.907   5.014  15.063  0.00  0.00    +0.000 OA
BRANCH  10  11
ATOM     11  C   UNL     1      47.287   4.093  15.991  0.00  0.00    +0.000 C 
ATOM     12  C   UNL     1      47.204   4.403  17.484  0.00  0.00    +0.000 C 
ATOM     13  O   UNL     1      47.744   3.103  17.837  0.00  0.00    +0.000 OA
ATOM     14  C   UNL     1      48.126   2.873  16.456  0.00  0.00    +0.000 C 
ENDBRANCH  10  11
ENDBRANCH   8  10
ENDBRANCH   1   4
BRANCH   1  15
ATOM     15  C   UNL     1      43.370   4.516  11.032  0.00  0.00    +0.000 C 
BRANCH  15  16
ATOM     16  O   UNL     1      43.517   3.227  10.420  0.00  0.00    +0.000 OA
BRANCH  16  20
ATOM     17  C   UNL     1      46.399   2.634   7.550  0.00  0.00    +0.000 A 
ATOM     18  C   UNL     1      45.910   3.927   7.678  0.00  0.00    +0.000 A 
ATOM     19  C   UNL     1      44.929   4.179   8.638  0.00  0.00    +0.000 A 
ATOM     20  C   UNL     1      44.460   3.135   9.436  0.00  0.00    +0.000 A 
ATOM     21  C   UNL     1      44.998   1.870   9.213  0.00  0.00    +0.000 A 
ATOM     22  N   UNL     1      45.952   1.585   8.292  0.00  0.00    +0.000 NA
BRANCH  17  24
ATOM     23  N   UNL     1      47.491   3.032   5.402  0.00  0.00    +0.000 N 
ATOM     24  C   UNL     1      47.484   2.329   6.570  0.00  0.00    +0.000 C 
ATOM     25  O   UNL     1      48.363   1.490   6.804  0.00  0.00    +0.000 OA
ATOM     26  H   UNL     1      48.292   2.913   4.807  0.00  0.00    +0.000 HD
ATOM     27  H   UNL     1      46.948   3.888   5.327  0.00  0.00    +0.000 HD
ENDBRANCH  17  24
ENDBRANCH  16  20
ENDBRANCH  15  16
ENDBRANCH   1  15
TORSDOF 7
ENDMDL
MODEL 2
REMARK VINA RESULT:    -8.037      1.416      1.631
REMARK INTER + INTRA:         -12.380
REMARK INTER:                 -11.369
REMARK INTRA:                  -1.011
REMARK UNBOUND:                -1.054
REMARK  Name = 
REMARK  7 active torsions:
REMARK  status: ('A' for Active; 'I' for Inactive)
REMARK    1  A    between atoms: C_2  and  C_4
REMARK    2  A    between atoms: C_7  and  O_8
REMARK    3  A    between atoms: O_8  and  C_9
REMARK    4  A    between atoms: C_9  and  C_10
REMARK    5  A    between atoms: C_10  and  C_13
REMARK    6  A    between atoms: C_17  and  O_18
REMARK    7  A    between atoms: O_18  and  C_19
REMARK                            x       y       z     vdW  Elec       q    Type
REMARK                         _______ _______ _______ _____ _____    ______ ____
ROOT
ATOM      1  C   UNL     1      43.379   4.589  12.494  0.00  0.00    +0.000 C 
ATOM      2  F   UNL     1      42.326   5.311  12.015  0.00  0.00    +0.000 F 
ATOM      3  F   UNL     1      43.031   4.217  13.759  0.00  0.00    +0.000 F 
ENDROOT
BRANCH   1   4
ATOM      4  C   UNL     1      44.680   5.373  12.475  0.00  0.00    +0.000 A 
ATOM      5  C   UNL     1      44.811   6.494  11.649  0.00  0.00    +0.000 A 
ATOM      6  C   UNL     1      45.948   7.299  11.731  0.00  0.00    +0.000 A 
ATOM      7  C   UNL     1      46.984   6.983  12.633  0.00  0.00    +0.000 A 
ATOM      8  C   UNL     1      46.884   5.846  13.433  0.00  0.00    +0.000 A 
ATOM      9  C   UNL     1      45.734   5.049  13.349  0.00  0.00    +0.000 A 
BRANCH   8  10
ATOM     10  O   UNL     1      47.789   5.400  14.377  0.00  0.00    +0.000 OA
BRANCH  10  11
ATOM     11  C   UNL     1      48.334   6.299  15.372  0.00  0.00    +0.000 C 
ATOM     12  C   UNL     1      49.699   6.959  15.185  0.00  0.00    +0.000 C 
ATOM     13  O   UNL     1      50.134   6.555  16.509  0.00  0.00    +0.000 OA
ATOM     14  C   UNL     1      48.995   5.665  16.625  0.00  0.00    +0.000 C 
ENDBRANCH  10  11
ENDBRANCH   8  10
ENDBRANCH   1   4
BRANCH   1  15
ATOM     15  C   UNL     1      43.555   3.324  11.632  0.00  0.00    +0.000 C 
BRANCH  15  16
ATOM     16  O   UNL     1      43.315   3.589  10.242  0.00  0.00    +0.000 OA
BRANCH  16  20
ATOM     17  C   UNL     1      46.454   2.541   7.804  0.00  0.00    +0.000 A 
ATOM     18  C   UNL     1      46.110   3.886   7.827  0.00  0.00    +0.000 A 
ATOM     19  C   UNL     1      45.051   4.292   8.639  0.00  0.00    +0.000 A 
ATOM     20  C   UNL     1      44.361   3.345   9.397  0.00  0.00    +0.000 A 
ATOM     21  C   UNL     1      44.768   2.019   9.286  0.00  0.00    +0.000 A 
ATOM     22  N   UNL     1      45.793   1.585   8.510  0.00  0.00    +0.000 NA
BRANCH  17  24
ATOM     23  N   UNL     1      48.283   3.004   6.252  0.00  0.00    +0.000 N 
ATOM     24  C   UNL     1      47.613   2.071   6.988  0.00  0.00    +0.000 C 
ATOM     25  O   UNL     1      47.976   0.888   6.984  0.00  0.00    +0.000 OA
ATOM     26  H   UNL     1      49.134   2.704   5.809  0.00  0.00    +0.000 HD
ATOM     27  H   UNL     1      48.160   3.991   6.461  0.00  0.00    +0.000 HD
ENDBRANCH  17  24
ENDBRANCH  16  20
ENDBRANCH  15  16
ENDBRANCH   1  15
TORSDOF 7
ENDMDL
MODEL 3
REMARK VINA RESULT:    -7.533      2.132      3.632
REMARK INTER + INTRA:         -11.669
REMARK INTER:                 -10.795
REMARK INTRA:                  -0.874
REMARK UNBOUND:                -1.054
REMARK  Name = 
REMARK  7 active torsions:
REMARK  status: ('A' for Active; 'I' for Inactive)
REMARK    1  A    between atoms: C_2  and  C_4
REMARK    2  A    between atoms: C_7  and  O_8
REMARK    3  A    between atoms: O_8  and  C_9
REMARK    4  A    between atoms: C_9  and  C_10
REMARK    5  A    between atoms: C_10  and  C_13
REMARK    6  A    between atoms: C_17  and  O_18
REMARK    7  A    between atoms: O_18  and  C_19
REMARK                            x       y       z     vdW  Elec       q    Type
REMARK                         _______ _______ _______ _____ _____    ______ ____
ROOT
ATOM      1  C   UNL     1      43.978   4.620  12.444  0.00  0.00    +0.000 C 
ATOM      2  F   UNL     1      42.916   5.073  13.169  0.00  0.00    +0.000 F 
ATOM      3  F   UNL     1      43.962   3.261  12.570  0.00  0.00    +0.000 F 
ENDROOT
BRANCH   1   4
ATOM      4  C   UNL     1      45.297   5.212  12.910  0.00  0.00    +0.000 A 
ATOM      5  C   UNL     1      46.003   4.613  13.959  0.00  0.00    +0.000 A 
ATOM      6  C   UNL     1      47.278   5.065  14.297  0.00  0.00    +0.000 A 
ATOM      7  C   UNL     1      47.864   6.141  13.598  0.00  0.00    +0.000 A 
ATOM      8  C   UNL     1      47.156   6.772  12.578  0.00  0.00    +0.000 A 
ATOM      9  C   UNL     1      45.878   6.304  12.240  0.00  0.00    +0.000 A 
BRANCH   8  10
ATOM     10  O   UNL     1      47.580   7.819  11.783  0.00  0.00    +0.000 OA
BRANCH  10  11
ATOM     11  C   UNL     1      48.297   8.943  12.347  0.00  0.00    +0.000 C 
ATOM     12  C   UNL     1      48.282  10.315  11.676  0.00  0.00    +0.000 C 
ATOM     13  O   UNL     1      49.728  10.420  11.739  0.00  0.00    +0.000 OA
ATOM     14  C   UNL     1      49.827   9.017  12.093  0.00  0.00    +0.000 C 
ENDBRANCH  10  11
ENDBRANCH   8  10
ENDBRANCH   1   4
BRANCH   1  15
ATOM     15  C   UNL     1      43.770   4.987  10.963  0.00  0.00    +0.000 C 
BRANCH  15  16
ATOM     16  O   UNL     1      43.421   3.841  10.174  0.00  0.00    +0.000 OA
BRANCH  16  20
ATOM     17  C   UNL     1      46.362   2.684   7.546  0.00  0.00    +0.000 A 
ATOM     18  C   UNL     1      45.892   1.710   8.417  0.00  0.00    +0.000 A 
ATOM     19  C   UNL     1      44.894   2.054   9.329  0.00  0.00    +0.000 A 
ATOM     20  C   UNL     1      44.399   3.359   9.351  0.00  0.00    +0.000 A 
ATOM     21  C   UNL     1      44.953   4.267   8.453  0.00  0.00    +0.000 A 
ATOM     22  N   UNL     1      45.923   3.971   7.551  0.00  0.00    +0.000 NA
BRANCH  17  24
ATOM     23  N   UNL     1      47.362   3.038   5.346  0.00  0.00    +0.000 N 
ATOM     24  C   UNL     1      47.394   2.346   6.521  0.00  0.00    +0.000 C 
ATOM     25  O   UNL     1      48.264   1.490   6.722  0.00  0.00    +0.000 OA
ATOM     26  H   UNL     1      48.132   2.896   4.716  0.00  0.00    +0.000 HD
ATOM     27  H   UNL     1      46.835   3.905   5.287  0.00  0.00    +0.000 HD
ENDBRANCH  17  24
ENDBRANCH  16  20
ENDBRANCH  15  16
ENDBRANCH   1  15
TORSDOF 7
ENDMDL
MODEL 4
REMARK VINA RESULT:    -7.461      1.855      2.145
REMARK INTER + INTRA:         -11.569
REMARK INTER:                 -10.818
REMARK INTRA:                  -0.751
REMARK UNBOUND:                -1.054
REMARK  Name = 
REMARK  7 active torsions:
REMARK  status: ('A' for Active; 'I' for Inactive)
REMARK    1  A    between atoms: C_2  and  C_4
REMARK    2  A    between atoms: C_7  and  O_8
REMARK    3  A    between atoms: O_8  and  C_9
REMARK    4  A    between atoms: C_9  and  C_10
REMARK    5  A    between atoms: C_10  and  C_13
REMARK    6  A    between atoms: C_17  and  O_18
REMARK    7  A    between atoms: O_18  and  C_19
REMARK                            x       y       z     vdW  Elec       q    Type
REMARK                         _______ _______ _______ _____ _____    ______ ____
ROOT
ATOM      1  C   UNL     1      44.935   4.221  12.530  0.00  0.00    +0.000 C 
ATOM      2  F   UNL     1      44.036   4.195  13.555  0.00  0.00    +0.000 F 
ATOM      3  F   UNL     1      45.335   2.929  12.353  0.00  0.00    +0.000 F 
ENDROOT
BRANCH   1   4
ATOM      4  C   UNL     1      46.111   5.141  12.808  0.00  0.00    +0.000 A 
ATOM      5  C   UNL     1      46.383   6.211  11.947  0.00  0.00    +0.000 A 
ATOM      6  C   UNL     1      47.370   7.140  12.272  0.00  0.00    +0.000 A 
ATOM      7  C   UNL     1      48.118   7.004  13.460  0.00  0.00    +0.000 A 
ATOM      8  C   UNL     1      47.885   5.922  14.305  0.00  0.00    +0.000 A 
ATOM      9  C   UNL     1      46.884   4.998  13.974  0.00  0.00    +0.000 A 
BRANCH   8  10
ATOM     10  O   UNL     1      48.505   5.646  15.509  0.00  0.00    +0.000 OA
BRANCH  10  11
ATOM     11  C   UNL     1      49.055   6.706  16.326  0.00  0.00    +0.000 C 
ATOM     12  C   UNL     1      50.563   6.931  16.428  0.00  0.00    +0.000 C 
ATOM     13  O   UNL     1      50.513   6.963  17.878  0.00  0.00    +0.000 OA
ATOM     14  C   UNL     1      49.154   6.454  17.854  0.00  0.00    +0.000 C 
ENDBRANCH  10  11
ENDBRANCH   8  10
ENDBRANCH   1   4
BRANCH   1  15
ATOM     15  C   UNL     1      44.224   4.704  11.251  0.00  0.00    +0.000 C 
BRANCH  15  16
ATOM     16  O   UNL     1      43.846   3.608  10.406  0.00  0.00    +0.000 OA
BRANCH  16  20
ATOM     17  C   UNL     1      46.478   2.947   7.318  0.00  0.00    +0.000 A 
ATOM     18  C   UNL     1      46.119   1.839   8.074  0.00  0.00    +0.000 A 
ATOM     19  C   UNL     1      45.229   2.012   9.134  0.00  0.00    +0.000 A 
ATOM     20  C   UNL     1      44.729   3.284   9.414  0.00  0.00    +0.000 A 
ATOM     21  C   UNL     1      45.168   4.334   8.613  0.00  0.00    +0.000 A 
ATOM     22  N   UNL     1      46.031   4.206   7.573  0.00  0.00    +0.000 NA
BRANCH  17  24
ATOM     23  N   UNL     1      48.700   2.522   6.398  0.00  0.00    +0.000 N 
ATOM     24  C   UNL     1      47.389   2.799   6.145  0.00  0.00    +0.000 C 
ATOM     25  O   UNL     1      46.982   2.900   4.981  0.00  0.00    +0.000 OA
ATOM     26  H   UNL     1      49.276   2.299   5.605  0.00  0.00    +0.000 HD
ATOM     27  H   UNL     1      48.973   2.177   7.315  0.00  0.00    +0.000 HD
ENDBRANCH  17  24
ENDBRANCH  16  20
ENDBRANCH  15  16
ENDBRANCH   1  15
TORSDOF 7
ENDMDL
MODEL 5
REMARK VINA RESULT:    -7.222      3.104      7.855
REMARK INTER + INTRA:         -11.232
REMARK INTER:                 -10.510
REMARK INTRA:                  -0.722
REMARK UNBOUND:                -1.054
REMARK  Name = 
REMARK  7 active torsions:
REMARK  status: ('A' for Active; 'I' for Inactive)
REMARK    1  A    between atoms: C_2  and  C_4
REMARK    2  A    between atoms: C_7  and  O_8
REMARK    3  A    between atoms: O_8  and  C_9
REMARK    4  A    between atoms: C_9  and  C_10
REMARK    5  A    between atoms: C_10  and  C_13
REMARK    6  A    between atoms: C_17  and  O_18
REMARK    7  A    between atoms: O_18  and  C_19
REMARK                            x       y       z     vdW  Elec       q    Type
REMARK                         _______ _______ _______ _____ _____    ______ ____
ROOT
ATOM      1  C   UNL     1      45.524   6.361  11.124  0.00  0.00    +0.000 C 
ATOM      2  F   UNL     1      44.513   7.256  10.935  0.00  0.00    +0.000 F 
ATOM      3  F   UNL     1      46.641   6.946  10.604  0.00  0.00    +0.000 F 
ENDROOT
BRANCH   1   4
ATOM      4  C   UNL     1      45.241   5.015  10.479  0.00  0.00    +0.000 A 
ATOM      5  C   UNL     1      44.511   4.044  11.174  0.00  0.00    +0.000 A 
ATOM      6  C   UNL     1      44.127   2.864  10.537  0.00  0.00    +0.000 A 
ATOM      7  C   UNL     1      44.483   2.628   9.193  0.00  0.00    +0.000 A 
ATOM      8  C   UNL     1      45.243   3.569   8.502  0.00  0.00    +0.000 A 
ATOM      9  C   UNL     1      45.617   4.756   9.149  0.00  0.00    +0.000 A 
BRANCH   8  10
ATOM     10  O   UNL     1      45.661   3.511   7.186  0.00  0.00    +0.000 OA
BRANCH  10  11
ATOM     11  C   UNL     1      47.018   3.136   6.849  0.00  0.00    +0.000 C 
ATOM     12  C   UNL     1      47.395   2.700   5.435  0.00  0.00    +0.000 C 
ATOM     13  O   UNL     1      48.066   1.510   5.924  0.00  0.00    +0.000 OA
ATOM     14  C   UNL     1      47.484   1.707   7.238  0.00  0.00    +0.000 C 
ENDBRANCH  10  11
ENDBRANCH   8  10
ENDBRANCH   1   4
BRANCH   1  15
ATOM     15  C   UNL     1      45.729   6.147  12.636  0.00  0.00    +0.000 C 
BRANCH  15  16
ATOM     16  O   UNL     1      47.120   6.143  12.989  0.00  0.00    +0.000 OA
BRANCH  16  20
ATOM     17  C   UNL     1      47.851   4.201  16.538  0.00  0.00    +0.000 A 
ATOM     18  C   UNL     1      48.427   5.456  16.388  0.00  0.00    +0.000 A 
ATOM     19  C   UNL     1      48.209   6.155  15.201  0.00  0.00    +0.000 A 
ATOM     20  C   UNL     1      47.430   5.581  14.195  0.00  0.00    +0.000 A 
ATOM     21  C   UNL     1      46.917   4.309  14.433  0.00  0.00    +0.000 A 
ATOM     22  N   UNL     1      47.105   3.598  15.573  0.00  0.00    +0.000 NA
BRANCH  17  24
ATOM     23  N   UNL     1      47.041   2.546  18.141  0.00  0.00    +0.000 N 
ATOM     24  C   UNL     1      48.017   3.440  17.811  0.00  0.00    +0.000 C 
ATOM     25  O   UNL     1      49.006   3.587  18.540  0.00  0.00    +0.000 OA
ATOM     26  H   UNL     1      47.222   1.949  18.929  0.00  0.00    +0.000 HD
ATOM     27  H   UNL     1      46.385   2.233  17.430  0.00  0.00    +0.000 HD
ENDBRANCH  17  24
ENDBRANCH  16  20
ENDBRANCH  15  16
ENDBRANCH   1  15
TORSDOF 7
ENDMDL
MODEL 6
REMARK VINA RESULT:    -7.162      2.599      4.233
REMARK INTER + INTRA:         -11.147
REMARK INTER:                 -10.635
REMARK INTRA:                  -0.513
REMARK UNBOUND:                -1.054
REMARK  Name = 
REMARK  7 active torsions:
REMARK  status: ('A' for Active; 'I' for Inactive)
REMARK    1  A    between atoms: C_2  and  C_4
REMARK    2  A    between atoms: C_7  and  O_8
REMARK    3  A    between atoms: O_8  and  C_9
REMARK    4  A    between atoms: C_9  and  C_10
REMARK    5  A    between atoms: C_10  and  C_13
REMARK    6  A    between atoms: C_17  and  O_18
REMARK    7  A    between atoms: O_18  and  C_19
REMARK                            x       y       z     vdW  Elec       q    Type
REMARK                         _______ _______ _______ _____ _____    ______ ____
ROOT
ATOM      1  C   UNL     1      44.830   4.591  12.599  0.00  0.00    +0.000 C 
ATOM      2  F   UNL     1      43.806   4.516  13.496  0.00  0.00    +0.000 F 
ATOM      3  F   UNL     1      45.388   3.346  12.567  0.00  0.00    +0.000 F 
ENDROOT
BRANCH   1   4
ATOM      4  C   UNL     1      45.850   5.655  12.966  0.00  0.00    +0.000 A 
ATOM      5  C   UNL     1      47.025   5.298  13.637  0.00  0.00    +0.000 A 
ATOM      6  C   UNL     1      48.027   6.245  13.850  0.00  0.00    +0.000 A 
ATOM      7  C   UNL     1      47.861   7.573  13.410  0.00  0.00    +0.000 A 
ATOM      8  C   UNL     1      46.680   7.952  12.776  0.00  0.00    +0.000 A 
ATOM      9  C   UNL     1      45.682   6.991  12.558  0.00  0.00    +0.000 A 
BRANCH   8  10
ATOM     10  O   UNL     1      46.359   9.195  12.266  0.00  0.00    +0.000 OA
BRANCH  10  11
ATOM     11  C   UNL     1      44.982   9.633  12.176  0.00  0.00    +0.000 C 
ATOM     12  C   UNL     1      44.105   9.261  10.983  0.00  0.00    +0.000 C 
ATOM     13  O   UNL     1      43.691  10.639  10.791  0.00  0.00    +0.000 OA
ATOM     14  C   UNL     1      44.724  11.089  11.705  0.00  0.00    +0.000 C 
ENDBRANCH  10  11
ENDBRANCH   8  10
ENDBRANCH   1   4
BRANCH   1  15
ATOM     15  C   UNL     1      44.258   4.918  11.207  0.00  0.00    +0.000 C 
BRANCH  15  16
ATOM     16  O   UNL     1      43.902   3.730  10.485  0.00  0.00    +0.000 OA
BRANCH  16  20
ATOM     17  C   UNL     1      46.463   2.935   7.368  0.00  0.00    +0.000 A 
ATOM     18  C   UNL     1      46.040   1.844   8.117  0.00  0.00    +0.000 A 
ATOM     19  C   UNL     1      45.171   2.062   9.186  0.00  0.00    +0.000 A 
ATOM     20  C   UNL     1      44.755   3.361   9.482  0.00  0.00    +0.000 A 
ATOM     21  C   UNL     1      45.253   4.388   8.687  0.00  0.00    +0.000 A 
ATOM     22  N   UNL     1      46.098   4.217   7.639  0.00  0.00    +0.000 NA
BRANCH  17  24
ATOM     23  N   UNL     1      48.648   2.387   6.425  0.00  0.00    +0.000 N 
ATOM     24  C   UNL     1      47.353   2.741   6.186  0.00  0.00    +0.000 C 
ATOM     25  O   UNL     1      46.942   2.872   5.026  0.00  0.00    +0.000 OA
ATOM     26  H   UNL     1      49.203   2.136   5.626  0.00  0.00    +0.000 HD
ATOM     27  H   UNL     1      48.909   2.022   7.338  0.00  0.00    +0.000 HD
ENDBRANCH  17  24
ENDBRANCH  16  20
ENDBRANCH  15  16
ENDBRANCH   1  15
TORSDOF 7
ENDMDL
MODEL 7
REMARK VINA RESULT:    -6.683      2.592      3.043
REMARK INTER + INTRA:         -10.472
REMARK INTER:                  -9.693
REMARK INTRA:                  -0.780
REMARK UNBOUND:                -1.054
REMARK  Name = 
REMARK  7 active torsions:
REMARK  status: ('A' for Active; 'I' for Inactive)
REMARK    1  A    between atoms: C_2  and  C_4
REMARK    2  A    between atoms: C_7  and  O_8
REMARK    3  A    between atoms: O_8  and  C_9
REMARK    4  A    between atoms: C_9  and  C_10
REMARK    5  A    between atoms: C_10  and  C_13
REMARK    6  A    between atoms: C_17  and  O_18
REMARK    7  A    between atoms: O_18  and  C_19
REMARK                            x       y       z     vdW  Elec       q    Type
REMARK                         _______ _______ _______ _____ _____    ______ ____
ROOT
ATOM      1  C   UNL     1      43.931   6.122  11.941  0.00  0.00    +0.000 C 
ATOM      2  F   UNL     1      42.881   6.208  11.075  0.00  0.00    +0.000 F 
ATOM      3  F   UNL     1      43.389   5.804  13.152  0.00  0.00    +0.000 F 
ENDROOT
BRANCH   1   4
ATOM      4  C   UNL     1      44.739   7.407  12.007  0.00  0.00    +0.000 A 
ATOM      5  C   UNL     1      44.352   8.518  11.249  0.00  0.00    +0.000 A 
ATOM      6  C   UNL     1      45.003   9.740  11.412  0.00  0.00    +0.000 A 
ATOM      7  C   UNL     1      46.069   9.866  12.326  0.00  0.00    +0.000 A 
ATOM      8  C   UNL     1      46.491   8.758  13.056  0.00  0.00    +0.000 A 
ATOM      9  C   UNL     1      45.824   7.536  12.892  0.00  0.00    +0.000 A 
BRANCH   8  10
ATOM     10  O   UNL     1      47.498   8.707  14.002  0.00  0.00    +0.000 OA
BRANCH  10  11
ATOM     11  C   UNL     1      48.578   7.749  13.892  0.00  0.00    +0.000 C 
ATOM     12  C   UNL     1      49.627   7.603  14.992  0.00  0.00    +0.000 C 
ATOM     13  O   UNL     1      50.716   7.698  14.038  0.00  0.00    +0.000 OA
ATOM     14  C   UNL     1      49.794   8.140  13.010  0.00  0.00    +0.000 C 
ENDBRANCH  10  11
ENDBRANCH   8  10
ENDBRANCH   1   4
BRANCH   1  15
ATOM     15  C   UNL     1      44.860   4.979  11.494  0.00  0.00    +0.000 C 
BRANCH  15  16
ATOM     16  O   UNL     1      44.248   4.156  10.490  0.00  0.00    +0.000 OA
BRANCH  16  20
ATOM     17  C   UNL     1      46.621   2.750   7.443  0.00  0.00    +0.000 A 
ATOM     18  C   UNL     1      46.494   4.129   7.543  0.00  0.00    +0.000 A 
ATOM     19  C   UNL     1      45.698   4.656   8.560  0.00  0.00    +0.000 A 
ATOM     20  C   UNL     1      45.047   3.793   9.443  0.00  0.00    +0.000 A 
ATOM     21  C   UNL     1      45.220   2.426   9.245  0.00  0.00    +0.000 A 
ATOM     22  N   UNL     1      45.986   1.876   8.269  0.00  0.00    +0.000 NA
BRANCH  17  24
ATOM     23  N   UNL     1      47.805   2.911   5.313  0.00  0.00    +0.000 N 
ATOM     24  C   UNL     1      47.503   2.146   6.400  0.00  0.00    +0.000 C 
ATOM     25  O   UNL     1      47.965   1.003   6.513  0.00  0.00    +0.000 OA
ATOM     26  H   UNL     1      48.498   2.547   4.682  0.00  0.00    +0.000 HD
ATOM     27  H   UNL     1      47.655   3.916   5.348  0.00  0.00    +0.000 HD
ENDBRANCH  17  24
ENDBRANCH  16  20
ENDBRANCH  15  16
ENDBRANCH   1  15
TORSDOF 7
ENDMDL
MODEL 8
REMARK VINA RESULT:    -6.304      3.256      4.741
REMARK INTER + INTRA:          -9.937
REMARK INTER:                  -8.878
REMARK INTRA:                  -1.059
REMARK UNBOUND:                -1.054
REMARK  Name = 
REMARK  7 active torsions:
REMARK  status: ('A' for Active; 'I' for Inactive)
REMARK    1  A    between atoms: C_2  and  C_4
REMARK    2  A    between atoms: C_7  and  O_8
REMARK    3  A    between atoms: O_8  and  C_9
REMARK    4  A    between atoms: C_9  and  C_10
REMARK    5  A    between atoms: C_10  and  C_13
REMARK    6  A    between atoms: C_17  and  O_18
REMARK    7  A    between atoms: O_18  and  C_19
REMARK                            x       y       z     vdW  Elec       q    Type
REMARK                         _______ _______ _______ _____ _____    ______ ____
ROOT
ATOM      1  C   UNL     1      47.998   8.209  12.214  0.00  0.00    +0.000 C 
ATOM      2  F   UNL     1      48.318   7.082  11.516  0.00  0.00    +0.000 F 
ATOM      3  F   UNL     1      48.658   9.230  11.596  0.00  0.00    +0.000 F 
ENDROOT
BRANCH   1   4
ATOM      4  C   UNL     1      48.367   8.109  13.684  0.00  0.00    +0.000 A 
ATOM      5  C   UNL     1      48.235   9.225  14.518  0.00  0.00    +0.000 A 
ATOM      6  C   UNL     1      48.437   9.103  15.893  0.00  0.00    +0.000 A 
ATOM      7  C   UNL     1      48.793   7.861  16.456  0.00  0.00    +0.000 A 
ATOM      8  C   UNL     1      48.967   6.750  15.632  0.00  0.00    +0.000 A 
ATOM      9  C   UNL     1      48.753   6.881  14.253  0.00  0.00    +0.000 A 
BRANCH   8  10
ATOM     10  O   UNL     1      49.293   5.463  16.013  0.00  0.00    +0.000 OA
BRANCH  10  11
ATOM     11  C   UNL     1      48.478   4.737  16.965  0.00  0.00    +0.000 C 
ATOM     12  C   UNL     1      48.743   3.266  17.279  0.00  0.00    +0.000 C 
ATOM     13  O   UNL     1      47.350   2.917  17.072  0.00  0.00    +0.000 OA
ATOM     14  C   UNL     1      47.100   4.216  16.476  0.00  0.00    +0.000 C 
ENDBRANCH  10  11
ENDBRANCH   8  10
ENDBRANCH   1   4
BRANCH   1  15
ATOM     15  C   UNL     1      46.482   8.455  12.104  0.00  0.00    +0.000 C 
BRANCH  15  16
ATOM     16  O   UNL     1      45.744   7.671  13.053  0.00  0.00    +0.000 OA
BRANCH  16  20
ATOM     17  C   UNL     1      44.462   4.065  11.551  0.00  0.00    +0.000 A 
ATOM     18  C   UNL     1      45.152   4.024  12.756  0.00  0.00    +0.000 A 
ATOM     19  C   UNL     1      45.609   5.222  13.306  0.00  0.00    +0.000 A 
ATOM     20  C   UNL     1      45.371   6.424  12.637  0.00  0.00    +0.000 A 
ATOM     21  C   UNL     1      44.691   6.356  11.425  0.00  0.00    +0.000 A 
ATOM     22  N   UNL     1      44.230   5.212  10.858  0.00  0.00    +0.000 NA
BRANCH  17  24
ATOM     23  N   UNL     1      44.540   2.317   9.848  0.00  0.00    +0.000 N 
ATOM     24  C   UNL     1      43.912   2.813  10.952  0.00  0.00    +0.000 C 
ATOM     25  O   UNL     1      42.939   2.224  11.439  0.00  0.00    +0.000 OA
ATOM     26  H   UNL     1      44.244   1.411   9.528  0.00  0.00    +0.000 HD
ATOM     27  H   UNL     1      45.477   2.637   9.616  0.00  0.00    +0.000 HD
ENDBRANCH  17  24
ENDBRANCH  16  20
ENDBRANCH  15  16
ENDBRANCH   1  15
TORSDOF 7
ENDMDL
MODEL 9
REMARK VINA RESULT:    -6.217      4.485      6.179
REMARK INTER + INTRA:          -9.815
REMARK INTER:                  -8.992
REMARK INTRA:                  -0.823
REMARK UNBOUND:                -1.054
REMARK  Name = 
REMARK  7 active torsions:
REMARK  status: ('A' for Active; 'I' for Inactive)
REMARK    1  A    between atoms: C_2  and  C_4
REMARK    2  A    between atoms: C_7  and  O_8
REMARK    3  A    between atoms: O_8  and  C_9
REMARK    4  A    between atoms: C_9  and  C_10
REMARK    5  A    between atoms: C_10  and  C_13
REMARK    6  A    between atoms: C_17  and  O_18
REMARK    7  A    between atoms: O_18  and  C_19
REMARK                            x       y       z     vdW  Elec       q    Type
REMARK                         _______ _______ _______ _____ _____    ______ ____
ROOT
ATOM      1  C   UNL     1      49.355   8.002  14.890  0.00  0.00    +0.000 C 
ATOM      2  F   UNL     1      49.896   9.253  14.916  0.00  0.00    +0.000 F 
ATOM      3  F   UNL     1      48.076   8.140  15.342  0.00  0.00    +0.000 F 
ENDROOT
BRANCH   1   4
ATOM      4  C   UNL     1      50.144   7.007  15.725  0.00  0.00    +0.000 A 
ATOM      5  C   UNL     1      51.541   7.078  15.764  0.00  0.00    +0.000 A 
ATOM      6  C   UNL     1      52.261   6.262  16.636  0.00  0.00    +0.000 A 
ATOM      7  C   UNL     1      51.593   5.345  17.474  0.00  0.00    +0.000 A 
ATOM      8  C   UNL     1      50.205   5.237  17.415  0.00  0.00    +0.000 A 
ATOM      9  C   UNL     1      49.490   6.068  16.542  0.00  0.00    +0.000 A 
BRANCH   8  10
ATOM     10  O   UNL     1      49.393   4.413  18.172  0.00  0.00    +0.000 OA
BRANCH  10  11
ATOM     11  C   UNL     1      49.226   3.015  17.835  0.00  0.00    +0.000 C 
ATOM     12  C   UNL     1      50.326   2.231  17.123  0.00  0.00    +0.000 C 
ATOM     13  O   UNL     1      49.397   1.730  16.128  0.00  0.00    +0.000 OA
ATOM     14  C   UNL     1      48.392   2.678  16.570  0.00  0.00    +0.000 C 
ENDBRANCH  10  11
ENDBRANCH   8  10
ENDBRANCH   1   4
BRANCH   1  15
ATOM     15  C   UNL     1      49.319   7.501  13.433  0.00  0.00    +0.000 C 
BRANCH  15  16
ATOM     16  O   UNL     1      48.788   6.171  13.341  0.00  0.00    +0.000 OA
BRANCH  16  20
ATOM     17  C   UNL     1      44.734   5.585  12.999  0.00  0.00    +0.000 A 
ATOM     18  C   UNL     1      45.243   6.743  12.427  0.00  0.00    +0.000 A 
ATOM     19  C   UNL     1      46.613   6.989  12.518  0.00  0.00    +0.000 A 
ATOM     20  C   UNL     1      47.435   6.076  13.181  0.00  0.00    +0.000 A 
ATOM     21  C   UNL     1      46.825   4.957  13.740  0.00  0.00    +0.000 A 
ATOM     22  N   UNL     1      45.497   4.683  13.673  0.00  0.00    +0.000 NA
BRANCH  17  24
ATOM     23  N   UNL     1      42.541   5.995  12.006  0.00  0.00    +0.000 N 
ATOM     24  C   UNL     1      43.282   5.259  12.883  0.00  0.00    +0.000 C 
ATOM     25  O   UNL     1      42.760   4.345  13.535  0.00  0.00    +0.000 OA
ATOM     26  H   UNL     1      41.598   5.687  11.841  0.00  0.00    +0.000 HD
ATOM     27  H   UNL     1      43.009   6.546  11.291  0.00  0.00    +0.000 HD
ENDBRANCH  17  24
ENDBRANCH  16  20
ENDBRANCH  15  16
ENDBRANCH   1  15
TORSDOF 7
ENDMDL
