MODEL 1
REMARK VINA RESULT:    -7.554      0.000      0.000
REMARK INTER + INTRA:         -10.055
REMARK INTER:                  -9.542
REMARK INTRA:                  -0.513
REMARK UNBOUND:                -0.513
REMARK  Name = 
REMARK  5 active torsions:
REMARK  status: ('A' for Active; 'I' for Inactive)
REMARK    1  A    between atoms: N_1  and  C_2
REMARK    2  A    between atoms: C_2  and  C_3
REMARK    3  A    between atoms: C_3  and  C_4
REMARK    4  A    between atoms: C_7  and  C_8
REMARK    5  A    between atoms: C_8  and  N_9
REMARK                            x       y       z     vdW  Elec       q    Type
REMARK                         _______ _______ _______ _____ _____    ______ ____
ROOT
ATOM      1  C   UNL     1      46.176   2.272   7.750  0.00  0.00    +0.000 A 
ATOM      2  C   UNL     1      46.087   3.644   7.544  0.00  0.00    +0.000 A 
ATOM      3  C   UNL     1      45.313   4.408   8.416  0.00  0.00    +0.000 A 
ATOM      4  C   UNL     1      44.645   3.789   9.475  0.00  0.00    +0.000 A 
ATOM      5  C   UNL     1      44.789   2.412   9.597  0.00  0.00    +0.000 A 
ATOM      6  N   UNL     1      45.532   1.648   8.764  0.00  0.00    +0.000 NA
ENDROOT
BRANCH   1   7
ATOM      7  C   UNL     1      46.973   1.404   6.809  0.00  0.00    +0.000 C 
BRANCH   7   8
ATOM      8  C   UNL     1      48.278   2.094   6.407  0.00  0.00    +0.000 C 
BRANCH   8   9
ATOM      9  N   UNL     1      48.268   2.469   4.992  0.00  0.00    +0.000 NA
ATOM     10  H   UNL     1      47.357   2.236   4.596  0.00  0.00    +0.000 HD
ATOM     11  H   UNL     1      48.943   1.893   4.489  0.00  0.00    +0.000 HD
ENDBRANCH   8   9
ENDBRANCH   7   8
ENDBRANCH   1   7
BRANCH   4  12
ATOM     12  C   UNL     1      43.815   4.568  10.452  0.00  0.00    +0.000 C 
BRANCH  12  13
ATOM     13  N   UNL     1      44.475   4.738  11.734  0.00  0.00    +0.000 N 
ATOM     14  C   UNL     1      44.191   4.020  12.863  0.00  0.00    +0.000 A 
ATOM     15  N   UNL     1      45.062   4.247  13.821  0.00  0.00    +0.000 NA
ATOM     16  C   UNL     1      45.949   5.151  13.290  0.00  0.00    +0.000 A 
ATOM     17  C   UNL     1      47.100   5.711  13.866  0.00  0.00    +0.000 A 
ATOM     18  C   UNL     1      47.859   6.614  13.113  0.00  0.00    +0.000 A 
ATOM     19  C   UNL     1      47.474   6.964  11.817  0.00  0.00    +0.000 A 
ATOM     20  C   UNL     1      46.331   6.413  11.226  0.00  0.00    +0.000 A 
ATOM     21  C   UNL     1      45.594   5.497  11.987  0.00  0.00    +0.000 A 
ENDBRANCH  12  13
ENDBRANCH   4  12
TORSDOF 5
ENDMDL
MODEL 2
REMARK VINA RESULT:    -7.417      1.472      1.820
REMARK INTER + INTRA:          -9.881
REMARK INTER:                  -9.419
REMARK INTRA:                  -0.462
REMARK UNBOUND:                -0.513
REMARK  Name = 
REMARK  5 active torsions:
REMARK  status: ('A' for Active; 'I' for Inactive)
REMARK    1  A    between atoms: N_1  and  C_2
REMARK    2  A    between atoms: C_2  and  C_3
REMARK    3  A    between atoms: C_3  and  C_4
REMARK    4  A    between atoms: C_7  and  C_8
REMARK    5  A    between atoms: C_8  and  N_9
REMARK                            x       y       z     vdW  Elec       q    Type
REMARK                         _______ _______ _______ _____ _____    ______ ____
ROOT
ATOM      1  C   UNL     1      45.911   3.358   7.852  0.00  0.00    +0.000 A 
ATOM      2  C   UNL     1      45.331   2.405   8.682  0.00  0.00    +0.000 A 
ATOM      3  C   UNL     1      44.841   2.801   9.925  0.00  0.00    +0.000 A 
ATOM      4  C   UNL     1      44.938   4.138  10.315  0.00  0.00    +0.000 A 
ATOM      5  C   UNL     1      45.539   5.017   9.421  0.00  0.00    +0.000 A 
ATOM      6  N   UNL     1      46.024   4.659   8.211  0.00  0.00    +0.000 NA
ENDROOT
BRANCH   1   7
ATOM      7  C   UNL     1      46.485   2.965   6.515  0.00  0.00    +0.000 C 
BRANCH   7   8
ATOM      8  C   UNL     1      47.775   2.162   6.690  0.00  0.00    +0.000 C 
BRANCH   8   9
ATOM      9  N   UNL     1      48.439   1.935   5.405  0.00  0.00    +0.000 NA
ATOM     10  H   UNL     1      48.006   2.532   4.700  0.00  0.00    +0.000 HD
ATOM     11  H   UNL     1      48.262   0.976   5.103  0.00  0.00    +0.000 HD
ENDBRANCH   8   9
ENDBRANCH   7   8
ENDBRANCH   1   7
BRANCH   4  12
ATOM     12  C   UNL     1      44.410   4.620  11.635  0.00  0.00    +0.000 C 
BRANCH  12  13
ATOM     13  N   UNL     1      45.469   4.959  12.569  0.00  0.00    +0.000 N 
ATOM     14  C   UNL     1      46.299   4.055  13.173  0.00  0.00    +0.000 A 
ATOM     15  N   UNL     1      47.281   4.646  13.819  0.00  0.00    +0.000 NA
ATOM     16  C   UNL     1      47.077   5.990  13.624  0.00  0.00    +0.000 A 
ATOM     17  C   UNL     1      47.848   7.078  14.061  0.00  0.00    +0.000 A 
ATOM     18  C   UNL     1      47.438   8.374  13.723  0.00  0.00    +0.000 A 
ATOM     19  C   UNL     1      46.278   8.583  12.976  0.00  0.00    +0.000 A 
ATOM     20  C   UNL     1      45.499   7.509  12.529  0.00  0.00    +0.000 A 
ATOM     21  C   UNL     1      45.934   6.221  12.861  0.00  0.00    +0.000 A 
ENDBRANCH  12  13
ENDBRANCH   4  12
TORSDOF 5
ENDMDL
MODEL 3
REMARK VINA RESULT:    -6.576      2.485      6.037
REMARK INTER + INTRA:          -8.819
REMARK INTER:                  -8.184
REMARK INTRA:                  -0.635
REMARK UNBOUND:                -0.513
REMARK  Name = 
REMARK  5 active torsions:
REMARK  status: ('A' for Active; 'I' for Inactive)
REMARK    1  A    between atoms: N_1  and  C_2
REMARK    2  A    between atoms: C_2  and  C_3
REMARK    3  A    between atoms: C_3  and  C_4
REMARK    4  A    between atoms: C_7  and  C_8
REMARK    5  A    between atoms: C_8  and  N_9
REMARK                            x       y       z     vdW  Elec       q    Type
REMARK                         _______ _______ _______ _____ _____    ______ ____
ROOT
ATOM      1  C   UNL     1      46.787   8.083  13.039  0.00  0.00    +0.000 A 
ATOM      2  C   UNL     1      45.958   8.833  12.213  0.00  0.00    +0.000 A 
ATOM      3  C   UNL     1      44.871   8.210  11.602  0.00  0.00    +0.000 A 
ATOM      4  C   UNL     1      44.633   6.852  11.828  0.00  0.00    +0.000 A 
ATOM      5  C   UNL     1      45.519   6.184  12.665  0.00  0.00    +0.000 A 
ATOM      6  N   UNL     1      46.581   6.764  13.268  0.00  0.00    +0.000 NA
ENDROOT
BRANCH   1   7
ATOM      7  C   UNL     1      47.994   8.710  13.690  0.00  0.00    +0.000 C 
BRANCH   7   8
ATOM      8  C   UNL     1      48.704   7.707  14.601  0.00  0.00    +0.000 C 
BRANCH   8   9
ATOM      9  N   UNL     1      49.697   6.927  13.861  0.00  0.00    +0.000 NA
ATOM     10  H   UNL     1      50.468   7.541  13.596  0.00  0.00    +0.000 HD
ATOM     11  H   UNL     1      49.284   6.607  12.984  0.00  0.00    +0.000 HD
ENDBRANCH   8   9
ENDBRANCH   7   8
ENDBRANCH   1   7
BRANCH   4  12
ATOM     12  C   UNL     1      43.467   6.139  11.210  0.00  0.00    +0.000 C 
BRANCH  12  13
ATOM     13  N   UNL     1      43.738   4.733  10.969  0.00  0.00    +0.000 N 
ATOM     14  C   UNL     1      43.121   3.695  11.611  0.00  0.00    +0.000 A 
ATOM     15  N   UNL     1      43.419   2.535  11.068  0.00  0.00    +0.000 NA
ATOM     16  C   UNL     1      44.265   2.835  10.029  0.00  0.00    +0.000 A 
ATOM     17  C   UNL     1      44.859   1.977   9.090  0.00  0.00    +0.000 A 
ATOM     18  C   UNL     1      45.687   2.526   8.104  0.00  0.00    +0.000 A 
ATOM     19  C   UNL     1      45.929   3.900   8.060  0.00  0.00    +0.000 A 
ATOM     20  C   UNL     1      45.343   4.771   8.987  0.00  0.00    +0.000 A 
ATOM     21  C   UNL     1      44.503   4.206   9.954  0.00  0.00    +0.000 A 
ENDBRANCH  12  13
ENDBRANCH   4  12
TORSDOF 5
ENDMDL
MODEL 4
REMARK VINA RESULT:    -6.178      1.931      6.113
REMARK INTER + INTRA:          -8.316
REMARK INTER:                  -7.701
REMARK INTRA:                  -0.615
REMARK UNBOUND:                -0.513
REMARK  Name = 
REMARK  5 active torsions:
REMARK  status: ('A' for Active; 'I' for Inactive)
REMARK    1  A    between atoms: N_1  and  C_2
REMARK    2  A    between atoms: C_2  and  C_3
REMARK    3  A    between atoms: C_3  and  C_4
REMARK    4  A    between atoms: C_7  and  C_8
REMARK    5  A    between atoms: C_8  and  N_9
REMARK                            x       y       z     vdW  Elec       q    Type
REMARK                         _______ _______ _______ _____ _____    ______ ____
ROOT
ATOM      1  C   UNL     1      45.829   6.699  12.196  0.00  0.00    +0.000 A 
ATOM      2  C   UNL     1      44.500   6.311  12.317  0.00  0.00    +0.000 A 
ATOM      3  C   UNL     1      43.924   5.547  11.304  0.00  0.00    +0.000 A 
ATOM      4  C   UNL     1      44.686   5.186  10.190  0.00  0.00    +0.000 A 
ATOM      5  C   UNL     1      46.004   5.625  10.154  0.00  0.00    +0.000 A 
ATOM      6  N   UNL     1      46.585   6.367  11.123  0.00  0.00    +0.000 NA
ENDROOT
BRANCH   1   7
ATOM      7  C   UNL     1      46.479   7.555  13.253  0.00  0.00    +0.000 C 
BRANCH   7   8
ATOM      8  C   UNL     1      48.004   7.486  13.147  0.00  0.00    +0.000 C 
BRANCH   8   9
ATOM      9  N   UNL     1      48.513   6.196  13.618  0.00  0.00    +0.000 NA
ATOM     10  H   UNL     1      48.505   6.191  14.638  0.00  0.00    +0.000 HD
ATOM     11  H   UNL     1      49.492   6.106  13.348  0.00  0.00    +0.000 HD
ENDBRANCH   8   9
ENDBRANCH   7   8
ENDBRANCH   1   7
BRANCH   4  12
ATOM     12  C   UNL     1      44.119   4.350   9.080  0.00  0.00    +0.000 C 
BRANCH  12  13
ATOM     13  N   UNL     1      44.912   3.163   8.815  0.00  0.00    +0.000 N 
ATOM     14  C   UNL     1      44.688   1.932   9.367  0.00  0.00    +0.000 A 
ATOM     15  N   UNL     1      45.433   1.002   8.812  0.00  0.00    +0.000 NA
ATOM     16  C   UNL     1      46.172   1.659   7.859  0.00  0.00    +0.000 A 
ATOM     17  C   UNL     1      47.105   1.144   6.946  0.00  0.00    +0.000 A 
ATOM     18  C   UNL     1      47.731   2.022   6.054  0.00  0.00    +0.000 A 
ATOM     19  C   UNL     1      47.444   3.388   6.077  0.00  0.00    +0.000 A 
ATOM     20  C   UNL     1      46.514   3.919   6.979  0.00  0.00    +0.000 A 
ATOM     21  C   UNL     1      45.885   3.023   7.852  0.00  0.00    +0.000 A 
ENDBRANCH  12  13
ENDBRANCH   4  12
TORSDOF 5
ENDMDL
MODEL 5
REMARK VINA RESULT:    -5.494      2.716      6.850
REMARK INTER + INTRA:          -7.453
REMARK INTER:                  -6.737
REMARK INTRA:                  -0.716
REMARK UNBOUND:                -0.513
REMARK  Name = 
REMARK  5 active torsions:
REMARK  status: ('A' for Active; 'I' for Inactive)
REMARK    1  A    between atoms: N_1  and  C_2
REMARK    2  A    between atoms: C_2  and  C_3
REMARK    3  A    between atoms: C_3  and  C_4
REMARK    4  A    between atoms: C_7  and  C_8
REMARK    5  A    between atoms: C_8  and  N_9
REMARK                            x       y       z     vdW  Elec       q    Type
REMARK                         _______ _______ _______ _____ _____    ______ ____
ROOT
ATOM      1  C   UNL     1      48.886   8.015  14.145  0.00  0.00    +0.000 A 
ATOM      2  C   UNL     1      48.984   6.999  13.201  0.00  0.00    +0.000 A 
ATOM      3  C   UNL     1      47.891   6.733  12.380  0.00  0.00    +0.000 A 
ATOM      4  C   UNL     1      46.721   7.485  12.516  0.00  0.00    +0.000 A 
ATOM      5  C   UNL     1      46.716   8.476  13.491  0.00  0.00    +0.000 A 
ATOM      6  N   UNL     1      47.762   8.753  14.301  0.00  0.00    +0.000 NA
ENDROOT
BRANCH   1   7
ATOM      7  C   UNL     1      50.034   8.311  15.076  0.00  0.00    +0.000 C 
BRANCH   7   8
ATOM      8  C   UNL     1      49.579   8.256  16.536  0.00  0.00    +0.000 C 
BRANCH   8   9
ATOM      9  N   UNL     1      48.500   7.284  16.720  0.00  0.00    +0.000 NA
ATOM     10  H   UNL     1      47.707   7.558  16.139  0.00  0.00    +0.000 HD
ATOM     11  H   UNL     1      48.166   7.334  17.683  0.00  0.00    +0.000 HD
ENDBRANCH   8   9
ENDBRANCH   7   8
ENDBRANCH   1   7
BRANCH   4  12
ATOM     12  C   UNL     1      45.522   7.251  11.645  0.00  0.00    +0.000 C 
BRANCH  12  13
ATOM     13  N   UNL     1      45.094   5.864  11.646  0.00  0.00    +0.000 N 
ATOM     14  C   UNL     1      44.441   5.246  12.677  0.00  0.00    +0.000 A 
ATOM     15  N   UNL     1      44.009   4.052  12.339  0.00  0.00    +0.000 NA
ATOM     16  C   UNL     1      44.398   3.888  11.032  0.00  0.00    +0.000 A 
ATOM     17  C   UNL     1      44.167   2.811  10.164  0.00  0.00    +0.000 A 
ATOM     18  C   UNL     1      44.662   2.880   8.856  0.00  0.00    +0.000 A 
ATOM     19  C   UNL     1      45.383   3.995   8.424  0.00  0.00    +0.000 A 
ATOM     20  C   UNL     1      45.621   5.080   9.277  0.00  0.00    +0.000 A 
ATOM     21  C   UNL     1      45.103   5.000  10.575  0.00  0.00    +0.000 A 
ENDBRANCH  12  13
ENDBRANCH   4  12
TORSDOF 5
ENDMDL
MODEL 6
REMARK VINA RESULT:    -5.405      3.356      6.706
REMARK INTER + INTRA:          -7.340
REMARK INTER:                  -7.161
REMARK INTRA:                  -0.179
REMARK UNBOUND:                -0.513
REMARK  Name = 
REMARK  5 active torsions:
REMARK  status: ('A' for Active; 'I' for Inactive)
REMARK    1  A    between atoms: N_1  and  C_2
REMARK    2  A    between atoms: C_2  and  C_3
REMARK    3  A    between atoms: C_3  and  C_4
REMARK    4  A    between atoms: C_7  and  C_8
REMARK    5  A    between atoms: C_8  and  N_9
REMARK                            x       y       z     vdW  Elec       q    Type
REMARK                         _______ _______ _______ _____ _____    ______ ____
ROOT
ATOM      1  C   UNL     1      43.468   9.952  11.099  0.00  0.00    +0.000 A 
ATOM      2  C   UNL     1      44.649  10.354  11.714  0.00  0.00    +0.000 A 
ATOM      3  C   UNL     1      45.576   9.384  12.091  0.00  0.00    +0.000 A 
ATOM      4  C   UNL     1      45.308   8.035  11.847  0.00  0.00    +0.000 A 
ATOM      5  C   UNL     1      44.099   7.731  11.232  0.00  0.00    +0.000 A 
ATOM      6  N   UNL     1      43.182   8.651  10.859  0.00  0.00    +0.000 NA
ENDROOT
BRANCH   1   7
ATOM      7  C   UNL     1      42.423  10.966  10.708  0.00  0.00    +0.000 C 
BRANCH   7   8
ATOM      8  C   UNL     1      41.210  10.884  11.636  0.00  0.00    +0.000 C 
BRANCH   8   9
ATOM      9  N   UNL     1      40.465   9.640  11.430  0.00  0.00    +0.000 NA
ATOM     10  H   UNL     1      39.480   9.865  11.293  0.00  0.00    +0.000 HD
ATOM     11  H   UNL     1      40.506   9.082  12.283  0.00  0.00    +0.000 HD
ENDBRANCH   8   9
ENDBRANCH   7   8
ENDBRANCH   1   7
BRANCH   4  12
ATOM     12  C   UNL     1      46.281   6.954  12.217  0.00  0.00    +0.000 C 
BRANCH  12  13
ATOM     13  N   UNL     1      45.702   5.626  12.120  0.00  0.00    +0.000 N 
ATOM     14  C   UNL     1      45.180   4.922  13.170  0.00  0.00    +0.000 A 
ATOM     15  N   UNL     1      44.557   3.835  12.770  0.00  0.00    +0.000 NA
ATOM     16  C   UNL     1      44.681   3.836  11.402  0.00  0.00    +0.000 A 
ATOM     17  C   UNL     1      44.171   2.927  10.463  0.00  0.00    +0.000 A 
ATOM     18  C   UNL     1      44.425   3.148   9.104  0.00  0.00    +0.000 A 
ATOM     19  C   UNL     1      45.180   4.246   8.688  0.00  0.00    +0.000 A 
ATOM     20  C   UNL     1      45.694   5.165   9.612  0.00  0.00    +0.000 A 
ATOM     21  C   UNL     1      45.415   4.937  10.964  0.00  0.00    +0.000 A 
ENDBRANCH  12  13
ENDBRANCH   4  12
TORSDOF 5
ENDMDL
MODEL 7
REMARK VINA RESULT:    -5.378      2.657      5.859
REMARK INTER + INTRA:          -7.306
REMARK INTER:                  -6.560
REMARK INTRA:                  -0.746
REMARK UNBOUND:                -0.513
REMARK  Name = 
REMARK  5 active torsions:
REMARK  status: ('A' for Active; 'I' for Inactive)
REMARK    1  A    between atoms: N_1  and  C_2
REMARK    2  A    between atoms: C_2  and  C_3
REMARK    3  A    between atoms: C_3  and  C_4
REMARK    4  A    between atoms: C_7  and  C_8
REMARK    5  A    between atoms: C_8  and  N_9
REMARK                            x       y       z     vdW  Elec       q    Type
REMARK                         _______ _______ _______ _____ _____    ______ ____
ROOT
ATOM      1  C   UNL     1      48.533   8.574  12.686  0.00  0.00    +0.000 A 
ATOM      2  C   UNL     1      47.453   9.256  12.136  0.00  0.00    +0.000 A 
ATOM      3  C   UNL     1      46.207   8.634  12.103  0.00  0.00    +0.000 A 
ATOM      4  C   UNL     1      46.062   7.344  12.620  0.00  0.00    +0.000 A 
ATOM      5  C   UNL     1      47.199   6.740  13.144  0.00  0.00    +0.000 A 
ATOM      6  N   UNL     1      48.419   7.321  13.187  0.00  0.00    +0.000 NA
ENDROOT
BRANCH   1   7
ATOM      7  C   UNL     1      49.905   9.198  12.709  0.00  0.00    +0.000 C 
BRANCH   7   8
ATOM      8  C   UNL     1      50.992   8.127  12.598  0.00  0.00    +0.000 C 
BRANCH   8   9
ATOM      9  N   UNL     1      50.942   7.452  11.299  0.00  0.00    +0.000 NA
ATOM     10  H   UNL     1      51.095   8.141  10.563  0.00  0.00    +0.000 HD
ATOM     11  H   UNL     1      50.001   7.088  11.148  0.00  0.00    +0.000 HD
ENDBRANCH   8   9
ENDBRANCH   7   8
ENDBRANCH   1   7
BRANCH   4  12
ATOM     12  C   UNL     1      44.739   6.637  12.626  0.00  0.00    +0.000 C 
BRANCH  12  13
ATOM     13  N   UNL     1      44.852   5.240  12.245  0.00  0.00    +0.000 N 
ATOM     14  C   UNL     1      44.554   4.181  13.057  0.00  0.00    +0.000 A 
ATOM     15  N   UNL     1      44.565   3.042  12.401  0.00  0.00    +0.000 NA
ATOM     16  C   UNL     1      44.883   3.378  11.108  0.00  0.00    +0.000 A 
ATOM     17  C   UNL     1      44.995   2.554   9.977  0.00  0.00    +0.000 A 
ATOM     18  C   UNL     1      45.324   3.138   8.748  0.00  0.00    +0.000 A 
ATOM     19  C   UNL     1      45.550   4.512   8.648  0.00  0.00    +0.000 A 
ATOM     20  C   UNL     1      45.440   5.348   9.765  0.00  0.00    +0.000 A 
ATOM     21  C   UNL     1      45.092   4.750  10.982  0.00  0.00    +0.000 A 
ENDBRANCH  12  13
ENDBRANCH   4  12
TORSDOF 5
ENDMDL
MODEL 8
REMARK VINA RESULT:    -5.309      3.934      6.261
REMARK INTER + INTRA:          -7.218
REMARK INTER:                  -6.524
REMARK INTRA:                  -0.694
REMARK UNBOUND:                -0.513
REMARK  Name = 
REMARK  5 active torsions:
REMARK  status: ('A' for Active; 'I' for Inactive)
REMARK    1  A    between atoms: N_1  and  C_2
REMARK    2  A    between atoms: C_2  and  C_3
REMARK    3  A    between atoms: C_3  and  C_4
REMARK    4  A    between atoms: C_7  and  C_8
REMARK    5  A    between atoms: C_8  and  N_9
REMARK                            x       y       z     vdW  Elec       q    Type
REMARK                         _______ _______ _______ _____ _____    ______ ____
ROOT
ATOM      1  C   UNL     1      44.633   5.165  12.985  0.00  0.00    +0.000 A 
ATOM      2  C   UNL     1      44.906   6.482  12.632  0.00  0.00    +0.000 A 
ATOM      3  C   UNL     1      46.175   6.998  12.882  0.00  0.00    +0.000 A 
ATOM      4  C   UNL     1      47.148   6.193  13.478  0.00  0.00    +0.000 A 
ATOM      5  C   UNL     1      46.781   4.891  13.802  0.00  0.00    +0.000 A 
ATOM      6  N   UNL     1      45.556   4.366  13.571  0.00  0.00    +0.000 NA
ENDROOT
BRANCH   1   7
ATOM      7  C   UNL     1      43.262   4.578  12.764  0.00  0.00    +0.000 C 
BRANCH   7   8
ATOM      8  C   UNL     1      43.319   3.424  11.761  0.00  0.00    +0.000 C 
BRANCH   8   9
ATOM      9  N   UNL     1      43.550   2.145  12.435  0.00  0.00    +0.000 NA
ATOM     10  H   UNL     1      44.277   2.270  13.140  0.00  0.00    +0.000 HD
ATOM     11  H   UNL     1      43.928   1.477  11.763  0.00  0.00    +0.000 HD
ENDBRANCH   8   9
ENDBRANCH   7   8
ENDBRANCH   1   7
BRANCH   4  12
ATOM     12  C   UNL     1      48.535   6.695  13.753  0.00  0.00    +0.000 C 
BRANCH  12  13
ATOM     13  N   UNL     1      48.631   7.407  15.015  0.00  0.00    +0.000 N 
ATOM     14  C   UNL     1      48.422   8.749  15.175  0.00  0.00    +0.000 A 
ATOM     15  N   UNL     1      48.388   9.092  16.443  0.00  0.00    +0.000 NA
ATOM     16  C   UNL     1      48.582   7.922  17.135  0.00  0.00    +0.000 A 
ATOM     17  C   UNL     1      48.602   7.701  18.521  0.00  0.00    +0.000 A 
ATOM     18  C   UNL     1      48.811   6.400  18.993  0.00  0.00    +0.000 A 
ATOM     19  C   UNL     1      49.008   5.341  18.105  0.00  0.00    +0.000 A 
ATOM     20  C   UNL     1      48.989   5.543  16.719  0.00  0.00    +0.000 A 
ATOM     21  C   UNL     1      48.761   6.848  16.265  0.00  0.00    +0.000 A 
ENDBRANCH  12  13
ENDBRANCH   4  12
TORSDOF 5
ENDMDL
MODEL 9
REMARK VINA RESULT:    -5.239      2.404      4.307
REMARK INTER + INTRA:          -7.130
REMARK INTER:                  -6.624
REMARK INTRA:                  -0.505
REMARK UNBOUND:                -0.513
REMARK  Name = 
REMARK  5 active torsions:
REMARK  status: ('A' for Active; 'I' for Inactive)
REMARK    1  A    between atoms: N_1  and  C_2
REMARK    2  A    between atoms: C_2  and  C_3
REMARK    3  A    between atoms: C_3  and  C_4
REMARK    4  A    between atoms: C_7  and  C_8
REMARK    5  A    between atoms: C_8  and  N_9
REMARK                            x       y       z     vdW  Elec       q    Type
REMARK                         _______ _______ _______ _____ _____    ______ ____
ROOT
ATOM      1  C   UNL     1      44.617   3.872  11.052  0.00  0.00    +0.000 A 
ATOM      2  C   UNL     1      44.716   3.851  12.439  0.00  0.00    +0.000 A 
ATOM      3  C   UNL     1      45.145   5.000  13.101  0.00  0.00    +0.000 A 
ATOM      4  C   UNL     1      45.464   6.145  12.369  0.00  0.00    +0.000 A 
ATOM      5  C   UNL     1      45.339   6.069  10.986  0.00  0.00    +0.000 A 
ATOM      6  N   UNL     1      44.928   4.967  10.319  0.00  0.00    +0.000 NA
ENDROOT
BRANCH   1   7
ATOM      7  C   UNL     1      44.191   2.639  10.294  0.00  0.00    +0.000 C 
BRANCH   7   8
ATOM      8  C   UNL     1      44.999   2.488   9.004  0.00  0.00    +0.000 C 
BRANCH   8   9
ATOM      9  N   UNL     1      44.459   3.331   7.936  0.00  0.00    +0.000 NA
ATOM     10  H   UNL     1      45.232   3.803   7.466  0.00  0.00    +0.000 HD
ATOM     11  H   UNL     1      43.894   4.073   8.350  0.00  0.00    +0.000 HD
ENDBRANCH   8   9
ENDBRANCH   7   8
ENDBRANCH   1   7
BRANCH   4  12
ATOM     12  C   UNL     1      45.913   7.413  13.035  0.00  0.00    +0.000 C 
BRANCH  12  13
ATOM     13  N   UNL     1      47.345   7.442  13.271  0.00  0.00    +0.000 N 
ATOM     14  C   UNL     1      48.033   6.531  14.024  0.00  0.00    +0.000 A 
ATOM     15  N   UNL     1      49.334   6.687  13.915  0.00  0.00    +0.000 NA
ATOM     16  C   UNL     1      49.495   7.744  13.054  0.00  0.00    +0.000 A 
ATOM     17  C   UNL     1      50.678   8.315  12.558  0.00  0.00    +0.000 A 
ATOM     18  C   UNL     1      50.586   9.394  11.672  0.00  0.00    +0.000 A 
ATOM     19  C   UNL     1      49.342   9.905  11.295  0.00  0.00    +0.000 A 
ATOM     20  C   UNL     1      48.153   9.346  11.778  0.00  0.00    +0.000 A 
ATOM     21  C   UNL     1      48.264   8.256  12.649  0.00  0.00    +0.000 A 
ENDBRANCH  12  13
ENDBRANCH   4  12
TORSDOF 5
ENDMDL
