MODEL 1
REMARK VINA RESULT:    -8.315      0.000      0.000
REMARK INTER + INTRA:         -12.571
REMARK INTER:                 -11.475
REMARK INTRA:                  -1.096
REMARK UNBOUND:                -1.096
REMARK  Name = 
REMARK  8 active torsions:
REMARK  status: ('A' for Active; 'I' for Inactive)
REMARK    1  A    between atoms: C_1  and  C_2
REMARK    2  A    between atoms: C_2  and  C_3
REMARK    3  A    between atoms: C_7  and  C_8
REMARK    4  A    between atoms: C_8  and  C_9
REMARK    5  A    between atoms: C_9  and  N_10
REMARK    6  A    between atoms: N_10  and  C_11
REMARK    7  A    between atoms: C_14  and  C_15
REMARK    8  A    between atoms: C_23  and  O_24
REMARK                            x       y       z     vdW  Elec       q    Type
REMARK                         _______ _______ _______ _____ _____    ______ ____
ROOT
ATOM      1  C   UNL     1      44.662   3.659   9.584  0.00  0.00    +0.000 A 
ATOM      2  C   UNL     1      44.023   2.805  10.497  0.00  0.00    +0.000 A 
ATOM      3  C   UNL     1      43.510   3.295  11.704  0.00  0.00    +0.000 A 
ATOM      4  C   UNL     1      43.649   4.643  12.041  0.00  0.00    +0.000 A 
ATOM      5  C   UNL     1      44.274   5.525  11.158  0.00  0.00    +0.000 A 
ATOM      6  C   UNL     1      44.724   5.016   9.926  0.00  0.00    +0.000 A 
ENDROOT
BRANCH   1   8
ATOM      7  C   UNL     1      44.302   2.998   7.225  0.00  0.00    +0.000 C 
ATOM      8  C   UNL     1      45.383   3.117   8.328  0.00  0.00    +0.000 C 
ATOM      9  C   UNL     1      46.516   4.083   7.894  0.00  0.00    +0.000 C 
ATOM     10  C   UNL     1      47.333   3.568   6.706  0.00  0.00    +0.000 C 
ATOM     11  C   UNL     1      47.901   2.173   6.953  0.00  0.00    +0.000 C 
ATOM     12  C   UNL     1      46.818   1.184   7.362  0.00  0.00    +0.000 C 
ATOM     13  C   UNL     1      46.019   1.707   8.550  0.00  0.00    +0.000 C 
BRANCH  11  14
ATOM     14  O   UNL     1      48.550   1.702   5.778  0.00  0.00    +0.000 OA
ATOM     15  H   UNL     1      48.062   2.039   5.007  0.00  0.00    +0.000 HD
ENDBRANCH  11  14
ENDBRANCH   1   8
BRANCH   5  16
ATOM     16  C   UNL     1      44.526   6.970  11.566  0.00  0.00    +0.000 C 
BRANCH  16  17
ATOM     17  C   UNL     1      45.514   7.099  12.734  0.00  0.00    +0.000 C 
BRANCH  17  18
ATOM     18  N   UNL     1      46.779   6.387  12.540  0.00  0.00    +0.000 N 
ATOM     19  H   UNL     1      47.555   7.027  12.374  0.00  0.00    +0.000 HD
BRANCH  18  20
ATOM     20  C   UNL     1      47.077   5.480  13.581  0.00  0.00    +0.000 A 
ATOM     21  C   UNL     1      46.860   4.106  13.523  0.00  0.00    +0.000 A 
ATOM     22  N   UNL     1      47.187   3.219  14.488  0.00  0.00    +0.000 NA
ATOM     23  C   UNL     1      47.810   3.748  15.562  0.00  0.00    +0.000 A 
ATOM     24  N   UNL     1      48.118   5.047  15.733  0.00  0.00    +0.000 NA
ATOM     25  C   UNL     1      47.754   5.872  14.725  0.00  0.00    +0.000 A 
BRANCH  23  26
ATOM     26  C   UNL     1      48.209   2.766  16.644  0.00  0.00    +0.000 C 
ATOM     27  N   UNL     1      47.419   2.775  17.771  0.00  0.00    +0.000 N 
ATOM     28  O   UNL     1      49.159   1.999  16.554  0.00  0.00    +0.000 OA
ATOM     29  H   UNL     1      46.620   3.395  17.830  0.00  0.00    +0.000 HD
ATOM     30  H   UNL     1      47.622   2.122  18.515  0.00  0.00    +0.000 HD
ENDBRANCH  23  26
ENDBRANCH  18  20
ENDBRANCH  17  18
ENDBRANCH  16  17
ENDBRANCH   5  16
TORSDOF 7
ENDMDL
MODEL 2
REMARK VINA RESULT:    -7.972      3.779      7.151
REMARK INTER + INTRA:         -12.097
REMARK INTER:                 -11.037
REMARK INTRA:                  -1.061
REMARK UNBOUND:                -1.096
REMARK  Name = 
REMARK  8 active torsions:
REMARK  status: ('A' for Active; 'I' for Inactive)
REMARK    1  A    between atoms: C_1  and  C_2
REMARK    2  A    between atoms: C_2  and  C_3
REMARK    3  A    between atoms: C_7  and  C_8
REMARK    4  A    between atoms: C_8  and  C_9
REMARK    5  A    between atoms: C_9  and  N_10
REMARK    6  A    between atoms: N_10  and  C_11
REMARK    7  A    between atoms: C_14  and  C_15
REMARK    8  A    between atoms: C_23  and  O_24
REMARK                            x       y       z     vdW  Elec       q    Type
REMARK                         _______ _______ _______ _____ _____    ______ ____
ROOT
ATOM      1  C   UNL     1      46.964   6.622  12.880  0.00  0.00    +0.000 A 
ATOM      2  C   UNL     1      47.545   5.514  13.515  0.00  0.00    +0.000 A 
ATOM      3  C   UNL     1      46.820   4.332  13.709  0.00  0.00    +0.000 A 
ATOM      4  C   UNL     1      45.489   4.239  13.298  0.00  0.00    +0.000 A 
ATOM      5  C   UNL     1      44.876   5.317  12.658  0.00  0.00    +0.000 A 
ATOM      6  C   UNL     1      45.649   6.469  12.422  0.00  0.00    +0.000 A 
ENDROOT
BRANCH   1   8
ATOM      7  C   UNL     1      47.980   8.403  14.268  0.00  0.00    +0.000 C 
ATOM      8  C   UNL     1      47.683   7.989  12.805  0.00  0.00    +0.000 C 
ATOM      9  C   UNL     1      48.993   7.869  11.984  0.00  0.00    +0.000 C 
ATOM     10  C   UNL     1      49.716   9.204  11.793  0.00  0.00    +0.000 C 
ATOM     11  C   UNL     1      48.813  10.272  11.182  0.00  0.00    +0.000 C 
ATOM     12  C   UNL     1      47.520  10.440  11.971  0.00  0.00    +0.000 C 
ATOM     13  C   UNL     1      46.808   9.104  12.145  0.00  0.00    +0.000 C 
BRANCH  11  14
ATOM     14  O   UNL     1      49.501  11.516  11.136  0.00  0.00    +0.000 OA
ATOM     15  H   UNL     1      50.418  11.366  11.422  0.00  0.00    +0.000 HD
ENDBRANCH  11  14
ENDBRANCH   1   8
BRANCH   5  16
ATOM     16  C   UNL     1      43.396   5.262  12.307  0.00  0.00    +0.000 C 
BRANCH  16  17
ATOM     17  C   UNL     1      43.112   4.457  11.031  0.00  0.00    +0.000 C 
BRANCH  17  18
ATOM     18  N   UNL     1      43.792   4.957   9.835  0.00  0.00    +0.000 N 
ATOM     19  H   UNL     1      44.334   5.799  10.028  0.00  0.00    +0.000 HD
BRANCH  18  20
ATOM     20  C   UNL     1      44.580   3.979   9.189  0.00  0.00    +0.000 A 
ATOM     21  C   UNL     1      45.586   4.254   8.266  0.00  0.00    +0.000 A 
ATOM     22  N   UNL     1      46.383   3.335   7.678  0.00  0.00    +0.000 NA
ATOM     23  C   UNL     1      46.179   2.062   8.078  0.00  0.00    +0.000 A 
ATOM     24  N   UNL     1      45.272   1.659   8.987  0.00  0.00    +0.000 NA
ATOM     25  C   UNL     1      44.510   2.636   9.527  0.00  0.00    +0.000 A 
BRANCH  23  26
ATOM     26  C   UNL     1      47.081   1.020   7.451  0.00  0.00    +0.000 C 
ATOM     27  N   UNL     1      46.748  -0.288   7.719  0.00  0.00    +0.000 N 
ATOM     28  O   UNL     1      48.045   1.286   6.744  0.00  0.00    +0.000 OA
ATOM     29  H   UNL     1      45.935  -0.504   8.285  0.00  0.00    +0.000 HD
ATOM     30  H   UNL     1      47.298  -1.028   7.305  0.00  0.00    +0.000 HD
ENDBRANCH  23  26
ENDBRANCH  18  20
ENDBRANCH  17  18
ENDBRANCH  16  17
ENDBRANCH   5  16
TORSDOF 7
ENDMDL
MODEL 3
REMARK VINA RESULT:    -7.541      3.072      8.700
REMARK INTER + INTRA:         -11.502
REMARK INTER:                 -10.705
REMARK INTRA:                  -0.798
REMARK UNBOUND:                -1.096
REMARK  Name = 
REMARK  8 active torsions:
REMARK  status: ('A' for Active; 'I' for Inactive)
REMARK    1  A    between atoms: C_1  and  C_2
REMARK    2  A    between atoms: C_2  and  C_3
REMARK    3  A    between atoms: C_7  and  C_8
REMARK    4  A    between atoms: C_8  and  C_9
REMARK    5  A    between atoms: C_9  and  N_10
REMARK    6  A    between atoms: N_10  and  C_11
REMARK    7  A    between atoms: C_14  and  C_15
REMARK    8  A    between atoms: C_23  and  O_24
REMARK                            x       y       z     vdW  Elec       q    Type
REMARK                         _______ _______ _______ _____ _____    ______ ____
ROOT
ATOM      1  C   UNL     1      47.762   5.104  15.532  0.00  0.00    +0.000 A 
ATOM      2  C   UNL     1      48.294   6.259  14.940  0.00  0.00    +0.000 A 
ATOM      3  C   UNL     1      47.887   6.668  13.664  0.00  0.00    +0.000 A 
ATOM      4  C   UNL     1      46.960   5.916  12.939  0.00  0.00    +0.000 A 
ATOM      5  C   UNL     1      46.405   4.763  13.495  0.00  0.00    +0.000 A 
ATOM      6  C   UNL     1      46.786   4.412  14.803  0.00  0.00    +0.000 A 
ENDROOT
BRANCH   1   8
ATOM      7  C   UNL     1      48.098   3.008  16.807  0.00  0.00    +0.000 C 
ATOM      8  C   UNL     1      48.316   4.540  16.862  0.00  0.00    +0.000 C 
ATOM      9  C   UNL     1      49.822   4.883  17.011  0.00  0.00    +0.000 C 
ATOM     10  C   UNL     1      50.419   4.432  18.346  0.00  0.00    +0.000 C 
ATOM     11  C   UNL     1      49.640   4.970  19.542  0.00  0.00    +0.000 C 
ATOM     12  C   UNL     1      48.157   4.638  19.449  0.00  0.00    +0.000 C 
ATOM     13  C   UNL     1      47.575   5.100  18.119  0.00  0.00    +0.000 C 
BRANCH  11  14
ATOM     14  O   UNL     1      50.170   4.427  20.746  0.00  0.00    +0.000 OA
ATOM     15  H   UNL     1      51.114   4.242  20.605  0.00  0.00    +0.000 HD
ENDBRANCH  11  14
ENDBRANCH   1   8
BRANCH   5  16
ATOM     16  C   UNL     1      45.479   3.880  12.669  0.00  0.00    +0.000 C 
BRANCH  16  17
ATOM     17  C   UNL     1      44.607   4.678  11.689  0.00  0.00    +0.000 C 
BRANCH  17  18
ATOM     18  N   UNL     1      43.905   3.861  10.698  0.00  0.00    +0.000 N 
ATOM     19  H   UNL     1      43.036   4.296  10.390  0.00  0.00    +0.000 HD
BRANCH  18  20
ATOM     20  C   UNL     1      44.713   3.498   9.597  0.00  0.00    +0.000 A 
ATOM     21  C   UNL     1      45.316   4.400   8.724  0.00  0.00    +0.000 A 
ATOM     22  N   UNL     1      46.132   4.073   7.699  0.00  0.00    +0.000 NA
ATOM     23  C   UNL     1      46.388   2.753   7.572  0.00  0.00    +0.000 A 
ATOM     24  N   UNL     1      45.906   1.778   8.365  0.00  0.00    +0.000 NA
ATOM     25  C   UNL     1      45.094   2.185   9.365  0.00  0.00    +0.000 A 
BRANCH  23  26
ATOM     26  C   UNL     1      47.323   2.368   6.444  0.00  0.00    +0.000 C 
ATOM     27  N   UNL     1      47.306   3.204   5.351  0.00  0.00    +0.000 N 
ATOM     28  O   UNL     1      48.059   1.390   6.471  0.00  0.00    +0.000 OA
ATOM     29  H   UNL     1      46.712   4.025   5.344  0.00  0.00    +0.000 HD
ATOM     30  H   UNL     1      47.929   3.012   4.579  0.00  0.00    +0.000 HD
ENDBRANCH  23  26
ENDBRANCH  18  20
ENDBRANCH  17  18
ENDBRANCH  16  17
ENDBRANCH   5  16
TORSDOF 7
ENDMDL
MODEL 4
REMARK VINA RESULT:    -7.333      3.983      7.475
REMARK INTER + INTRA:         -11.215
REMARK INTER:                 -10.402
REMARK INTRA:                  -0.813
REMARK UNBOUND:                -1.096
REMARK  Name = 
REMARK  8 active torsions:
REMARK  status: ('A' for Active; 'I' for Inactive)
REMARK    1  A    between atoms: C_1  and  C_2
REMARK    2  A    between atoms: C_2  and  C_3
REMARK    3  A    between atoms: C_7  and  C_8
REMARK    4  A    between atoms: C_8  and  C_9
REMARK    5  A    between atoms: C_9  and  N_10
REMARK    6  A    between atoms: N_10  and  C_11
REMARK    7  A    between atoms: C_14  and  C_15
REMARK    8  A    between atoms: C_23  and  O_24
REMARK                            x       y       z     vdW  Elec       q    Type
REMARK                         _______ _______ _______ _____ _____    ______ ____
ROOT
ATOM      1  C   UNL     1      47.603   8.299  12.324  0.00  0.00    +0.000 A 
ATOM      2  C   UNL     1      46.535   9.198  12.473  0.00  0.00    +0.000 A 
ATOM      3  C   UNL     1      45.210   8.748  12.472  0.00  0.00    +0.000 A 
ATOM      4  C   UNL     1      44.918   7.394  12.294  0.00  0.00    +0.000 A 
ATOM      5  C   UNL     1      45.953   6.468  12.147  0.00  0.00    +0.000 A 
ATOM      6  C   UNL     1      47.276   6.942  12.214  0.00  0.00    +0.000 A 
ENDROOT
BRANCH   1   8
ATOM      7  C   UNL     1      48.985  10.100  11.334  0.00  0.00    +0.000 C 
ATOM      8  C   UNL     1      49.061   8.787  12.152  0.00  0.00    +0.000 C 
ATOM      9  C   UNL     1      49.718   9.031  13.536  0.00  0.00    +0.000 C 
ATOM     10  C   UNL     1      51.192   9.432  13.448  0.00  0.00    +0.000 C 
ATOM     11  C   UNL     1      52.020   8.432  12.646  0.00  0.00    +0.000 C 
ATOM     12  C   UNL     1      51.422   8.177  11.268  0.00  0.00    +0.000 C 
ATOM     13  C   UNL     1      49.957   7.770  11.373  0.00  0.00    +0.000 C 
BRANCH  11  14
ATOM     14  O   UNL     1      53.350   8.913  12.500  0.00  0.00    +0.000 OA
ATOM     15  H   UNL     1      53.328   9.691  11.917  0.00  0.00    +0.000 HD
ENDBRANCH  11  14
ENDBRANCH   1   8
BRANCH   5  16
ATOM     16  C   UNL     1      45.640   5.009  11.842  0.00  0.00    +0.000 C 
BRANCH  16  17
ATOM     17  C   UNL     1      44.162   4.771  11.505  0.00  0.00    +0.000 C 
BRANCH  17  18
ATOM     18  N   UNL     1      43.861   4.755  10.073  0.00  0.00    +0.000 N 
ATOM     19  H   UNL     1      43.748   5.696   9.696  0.00  0.00    +0.000 HD
BRANCH  18  20
ATOM     20  C   UNL     1      44.788   4.007   9.313  0.00  0.00    +0.000 A 
ATOM     21  C   UNL     1      44.910   2.621   9.349  0.00  0.00    +0.000 A 
ATOM     22  N   UNL     1      45.754   1.888   8.592  0.00  0.00    +0.000 NA
ATOM     23  C   UNL     1      46.495   2.596   7.713  0.00  0.00    +0.000 A 
ATOM     24  N   UNL     1      46.452   3.931   7.545  0.00  0.00    +0.000 NA
ATOM     25  C   UNL     1      45.585   4.594   8.342  0.00  0.00    +0.000 A 
BRANCH  23  26
ATOM     26  C   UNL     1      47.429   1.789   6.836  0.00  0.00    +0.000 C 
ATOM     27  N   UNL     1      48.558   2.452   6.409  0.00  0.00    +0.000 N 
ATOM     28  O   UNL     1      47.229   0.626   6.513  0.00  0.00    +0.000 OA
ATOM     29  H   UNL     1      48.730   3.407   6.699  0.00  0.00    +0.000 HD
ATOM     30  H   UNL     1      49.231   1.955   5.844  0.00  0.00    +0.000 HD
ENDBRANCH  23  26
ENDBRANCH  18  20
ENDBRANCH  17  18
ENDBRANCH  16  17
ENDBRANCH   5  16
TORSDOF 7
ENDMDL
MODEL 5
REMARK VINA RESULT:    -7.286      3.580      7.363
REMARK INTER + INTRA:         -11.150
REMARK INTER:                 -10.267
REMARK INTRA:                  -0.883
REMARK UNBOUND:                -1.096
REMARK  Name = 
REMARK  8 active torsions:
REMARK  status: ('A' for Active; 'I' for Inactive)
REMARK    1  A    between atoms: C_1  and  C_2
REMARK    2  A    between atoms: C_2  and  C_3
REMARK    3  A    between atoms: C_7  and  C_8
REMARK    4  A    between atoms: C_8  and  C_9
REMARK    5  A    between atoms: C_9  and  N_10
REMARK    6  A    between atoms: N_10  and  C_11
REMARK    7  A    between atoms: C_14  and  C_15
REMARK    8  A    between atoms: C_23  and  O_24
REMARK                            x       y       z     vdW  Elec       q    Type
REMARK                         _______ _______ _______ _____ _____    ______ ____
ROOT
ATOM      1  C   UNL     1      46.778   8.075  12.297  0.00  0.00    +0.000 A 
ATOM      2  C   UNL     1      46.370   9.404  12.104  0.00  0.00    +0.000 A 
ATOM      3  C   UNL     1      45.075   9.703  11.665  0.00  0.00    +0.000 A 
ATOM      4  C   UNL     1      44.166   8.682  11.381  0.00  0.00    +0.000 A 
ATOM      5  C   UNL     1      44.532   7.348  11.564  0.00  0.00    +0.000 A 
ATOM      6  C   UNL     1      45.820   7.080  12.065  0.00  0.00    +0.000 A 
ENDROOT
BRANCH   1   8
ATOM      7  C   UNL     1      48.253   6.204  12.973  0.00  0.00    +0.000 C 
ATOM      8  C   UNL     1      48.247   7.711  12.616  0.00  0.00    +0.000 C 
ATOM      9  C   UNL     1      49.155   7.996  11.392  0.00  0.00    +0.000 C 
ATOM     10  C   UNL     1      50.640   7.743  11.662  0.00  0.00    +0.000 C 
ATOM     11  C   UNL     1      51.148   8.510  12.879  0.00  0.00    +0.000 C 
ATOM     12  C   UNL     1      50.297   8.243  14.114  0.00  0.00    +0.000 C 
ATOM     13  C   UNL     1      48.823   8.508  13.831  0.00  0.00    +0.000 C 
BRANCH  11  14
ATOM     14  O   UNL     1      52.496   8.147  13.150  0.00  0.00    +0.000 OA
ATOM     15  H   UNL     1      53.076   8.712  12.610  0.00  0.00    +0.000 HD
ENDBRANCH  11  14
ENDBRANCH   1   8
BRANCH   5  16
ATOM     16  C   UNL     1      43.586   6.228  11.152  0.00  0.00    +0.000 C 
BRANCH  16  17
ATOM     17  C   UNL     1      44.193   4.831  11.343  0.00  0.00    +0.000 C 
BRANCH  17  18
ATOM     18  N   UNL     1      43.724   3.830  10.383  0.00  0.00    +0.000 N 
ATOM     19  H   UNL     1      42.863   4.120   9.918  0.00  0.00    +0.000 HD
BRANCH  18  20
ATOM     20  C   UNL     1      44.708   3.447   9.444  0.00  0.00    +0.000 A 
ATOM     21  C   UNL     1      45.124   2.138   9.220  0.00  0.00    +0.000 A 
ATOM     22  N   UNL     1      46.026   1.750   8.292  0.00  0.00    +0.000 NA
ATOM     23  C   UNL     1      46.507   2.742   7.513  0.00  0.00    +0.000 A 
ATOM     24  N   UNL     1      46.165   4.042   7.594  0.00  0.00    +0.000 NA
ATOM     25  C   UNL     1      45.260   4.351   8.550  0.00  0.00    +0.000 A 
BRANCH  23  26
ATOM     26  C   UNL     1      47.499   2.324   6.448  0.00  0.00    +0.000 C 
ATOM     27  N   UNL     1      47.494   3.088   5.304  0.00  0.00    +0.000 N 
ATOM     28  O   UNL     1      48.271   1.380   6.566  0.00  0.00    +0.000 OA
ATOM     29  H   UNL     1      46.871   3.882   5.222  0.00  0.00    +0.000 HD
ATOM     30  H   UNL     1      48.154   2.872   4.570  0.00  0.00    +0.000 HD
ENDBRANCH  23  26
ENDBRANCH  18  20
ENDBRANCH  17  18
ENDBRANCH  16  17
ENDBRANCH   5  16
TORSDOF 7
ENDMDL
MODEL 6
REMARK VINA RESULT:    -7.120      3.004      4.652
REMARK INTER + INTRA:         -10.922
REMARK INTER:                  -9.699
REMARK INTRA:                  -1.222
REMARK UNBOUND:                -1.096
REMARK  Name = 
REMARK  8 active torsions:
REMARK  status: ('A' for Active; 'I' for Inactive)
REMARK    1  A    between atoms: C_1  and  C_2
REMARK    2  A    between atoms: C_2  and  C_3
REMARK    3  A    between atoms: C_7  and  C_8
REMARK    4  A    between atoms: C_8  and  C_9
REMARK    5  A    between atoms: C_9  and  N_10
REMARK    6  A    between atoms: N_10  and  C_11
REMARK    7  A    between atoms: C_14  and  C_15
REMARK    8  A    between atoms: C_23  and  O_24
REMARK                            x       y       z     vdW  Elec       q    Type
REMARK                         _______ _______ _______ _____ _____    ______ ____
ROOT
ATOM      1  C   UNL     1      45.469   7.252  11.577  0.00  0.00    +0.000 A 
ATOM      2  C   UNL     1      44.545   8.292  11.390  0.00  0.00    +0.000 A 
ATOM      3  C   UNL     1      44.881   9.617  11.690  0.00  0.00    +0.000 A 
ATOM      4  C   UNL     1      46.138   9.932  12.210  0.00  0.00    +0.000 A 
ATOM      5  C   UNL     1      47.087   8.927  12.406  0.00  0.00    +0.000 A 
ATOM      6  C   UNL     1      46.742   7.613  12.038  0.00  0.00    +0.000 A 
ENDROOT
BRANCH   1   8
ATOM      7  C   UNL     1      45.584   5.328  10.023  0.00  0.00    +0.000 C 
ATOM      8  C   UNL     1      45.069   5.767  11.416  0.00  0.00    +0.000 C 
ATOM      9  C   UNL     1      45.705   4.908  12.540  0.00  0.00    +0.000 C 
ATOM     10  C   UNL     1      45.282   3.438  12.497  0.00  0.00    +0.000 C 
ATOM     11  C   UNL     1      43.766   3.269  12.506  0.00  0.00    +0.000 C 
ATOM     12  C   UNL     1      43.098   4.079  11.402  0.00  0.00    +0.000 C 
ATOM     13  C   UNL     1      43.523   5.542  11.464  0.00  0.00    +0.000 C 
BRANCH  11  14
ATOM     14  O   UNL     1      43.433   1.896  12.348  0.00  0.00    +0.000 OA
ATOM     15  H   UNL     1      42.972   1.791  11.498  0.00  0.00    +0.000 HD
ENDBRANCH  11  14
ENDBRANCH   1   8
BRANCH   5  16
ATOM     16  C   UNL     1      48.417   9.246  13.074  0.00  0.00    +0.000 C 
BRANCH  16  17
ATOM     17  C   UNL     1      49.215   7.990  13.449  0.00  0.00    +0.000 C 
BRANCH  17  18
ATOM     18  N   UNL     1      49.672   7.954  14.840  0.00  0.00    +0.000 N 
ATOM     19  H   UNL     1      49.458   8.820  15.335  0.00  0.00    +0.000 HD
BRANCH  18  20
ATOM     20  C   UNL     1      49.205   6.829  15.555  0.00  0.00    +0.000 A 
ATOM     21  C   UNL     1      49.452   6.587  16.904  0.00  0.00    +0.000 A 
ATOM     22  N   UNL     1      48.971   5.544  17.614  0.00  0.00    +0.000 NA
ATOM     23  C   UNL     1      48.156   4.714  16.930  0.00  0.00    +0.000 A 
ATOM     24  N   UNL     1      47.802   4.848  15.638  0.00  0.00    +0.000 NA
ATOM     25  C   UNL     1      48.327   5.914  14.994  0.00  0.00    +0.000 A 
BRANCH  23  26
ATOM     26  C   UNL     1      47.584   3.553  17.716  0.00  0.00    +0.000 C 
ATOM     27  N   UNL     1      48.296   3.191  18.837  0.00  0.00    +0.000 N 
ATOM     28  O   UNL     1      46.560   2.957  17.407  0.00  0.00    +0.000 OA
ATOM     29  H   UNL     1      49.130   3.703  19.101  0.00  0.00    +0.000 HD
ATOM     30  H   UNL     1      47.947   2.440  19.416  0.00  0.00    +0.000 HD
ENDBRANCH  23  26
ENDBRANCH  18  20
ENDBRANCH  17  18
ENDBRANCH  16  17
ENDBRANCH   5  16
TORSDOF 7
ENDMDL
MODEL 7
REMARK VINA RESULT:    -7.063      3.252      8.262
REMARK INTER + INTRA:         -10.843
REMARK INTER:                  -9.911
REMARK INTRA:                  -0.932
REMARK UNBOUND:                -1.096
REMARK  Name = 
REMARK  8 active torsions:
REMARK  status: ('A' for Active; 'I' for Inactive)
REMARK    1  A    between atoms: C_1  and  C_2
REMARK    2  A    between atoms: C_2  and  C_3
REMARK    3  A    between atoms: C_7  and  C_8
REMARK    4  A    between atoms: C_8  and  C_9
REMARK    5  A    between atoms: C_9  and  N_10
REMARK    6  A    between atoms: N_10  and  C_11
REMARK    7  A    between atoms: C_14  and  C_15
REMARK    8  A    between atoms: C_23  and  O_24
REMARK                            x       y       z     vdW  Elec       q    Type
REMARK                         _______ _______ _______ _____ _____    ______ ____
ROOT
ATOM      1  C   UNL     1      48.047   7.084  13.816  0.00  0.00    +0.000 A 
ATOM      2  C   UNL     1      48.361   7.834  12.672  0.00  0.00    +0.000 A 
ATOM      3  C   UNL     1      47.707   7.602  11.456  0.00  0.00    +0.000 A 
ATOM      4  C   UNL     1      46.742   6.597  11.348  0.00  0.00    +0.000 A 
ATOM      5  C   UNL     1      46.398   5.834  12.464  0.00  0.00    +0.000 A 
ATOM      6  C   UNL     1      47.028   6.131  13.686  0.00  0.00    +0.000 A 
ENDROOT
BRANCH   1   8
ATOM      7  C   UNL     1      48.419   8.522  15.797  0.00  0.00    +0.000 C 
ATOM      8  C   UNL     1      48.869   7.204  15.120  0.00  0.00    +0.000 C 
ATOM      9  C   UNL     1      48.603   5.985  16.043  0.00  0.00    +0.000 C 
ATOM     10  C   UNL     1      49.451   5.990  17.317  0.00  0.00    +0.000 C 
ATOM     11  C   UNL     1      50.944   6.105  17.021  0.00  0.00    +0.000 C 
ATOM     12  C   UNL     1      51.255   7.304  16.134  0.00  0.00    +0.000 C 
ATOM     13  C   UNL     1      50.410   7.280  14.866  0.00  0.00    +0.000 C 
BRANCH  11  14
ATOM     14  O   UNL     1      51.668   6.221  18.239  0.00  0.00    +0.000 OA
ATOM     15  H   UNL     1      51.257   5.631  18.894  0.00  0.00    +0.000 HD
ENDBRANCH  11  14
ENDBRANCH   1   8
BRANCH   5  16
ATOM     16  C   UNL     1      45.430   4.666  12.327  0.00  0.00    +0.000 C 
BRANCH  16  17
ATOM     17  C   UNL     1      44.245   4.976  11.402  0.00  0.00    +0.000 C 
BRANCH  17  18
ATOM     18  N   UNL     1      43.762   3.830  10.631  0.00  0.00    +0.000 N 
ATOM     19  H   UNL     1      42.802   3.961  10.311  0.00  0.00    +0.000 HD
BRANCH  18  20
ATOM     20  C   UNL     1      44.612   3.476   9.559  0.00  0.00    +0.000 A 
ATOM     21  C   UNL     1      45.198   4.381   8.679  0.00  0.00    +0.000 A 
ATOM     22  N   UNL     1      46.054   4.065   7.683  0.00  0.00    +0.000 NA
ATOM     23  C   UNL     1      46.370   2.755   7.597  0.00  0.00    +0.000 A 
ATOM     24  N   UNL     1      45.910   1.780   8.402  0.00  0.00    +0.000 NA
ATOM     25  C   UNL     1      45.055   2.175   9.372  0.00  0.00    +0.000 A 
BRANCH  23  26
ATOM     26  C   UNL     1      47.349   2.383   6.503  0.00  0.00    +0.000 C 
ATOM     27  N   UNL     1      47.284   3.154   5.364  0.00  0.00    +0.000 N 
ATOM     28  O   UNL     1      48.159   1.469   6.592  0.00  0.00    +0.000 OA
ATOM     29  H   UNL     1      46.628   3.923   5.305  0.00  0.00    +0.000 HD
ATOM     30  H   UNL     1      47.932   2.969   4.611  0.00  0.00    +0.000 HD
ENDBRANCH  23  26
ENDBRANCH  18  20
ENDBRANCH  17  18
ENDBRANCH  16  17
ENDBRANCH   5  16
TORSDOF 7
ENDMDL
MODEL 8
REMARK VINA RESULT:    -6.524      3.427      8.065
REMARK INTER + INTRA:         -10.099
REMARK INTER:                  -9.130
REMARK INTRA:                  -0.969
REMARK UNBOUND:                -1.096
REMARK  Name = 
REMARK  8 active torsions:
REMARK  status: ('A' for Active; 'I' for Inactive)
REMARK    1  A    between atoms: C_1  and  C_2
REMARK    2  A    between atoms: C_2  and  C_3
REMARK    3  A    between atoms: C_7  and  C_8
REMARK    4  A    between atoms: C_8  and  C_9
REMARK    5  A    between atoms: C_9  and  N_10
REMARK    6  A    between atoms: N_10  and  C_11
REMARK    7  A    between atoms: C_14  and  C_15
REMARK    8  A    between atoms: C_23  and  O_24
REMARK                            x       y       z     vdW  Elec       q    Type
REMARK                         _______ _______ _______ _____ _____    ______ ____
ROOT
ATOM      1  C   UNL     1      49.008   6.357  16.772  0.00  0.00    +0.000 A 
ATOM      2  C   UNL     1      48.883   7.568  17.470  0.00  0.00    +0.000 A 
ATOM      3  C   UNL     1      48.587   8.759  16.797  0.00  0.00    +0.000 A 
ATOM      4  C   UNL     1      48.437   8.774  15.409  0.00  0.00    +0.000 A 
ATOM      5  C   UNL     1      48.549   7.590  14.680  0.00  0.00    +0.000 A 
ATOM      6  C   UNL     1      48.786   6.398  15.390  0.00  0.00    +0.000 A 
ENDROOT
BRANCH   1   8
ATOM      7  C   UNL     1      49.164   5.223  18.968  0.00  0.00    +0.000 C 
ATOM      8  C   UNL     1      49.499   5.064  17.464  0.00  0.00    +0.000 C 
ATOM      9  C   UNL     1      48.787   3.823  16.865  0.00  0.00    +0.000 C 
ATOM     10  C   UNL     1      49.287   2.496  17.441  0.00  0.00    +0.000 C 
ATOM     11  C   UNL     1      50.800   2.342  17.316  0.00  0.00    +0.000 C 
ATOM     12  C   UNL     1      51.543   3.530  17.913  0.00  0.00    +0.000 C 
ATOM     13  C   UNL     1      51.040   4.842  17.323  0.00  0.00    +0.000 C 
BRANCH  11  14
ATOM     14  O   UNL     1      51.218   1.149  17.968  0.00  0.00    +0.000 OA
ATOM     15  H   UNL     1      50.430   0.713  18.337  0.00  0.00    +0.000 HD
ENDBRANCH  11  14
ENDBRANCH   1   8
BRANCH   5  16
ATOM     16  C   UNL     1      48.496   7.616  13.158  0.00  0.00    +0.000 C 
BRANCH  16  17
ATOM     17  C   UNL     1      47.153   8.122  12.614  0.00  0.00    +0.000 C 
BRANCH  17  18
ATOM     18  N   UNL     1      45.979   7.589  13.306  0.00  0.00    +0.000 N 
ATOM     19  H   UNL     1      45.229   8.278  13.372  0.00  0.00    +0.000 HD
BRANCH  18  20
ATOM     20  C   UNL     1      45.509   6.373  12.760  0.00  0.00    +0.000 A 
ATOM     21  C   UNL     1      45.449   5.165  13.449  0.00  0.00    +0.000 A 
ATOM     22  N   UNL     1      44.955   4.007  12.959  0.00  0.00    +0.000 NA
ATOM     23  C   UNL     1      44.454   4.084  11.708  0.00  0.00    +0.000 A 
ATOM     24  N   UNL     1      44.412   5.192  10.944  0.00  0.00    +0.000 NA
ATOM     25  C   UNL     1      44.929   6.309  11.503  0.00  0.00    +0.000 A 
BRANCH  23  26
ATOM     26  C   UNL     1      43.871   2.802  11.150  0.00  0.00    +0.000 C 
ATOM     27  N   UNL     1      44.462   2.338   9.997  0.00  0.00    +0.000 N 
ATOM     28  O   UNL     1      42.943   2.193  11.665  0.00  0.00    +0.000 OA
ATOM     29  H   UNL     1      45.245   2.834   9.588  0.00  0.00    +0.000 HD
ATOM     30  H   UNL     1      44.133   1.472   9.594  0.00  0.00    +0.000 HD
ENDBRANCH  23  26
ENDBRANCH  18  20
ENDBRANCH  17  18
ENDBRANCH  16  17
ENDBRANCH   5  16
TORSDOF 7
ENDMDL
MODEL 9
REMARK VINA RESULT:    -6.488      3.383      5.535
REMARK INTER + INTRA:         -10.050
REMARK INTER:                  -9.177
REMARK INTRA:                  -0.873
REMARK UNBOUND:                -1.096
REMARK  Name = 
REMARK  8 active torsions:
REMARK  status: ('A' for Active; 'I' for Inactive)
REMARK    1  A    between atoms: C_1  and  C_2
REMARK    2  A    between atoms: C_2  and  C_3
REMARK    3  A    between atoms: C_7  and  C_8
REMARK    4  A    between atoms: C_8  and  C_9
REMARK    5  A    between atoms: C_9  and  N_10
REMARK    6  A    between atoms: N_10  and  C_11
REMARK    7  A    between atoms: C_14  and  C_15
REMARK    8  A    between atoms: C_23  and  O_24
REMARK                            x       y       z     vdW  Elec       q    Type
REMARK                         _______ _______ _______ _____ _____    ______ ____
ROOT
ATOM      1  C   UNL     1      47.093   6.458  12.338  0.00  0.00    +0.000 A 
ATOM      2  C   UNL     1      47.626   7.339  11.385  0.00  0.00    +0.000 A 
ATOM      3  C   UNL     1      48.812   8.040  11.635  0.00  0.00    +0.000 A 
ATOM      4  C   UNL     1      49.478   7.898  12.855  0.00  0.00    +0.000 A 
ATOM      5  C   UNL     1      48.981   7.027  13.826  0.00  0.00    +0.000 A 
ATOM      6  C   UNL     1      47.822   6.291  13.522  0.00  0.00    +0.000 A 
ENDROOT
BRANCH   1   8
ATOM      7  C   UNL     1      44.663   6.938  12.344  0.00  0.00    +0.000 C 
ATOM      8  C   UNL     1      45.703   5.805  12.156  0.00  0.00    +0.000 C 
ATOM      9  C   UNL     1      45.582   5.169  10.746  0.00  0.00    +0.000 C 
ATOM     10  C   UNL     1      44.263   4.426  10.524  0.00  0.00    +0.000 C 
ATOM     11  C   UNL     1      44.001   3.372  11.596  0.00  0.00    +0.000 C 
ATOM     12  C   UNL     1      44.088   3.958  13.000  0.00  0.00    +0.000 C 
ATOM     13  C   UNL     1      45.411   4.687  13.208  0.00  0.00    +0.000 C 
BRANCH  11  14
ATOM     14  O   UNL     1      42.715   2.798  11.405  0.00  0.00    +0.000 OA
ATOM     15  H   UNL     1      42.642   2.018  11.981  0.00  0.00    +0.000 HD
ENDBRANCH  11  14
ENDBRANCH   1   8
BRANCH   5  16
ATOM     16  C   UNL     1      49.639   6.951  15.198  0.00  0.00    +0.000 C 
BRANCH  16  17
ATOM     17  C   UNL     1      48.693   6.428  16.287  0.00  0.00    +0.000 C 
BRANCH  17  18
ATOM     18  N   UNL     1      49.347   6.119  17.561  0.00  0.00    +0.000 N 
ATOM     19  H   UNL     1      48.686   6.115  18.338  0.00  0.00    +0.000 HD
BRANCH  18  20
ATOM     20  C   UNL     1      50.106   4.928  17.528  0.00  0.00    +0.000 A 
ATOM     21  C   UNL     1      51.481   4.857  17.733  0.00  0.00    +0.000 A 
ATOM     22  N   UNL     1      52.212   3.722  17.757  0.00  0.00    +0.000 NA
ATOM     23  C   UNL     1      51.504   2.583  17.604  0.00  0.00    +0.000 A 
ATOM     24  N   UNL     1      50.171   2.502  17.436  0.00  0.00    +0.000 NA
ATOM     25  C   UNL     1      49.510   3.681  17.420  0.00  0.00    +0.000 A 
BRANCH  23  26
ATOM     26  C   UNL     1      52.303   1.297  17.654  0.00  0.00    +0.000 C 
ATOM     27  N   UNL     1      51.610   0.187  18.081  0.00  0.00    +0.000 N 
ATOM     28  O   UNL     1      53.483   1.213  17.339  0.00  0.00    +0.000 OA
ATOM     29  H   UNL     1      50.627   0.258  18.317  0.00  0.00    +0.000 HD
ATOM     30  H   UNL     1      52.084  -0.704  18.108  0.00  0.00    +0.000 HD
ENDBRANCH  23  26
ENDBRANCH  18  20
ENDBRANCH  17  18
ENDBRANCH  16  17
ENDBRANCH   5  16
TORSDOF 7
ENDMDL
