MODEL 1
REMARK VINA RESULT:    -7.746      0.000      0.000
REMARK INTER + INTRA:         -10.277
REMARK INTER:                  -9.557
REMARK INTRA:                  -0.720
REMARK UNBOUND:                -0.720
REMARK  Name = 
REMARK  5 active torsions:
REMARK  status: ('A' for Active; 'I' for Inactive)
REMARK    1  A    between atoms: C_1  and  C_2
REMARK    2  A    between atoms: C_7  and  C_8
REMARK    3  A    between atoms: C_8  and  N_9
REMARK    4  A    between atoms: N_9  and  C_10
REMARK    5  A    between atoms: C_13  and  C_14
REMARK                            x       y       z     vdW  Elec       q    Type
REMARK                         _______ _______ _______ _____ _____    ______ ____
ROOT
ATOM      1  C   UNL     1      44.518   3.903   9.076  0.00  0.00    +0.000 A 
ATOM      2  C   UNL     1      45.533   4.322   8.207  0.00  0.00    +0.000 A 
ATOM      3  C   UNL     1      46.408   3.398   7.625  0.00  0.00    +0.000 A 
ATOM      4  C   UNL     1      46.263   2.060   7.958  0.00  0.00    +0.000 A 
ATOM      5  N   UNL     1      45.326   1.600   8.827  0.00  0.00    +0.000 NA
ATOM      6  C   UNL     1      44.501   2.534   9.368  0.00  0.00    +0.000 A 
ENDROOT
BRANCH   4   7
ATOM      7  C   UNL     1      47.172   1.032   7.357  0.00  0.00    +0.000 C 
ATOM      8  N   UNL     1      46.842  -0.268   7.642  0.00  0.00    +0.000 N 
ATOM      9  O   UNL     1      48.138   1.318   6.661  0.00  0.00    +0.000 OA
ATOM     10  H   UNL     1      46.039  -0.456   8.229  0.00  0.00    +0.000 HD
ATOM     11  H   UNL     1      47.404  -1.024   7.280  0.00  0.00    +0.000 HD
ENDBRANCH   4   7
BRANCH   1  12
ATOM     12  N   UNL     1      43.705   4.856   9.701  0.00  0.00    +0.000 N 
ATOM     13  H   UNL     1      42.792   4.946   9.261  0.00  0.00    +0.000 HD
BRANCH  12  14
ATOM     14  C   UNL     1      43.591   4.852  11.162  0.00  0.00    +0.000 C 
BRANCH  14  21
ATOM     15  C   UNL     1      45.707   3.336  12.783  0.00  0.00    +0.000 C 
ATOM     16  C   UNL     1      45.790   4.814  12.518  0.00  0.00    +0.000 A 
ATOM     17  C   UNL     1      46.916   5.511  13.000  0.00  0.00    +0.000 A 
ATOM     18  C   UNL     1      47.074   6.875  12.767  0.00  0.00    +0.000 A 
ATOM     19  C   UNL     1      46.108   7.570  12.050  0.00  0.00    +0.000 A 
ATOM     20  C   UNL     1      44.985   6.897  11.568  0.00  0.00    +0.000 A 
ATOM     21  C   UNL     1      44.805   5.516  11.790  0.00  0.00    +0.000 A 
ENDBRANCH  14  21
ENDBRANCH  12  14
ENDBRANCH   1  12
TORSDOF 4
ENDMDL
MODEL 2
REMARK VINA RESULT:    -7.687      0.535      1.685
REMARK INTER + INTRA:         -10.204
REMARK INTER:                  -9.749
REMARK INTRA:                  -0.456
REMARK UNBOUND:                -0.720
REMARK  Name = 
REMARK  5 active torsions:
REMARK  status: ('A' for Active; 'I' for Inactive)
REMARK    1  A    between atoms: C_1  and  C_2
REMARK    2  A    between atoms: C_7  and  C_8
REMARK    3  A    between atoms: C_8  and  N_9
REMARK    4  A    between atoms: N_9  and  C_10
REMARK    5  A    between atoms: C_13  and  C_14
REMARK                            x       y       z     vdW  Elec       q    Type
REMARK                         _______ _______ _______ _____ _____    ______ ____
ROOT
ATOM      1  C   UNL     1      44.544   3.927   9.194  0.00  0.00    +0.000 A 
ATOM      2  C   UNL     1      45.550   4.339   8.311  0.00  0.00    +0.000 A 
ATOM      3  C   UNL     1      46.389   3.407   7.690  0.00  0.00    +0.000 A 
ATOM      4  C   UNL     1      46.217   2.066   7.997  0.00  0.00    +0.000 A 
ATOM      5  N   UNL     1      45.288   1.610   8.877  0.00  0.00    +0.000 NA
ATOM      6  C   UNL     1      44.499   2.552   9.456  0.00  0.00    +0.000 A 
ENDROOT
BRANCH   4   7
ATOM      7  C   UNL     1      47.086   1.028   7.354  0.00  0.00    +0.000 C 
ATOM      8  N   UNL     1      46.762  -0.268   7.660  0.00  0.00    +0.000 N 
ATOM      9  O   UNL     1      48.017   1.305   6.607  0.00  0.00    +0.000 OA
ATOM     10  H   UNL     1      45.989  -0.448   8.288  0.00  0.00    +0.000 HD
ATOM     11  H   UNL     1      47.299  -1.029   7.272  0.00  0.00    +0.000 HD
ENDBRANCH   4   7
BRANCH   1  12
ATOM     12  N   UNL     1      43.770   4.885   9.857  0.00  0.00    +0.000 N 
ATOM     13  H   UNL     1      42.901   5.096   9.372  0.00  0.00    +0.000 HD
BRANCH  12  14
ATOM     14  C   UNL     1      43.554   4.756  11.301  0.00  0.00    +0.000 C 
BRANCH  14  21
ATOM     15  C   UNL     1      44.772   7.561  11.530  0.00  0.00    +0.000 C 
ATOM     16  C   UNL     1      45.385   6.352  12.183  0.00  0.00    +0.000 A 
ATOM     17  C   UNL     1      46.539   6.537  12.968  0.00  0.00    +0.000 A 
ATOM     18  C   UNL     1      47.144   5.467  13.625  0.00  0.00    +0.000 A 
ATOM     19  C   UNL     1      46.606   4.192  13.508  0.00  0.00    +0.000 A 
ATOM     20  C   UNL     1      45.465   3.990  12.731  0.00  0.00    +0.000 A 
ATOM     21  C   UNL     1      44.835   5.057  12.059  0.00  0.00    +0.000 A 
ENDBRANCH  14  21
ENDBRANCH  12  14
ENDBRANCH   1  12
TORSDOF 4
ENDMDL
MODEL 3
REMARK VINA RESULT:    -6.949      3.074      5.806
REMARK INTER + INTRA:          -9.293
REMARK INTER:                  -8.778
REMARK INTRA:                  -0.515
REMARK UNBOUND:                -0.720
REMARK  Name = 
REMARK  5 active torsions:
REMARK  status: ('A' for Active; 'I' for Inactive)
REMARK    1  A    between atoms: C_1  and  C_2
REMARK    2  A    between atoms: C_7  and  C_8
REMARK    3  A    between atoms: C_8  and  N_9
REMARK    4  A    between atoms: N_9  and  C_10
REMARK    5  A    between atoms: C_13  and  C_14
REMARK                            x       y       z     vdW  Elec       q    Type
REMARK                         _______ _______ _______ _____ _____    ______ ____
ROOT
ATOM      1  C   UNL     1      45.454   5.204  11.148  0.00  0.00    +0.000 A 
ATOM      2  C   UNL     1      46.411   6.069  11.695  0.00  0.00    +0.000 A 
ATOM      3  C   UNL     1      46.972   5.818  12.953  0.00  0.00    +0.000 A 
ATOM      4  C   UNL     1      46.530   4.708  13.656  0.00  0.00    +0.000 A 
ATOM      5  N   UNL     1      45.574   3.859  13.197  0.00  0.00    +0.000 NA
ATOM      6  C   UNL     1      45.059   4.144  11.973  0.00  0.00    +0.000 A 
ENDROOT
BRANCH   4   7
ATOM      7  C   UNL     1      47.103   4.394  15.005  0.00  0.00    +0.000 C 
ATOM      8  N   UNL     1      47.520   5.484  15.724  0.00  0.00    +0.000 N 
ATOM      9  O   UNL     1      47.194   3.253  15.443  0.00  0.00    +0.000 OA
ATOM     10  H   UNL     1      47.432   6.406  15.317  0.00  0.00    +0.000 HD
ATOM     11  H   UNL     1      47.922   5.361  16.641  0.00  0.00    +0.000 HD
ENDBRANCH   4   7
BRANCH   1  12
ATOM     12  N   UNL     1      44.857   5.520   9.923  0.00  0.00    +0.000 N 
ATOM     13  H   UNL     1      45.424   6.148   9.357  0.00  0.00    +0.000 HD
BRANCH  12  14
ATOM     14  C   UNL     1      44.283   4.445   9.108  0.00  0.00    +0.000 C 
BRANCH  14  21
ATOM     15  C   UNL     1      44.503   1.392   9.291  0.00  0.00    +0.000 C 
ATOM     16  C   UNL     1      45.473   2.232   8.506  0.00  0.00    +0.000 A 
ATOM     17  C   UNL     1      46.492   1.573   7.792  0.00  0.00    +0.000 A 
ATOM     18  C   UNL     1      47.409   2.285   7.021  0.00  0.00    +0.000 A 
ATOM     19  C   UNL     1      47.325   3.669   6.951  0.00  0.00    +0.000 A 
ATOM     20  C   UNL     1      46.324   4.339   7.655  0.00  0.00    +0.000 A 
ATOM     21  C   UNL     1      45.384   3.640   8.440  0.00  0.00    +0.000 A 
ENDBRANCH  14  21
ENDBRANCH  12  14
ENDBRANCH   1  12
TORSDOF 4
ENDMDL
MODEL 4
REMARK VINA RESULT:    -6.593      3.004      6.392
REMARK INTER + INTRA:          -8.854
REMARK INTER:                  -8.330
REMARK INTRA:                  -0.524
REMARK UNBOUND:                -0.720
REMARK  Name = 
REMARK  5 active torsions:
REMARK  status: ('A' for Active; 'I' for Inactive)
REMARK    1  A    between atoms: C_1  and  C_2
REMARK    2  A    between atoms: C_7  and  C_8
REMARK    3  A    between atoms: C_8  and  N_9
REMARK    4  A    between atoms: N_9  and  C_10
REMARK    5  A    between atoms: C_13  and  C_14
REMARK                            x       y       z     vdW  Elec       q    Type
REMARK                         _______ _______ _______ _____ _____    ______ ____
ROOT
ATOM      1  C   UNL     1      44.948   4.188  11.365  0.00  0.00    +0.000 A 
ATOM      2  C   UNL     1      46.078   4.508  12.129  0.00  0.00    +0.000 A 
ATOM      3  C   UNL     1      46.287   5.812  12.594  0.00  0.00    +0.000 A 
ATOM      4  C   UNL     1      45.361   6.785  12.250  0.00  0.00    +0.000 A 
ATOM      5  N   UNL     1      44.271   6.544  11.476  0.00  0.00    +0.000 NA
ATOM      6  C   UNL     1      44.112   5.265  11.048  0.00  0.00    +0.000 A 
ENDROOT
BRANCH   4   7
ATOM      7  C   UNL     1      45.538   8.194  12.726  0.00  0.00    +0.000 C 
ATOM      8  N   UNL     1      46.475   8.358  13.714  0.00  0.00    +0.000 N 
ATOM      9  O   UNL     1      44.901   9.138  12.274  0.00  0.00    +0.000 OA
ATOM     10  H   UNL     1      46.971   7.547  14.062  0.00  0.00    +0.000 HD
ATOM     11  H   UNL     1      46.653   9.274  14.095  0.00  0.00    +0.000 HD
ENDBRANCH   4   7
BRANCH   1  12
ATOM     12  N   UNL     1      44.803   2.894  10.852  0.00  0.00    +0.000 N 
ATOM     13  H   UNL     1      44.331   2.265  11.497  0.00  0.00    +0.000 HD
BRANCH  12  14
ATOM     14  C   UNL     1      44.313   2.718   9.483  0.00  0.00    +0.000 C 
BRANCH  14  21
ATOM     15  C   UNL     1      46.060   4.810   8.077  0.00  0.00    +0.000 C 
ATOM     16  C   UNL     1      46.277   3.330   7.919  0.00  0.00    +0.000 A 
ATOM     17  C   UNL     1      47.360   2.901   7.128  0.00  0.00    +0.000 A 
ATOM     18  C   UNL     1      47.638   1.546   6.961  0.00  0.00    +0.000 A 
ATOM     19  C   UNL     1      46.838   0.595   7.580  0.00  0.00    +0.000 A 
ATOM     20  C   UNL     1      45.759   1.002   8.364  0.00  0.00    +0.000 A 
ATOM     21  C   UNL     1      45.459   2.367   8.549  0.00  0.00    +0.000 A 
ENDBRANCH  14  21
ENDBRANCH  12  14
ENDBRANCH   1  12
TORSDOF 4
ENDMDL
MODEL 5
REMARK VINA RESULT:    -6.405      3.778      6.310
REMARK INTER + INTRA:          -8.623
REMARK INTER:                  -8.195
REMARK INTRA:                  -0.428
REMARK UNBOUND:                -0.720
REMARK  Name = 
REMARK  5 active torsions:
REMARK  status: ('A' for Active; 'I' for Inactive)
REMARK    1  A    between atoms: C_1  and  C_2
REMARK    2  A    between atoms: C_7  and  C_8
REMARK    3  A    between atoms: C_8  and  N_9
REMARK    4  A    between atoms: N_9  and  C_10
REMARK    5  A    between atoms: C_13  and  C_14
REMARK                            x       y       z     vdW  Elec       q    Type
REMARK                         _______ _______ _______ _____ _____    ______ ____
ROOT
ATOM      1  C   UNL     1      46.409   5.764  12.684  0.00  0.00    +0.000 A 
ATOM      2  C   UNL     1      47.477   6.465  13.258  0.00  0.00    +0.000 A 
ATOM      3  C   UNL     1      48.004   6.085  14.497  0.00  0.00    +0.000 A 
ATOM      4  C   UNL     1      47.420   5.015  15.156  0.00  0.00    +0.000 A 
ATOM      5  N   UNL     1      46.355   4.324  14.671  0.00  0.00    +0.000 NA
ATOM      6  C   UNL     1      45.877   4.731  13.466  0.00  0.00    +0.000 A 
ENDROOT
BRANCH   4   7
ATOM      7  C   UNL     1      47.952   4.566  16.483  0.00  0.00    +0.000 C 
ATOM      8  N   UNL     1      47.132   4.822  17.552  0.00  0.00    +0.000 N 
ATOM      9  O   UNL     1      49.034   4.007  16.615  0.00  0.00    +0.000 OA
ATOM     10  H   UNL     1      46.250   5.293  17.394  0.00  0.00    +0.000 HD
ATOM     11  H   UNL     1      47.416   4.556  18.482  0.00  0.00    +0.000 HD
ENDBRANCH   4   7
BRANCH   1  12
ATOM     12  N   UNL     1      45.853   6.212  11.480  0.00  0.00    +0.000 N 
ATOM     13  H   UNL     1      46.538   6.281  10.731  0.00  0.00    +0.000 HD
BRANCH  12  14
ATOM     14  C   UNL     1      44.604   5.614  11.002  0.00  0.00    +0.000 C 
BRANCH  14  21
ATOM     15  C   UNL     1      43.541   2.762  11.377  0.00  0.00    +0.000 C 
ATOM     16  C   UNL     1      44.387   3.167  10.201  0.00  0.00    +0.000 A 
ATOM     17  C   UNL     1      44.654   2.199   9.214  0.00  0.00    +0.000 A 
ATOM     18  C   UNL     1      45.406   2.511   8.083  0.00  0.00    +0.000 A 
ATOM     19  C   UNL     1      45.906   3.797   7.919  0.00  0.00    +0.000 A 
ATOM     20  C   UNL     1      45.653   4.767   8.889  0.00  0.00    +0.000 A 
ATOM     21  C   UNL     1      44.894   4.475  10.040  0.00  0.00    +0.000 A 
ENDBRANCH  14  21
ENDBRANCH  12  14
ENDBRANCH   1  12
TORSDOF 4
ENDMDL
MODEL 6
REMARK VINA RESULT:    -5.994      2.918      6.355
REMARK INTER + INTRA:          -8.116
REMARK INTER:                  -8.413
REMARK INTRA:                   0.297
REMARK UNBOUND:                -0.720
REMARK  Name = 
REMARK  5 active torsions:
REMARK  status: ('A' for Active; 'I' for Inactive)
REMARK    1  A    between atoms: C_1  and  C_2
REMARK    2  A    between atoms: C_7  and  C_8
REMARK    3  A    between atoms: C_8  and  N_9
REMARK    4  A    between atoms: N_9  and  C_10
REMARK    5  A    between atoms: C_13  and  C_14
REMARK                            x       y       z     vdW  Elec       q    Type
REMARK                         _______ _______ _______ _____ _____    ______ ____
ROOT
ATOM      1  C   UNL     1      44.416   4.397   9.870  0.00  0.00    +0.000 A 
ATOM      2  C   UNL     1      43.431   4.846  10.758  0.00  0.00    +0.000 A 
ATOM      3  C   UNL     1      43.655   5.957  11.580  0.00  0.00    +0.000 A 
ATOM      4  C   UNL     1      44.891   6.582  11.511  0.00  0.00    +0.000 A 
ATOM      5  N   UNL     1      45.899   6.167  10.701  0.00  0.00    +0.000 NA
ATOM      6  C   UNL     1      45.635   5.083   9.925  0.00  0.00    +0.000 A 
ENDROOT
BRANCH   4   7
ATOM      7  C   UNL     1      45.178   7.779  12.366  0.00  0.00    +0.000 C 
ATOM      8  N   UNL     1      44.416   8.884  12.088  0.00  0.00    +0.000 N 
ATOM      9  O   UNL     1      46.025   7.781  13.251  0.00  0.00    +0.000 OA
ATOM     10  H   UNL     1      43.734   8.837  11.342  0.00  0.00    +0.000 HD
ATOM     11  H   UNL     1      44.548   9.734  12.614  0.00  0.00    +0.000 HD
ENDBRANCH   4   7
BRANCH   1  12
ATOM     12  N   UNL     1      44.192   3.240   9.115  0.00  0.00    +0.000 N 
ATOM     13  H   UNL     1      43.848   3.439   8.178  0.00  0.00    +0.000 HD
BRANCH  12  14
ATOM     14  C   UNL     1      45.215   2.191   9.093  0.00  0.00    +0.000 C 
BRANCH  14  21
ATOM     15  C   UNL     1      46.709  -0.167   7.824  0.00  0.00    +0.000 C 
ATOM     16  C   UNL     1      46.742   1.222   7.248  0.00  0.00    +0.000 A 
ATOM     17  C   UNL     1      47.454   1.424   6.049  0.00  0.00    +0.000 A 
ATOM     18  C   UNL     1      47.503   2.678   5.443  0.00  0.00    +0.000 A 
ATOM     19  C   UNL     1      46.844   3.753   6.025  0.00  0.00    +0.000 A 
ATOM     20  C   UNL     1      46.137   3.571   7.214  0.00  0.00    +0.000 A 
ATOM     21  C   UNL     1      46.072   2.312   7.844  0.00  0.00    +0.000 A 
ENDBRANCH  14  21
ENDBRANCH  12  14
ENDBRANCH   1  12
TORSDOF 4
ENDMDL
MODEL 7
REMARK VINA RESULT:    -5.969      3.482      6.099
REMARK INTER + INTRA:          -8.084
REMARK INTER:                  -7.605
REMARK INTRA:                  -0.479
REMARK UNBOUND:                -0.720
REMARK  Name = 
REMARK  5 active torsions:
REMARK  status: ('A' for Active; 'I' for Inactive)
REMARK    1  A    between atoms: C_1  and  C_2
REMARK    2  A    between atoms: C_7  and  C_8
REMARK    3  A    between atoms: C_8  and  N_9
REMARK    4  A    between atoms: N_9  and  C_10
REMARK    5  A    between atoms: C_13  and  C_14
REMARK                            x       y       z     vdW  Elec       q    Type
REMARK                         _______ _______ _______ _____ _____    ______ ____
ROOT
ATOM      1  C   UNL     1      46.106   6.288  11.702  0.00  0.00    +0.000 A 
ATOM      2  C   UNL     1      47.245   7.094  11.819  0.00  0.00    +0.000 A 
ATOM      3  C   UNL     1      48.053   7.038  12.961  0.00  0.00    +0.000 A 
ATOM      4  C   UNL     1      47.676   6.184  13.986  0.00  0.00    +0.000 A 
ATOM      5  N   UNL     1      46.560   5.411  13.948  0.00  0.00    +0.000 NA
ATOM      6  C   UNL     1      45.807   5.501  12.821  0.00  0.00    +0.000 A 
ENDROOT
BRANCH   4   7
ATOM      7  C   UNL     1      48.510   6.083  15.227  0.00  0.00    +0.000 C 
ATOM      8  N   UNL     1      47.896   5.469  16.288  0.00  0.00    +0.000 N 
ATOM      9  O   UNL     1      49.656   6.510  15.299  0.00  0.00    +0.000 OA
ATOM     10  H   UNL     1      46.945   5.140  16.184  0.00  0.00    +0.000 HD
ATOM     11  H   UNL     1      48.386   5.364  17.163  0.00  0.00    +0.000 HD
ENDBRANCH   4   7
BRANCH   1  12
ATOM     12  N   UNL     1      45.277   6.420  10.582  0.00  0.00    +0.000 N 
ATOM     13  H   UNL     1      45.791   6.655   9.736  0.00  0.00    +0.000 HD
BRANCH  12  14
ATOM     14  C   UNL     1      44.261   5.397  10.319  0.00  0.00    +0.000 C 
BRANCH  14  21
ATOM     15  C   UNL     1      43.776   2.449  11.012  0.00  0.00    +0.000 C 
ATOM     16  C   UNL     1      44.621   2.882   9.845  0.00  0.00    +0.000 A 
ATOM     17  C   UNL     1      45.168   1.883   9.017  0.00  0.00    +0.000 A 
ATOM     18  C   UNL     1      45.937   2.212   7.902  0.00  0.00    +0.000 A 
ATOM     19  C   UNL     1      46.175   3.545   7.596  0.00  0.00    +0.000 A 
ATOM     20  C   UNL     1      45.644   4.548   8.408  0.00  0.00    +0.000 A 
ATOM     21  C   UNL     1      44.862   4.240   9.540  0.00  0.00    +0.000 A 
ENDBRANCH  14  21
ENDBRANCH  12  14
ENDBRANCH   1  12
TORSDOF 4
ENDMDL
MODEL 8
REMARK VINA RESULT:    -5.786      3.758      6.019
REMARK INTER + INTRA:          -7.859
REMARK INTER:                  -7.380
REMARK INTRA:                  -0.478
REMARK UNBOUND:                -0.720
REMARK  Name = 
REMARK  5 active torsions:
REMARK  status: ('A' for Active; 'I' for Inactive)
REMARK    1  A    between atoms: C_1  and  C_2
REMARK    2  A    between atoms: C_7  and  C_8
REMARK    3  A    between atoms: C_8  and  N_9
REMARK    4  A    between atoms: N_9  and  C_10
REMARK    5  A    between atoms: C_13  and  C_14
REMARK                            x       y       z     vdW  Elec       q    Type
REMARK                         _______ _______ _______ _____ _____    ______ ____
ROOT
ATOM      1  C   UNL     1      46.274   6.183  12.647  0.00  0.00    +0.000 A 
ATOM      2  C   UNL     1      46.486   7.454  12.098  0.00  0.00    +0.000 A 
ATOM      3  C   UNL     1      47.755   8.044  12.121  0.00  0.00    +0.000 A 
ATOM      4  C   UNL     1      48.789   7.350  12.730  0.00  0.00    +0.000 A 
ATOM      5  N   UNL     1      48.634   6.134  13.316  0.00  0.00    +0.000 NA
ATOM      6  C   UNL     1      47.384   5.602  13.271  0.00  0.00    +0.000 A 
ENDROOT
BRANCH   4   7
ATOM      7  C   UNL     1      50.167   7.937  12.776  0.00  0.00    +0.000 C 
ATOM      8  N   UNL     1      51.005   7.523  11.773  0.00  0.00    +0.000 N 
ATOM      9  O   UNL     1      50.527   8.730  13.637  0.00  0.00    +0.000 OA
ATOM     10  H   UNL     1      50.665   6.860  11.089  0.00  0.00    +0.000 HD
ATOM     11  H   UNL     1      51.953   7.866  11.732  0.00  0.00    +0.000 HD
ENDBRANCH   4   7
BRANCH   1  12
ATOM     12  N   UNL     1      44.980   5.649  12.676  0.00  0.00    +0.000 N 
ATOM     13  H   UNL     1      44.454   5.933  13.500  0.00  0.00    +0.000 HD
BRANCH  12  14
ATOM     14  C   UNL     1      44.152   5.714  11.470  0.00  0.00    +0.000 C 
BRANCH  14  21
ATOM     15  C   UNL     1      43.353   2.764  11.719  0.00  0.00    +0.000 C 
ATOM     16  C   UNL     1      44.187   3.287  10.582  0.00  0.00    +0.000 A 
ATOM     17  C   UNL     1      44.570   2.384   9.571  0.00  0.00    +0.000 A 
ATOM     18  C   UNL     1      45.318   2.805   8.473  0.00  0.00    +0.000 A 
ATOM     19  C   UNL     1      45.698   4.137   8.367  0.00  0.00    +0.000 A 
ATOM     20  C   UNL     1      45.330   5.044   9.360  0.00  0.00    +0.000 A 
ATOM     21  C   UNL     1      44.572   4.642  10.479  0.00  0.00    +0.000 A 
ENDBRANCH  14  21
ENDBRANCH  12  14
ENDBRANCH   1  12
TORSDOF 4
ENDMDL
MODEL 9
REMARK VINA RESULT:    -5.627      4.276      6.223
REMARK INTER + INTRA:          -7.662
REMARK INTER:                  -7.219
REMARK INTRA:                  -0.444
REMARK UNBOUND:                -0.720
REMARK  Name = 
REMARK  5 active torsions:
REMARK  status: ('A' for Active; 'I' for Inactive)
REMARK    1  A    between atoms: C_1  and  C_2
REMARK    2  A    between atoms: C_7  and  C_8
REMARK    3  A    between atoms: C_8  and  N_9
REMARK    4  A    between atoms: N_9  and  C_10
REMARK    5  A    between atoms: C_13  and  C_14
REMARK                            x       y       z     vdW  Elec       q    Type
REMARK                         _______ _______ _______ _____ _____    ______ ____
ROOT
ATOM      1  C   UNL     1      46.619   4.951  13.959  0.00  0.00    +0.000 A 
ATOM      2  C   UNL     1      46.532   3.606  13.578  0.00  0.00    +0.000 A 
ATOM      3  C   UNL     1      45.717   3.213  12.510  0.00  0.00    +0.000 A 
ATOM      4  C   UNL     1      44.974   4.187  11.860  0.00  0.00    +0.000 A 
ATOM      5  N   UNL     1      44.985   5.500  12.213  0.00  0.00    +0.000 NA
ATOM      6  C   UNL     1      45.790   5.832  13.256  0.00  0.00    +0.000 A 
ENDROOT
BRANCH   4   7
ATOM      7  C   UNL     1      44.091   3.818  10.708  0.00  0.00    +0.000 C 
ATOM      8  N   UNL     1      43.851   4.831   9.815  0.00  0.00    +0.000 N 
ATOM      9  O   UNL     1      43.615   2.699  10.562  0.00  0.00    +0.000 OA
ATOM     10  H   UNL     1      44.259   5.741   9.982  0.00  0.00    +0.000 HD
ATOM     11  H   UNL     1      43.263   4.668   9.012  0.00  0.00    +0.000 HD
ENDBRANCH   4   7
BRANCH   1  12
ATOM     12  N   UNL     1      47.384   5.305  15.077  0.00  0.00    +0.000 N 
ATOM     13  H   UNL     1      47.381   6.306  15.257  0.00  0.00    +0.000 HD
BRANCH  12  14
ATOM     14  C   UNL     1      47.231   4.543  16.319  0.00  0.00    +0.000 C 
BRANCH  14  21
ATOM     15  C   UNL     1      49.446   6.080  17.780  0.00  0.00    +0.000 C 
ATOM     16  C   UNL     1      49.568   4.625  17.419  0.00  0.00    +0.000 A 
ATOM     17  C   UNL     1      50.732   3.939  17.817  0.00  0.00    +0.000 A 
ATOM     18  C   UNL     1      50.900   2.584  17.542  0.00  0.00    +0.000 A 
ATOM     19  C   UNL     1      49.908   1.888  16.863  0.00  0.00    +0.000 A 
ATOM     20  C   UNL     1      48.750   2.552  16.459  0.00  0.00    +0.000 A 
ATOM     21  C   UNL     1      48.557   3.923  16.727  0.00  0.00    +0.000 A 
ENDBRANCH  14  21
ENDBRANCH  12  14
ENDBRANCH   1  12
TORSDOF 4
ENDMDL
