MODEL 1
REMARK VINA RESULT:    -7.844      0.000      0.000
REMARK INTER + INTRA:         -11.496
REMARK INTER:                 -10.595
REMARK INTRA:                  -0.902
REMARK UNBOUND:                -0.902
REMARK  Name = 
REMARK  7 active torsions:
REMARK  status: ('A' for Active; 'I' for Inactive)
REMARK    1  A    between atoms: C_1  and  C_2
REMARK    2  A    between atoms: C_2  and  N_3
REMARK    3  A    between atoms: C_2  and  C_11
REMARK    4  A    between atoms: C_4  and  C_6
REMARK    5  A    between atoms: C_14  and  C_15
REMARK    6  A    between atoms: C_15  and  N_16
REMARK    7  A    between atoms: C_17  and  C_19
REMARK                            x       y       z     vdW  Elec       q    Type
REMARK                         _______ _______ _______ _____ _____    ______ ____
ROOT
ATOM      1  C   UNL     1      51.403   2.910  17.720  0.00  0.00    +0.000 A 
ATOM      2  C   UNL     1      50.766   4.107  18.091  0.00  0.00    +0.000 A 
ATOM      3  C   UNL     1      49.410   4.320  17.819  0.00  0.00    +0.000 A 
ATOM      4  C   UNL     1      48.651   3.337  17.173  0.00  0.00    +0.000 A 
ATOM      5  C   UNL     1      49.289   2.159  16.765  0.00  0.00    +0.000 A 
ATOM      6  C   UNL     1      50.643   1.939  17.050  0.00  0.00    +0.000 A 
ENDROOT
BRANCH   1   8
ATOM      7  C   UNL     1      53.190   3.671  19.270  0.00  0.00    +0.000 C 
ATOM      8  C   UNL     1      52.839   2.664  18.166  0.00  0.00    +0.000 C 
BRANCH   8   9
ATOM      9  N   UNL     1      53.084   1.296  18.585  0.00  0.00    +0.000 N 
ATOM     10  C   UNL     1      53.923   0.447  17.898  0.00  0.00    +0.000 C 
ATOM     11  O   UNL     1      54.519   0.766  16.873  0.00  0.00    +0.000 OA
ATOM     12  H   UNL     1      52.552   0.877  19.341  0.00  0.00    +0.000 HD
BRANCH  10  13
ATOM     13  C   UNL     1      54.062  -0.867  18.496  0.00  0.00    +0.000 A 
ATOM     14  N   UNL     1      55.200  -1.521  18.662  0.00  0.00    +0.000 NA
ATOM     15  C   UNL     1      54.848  -2.719  19.235  0.00  0.00    +0.000 A 
ATOM     16  C   UNL     1      53.489  -2.798  19.419  0.00  0.00    +0.000 A 
ATOM     17  N   UNL     1      53.001  -1.613  18.947  0.00  0.00    +0.000 N 
ATOM     18  H   UNL     1      52.034  -1.314  18.908  0.00  0.00    +0.000 HD
ENDBRANCH  10  13
ENDBRANCH   8   9
ENDBRANCH   1   8
BRANCH   4  19
ATOM     19  C   UNL     1      47.180   3.541  16.914  0.00  0.00    +0.000 C 
BRANCH  19  20
ATOM     20  N   UNL     1      46.954   4.562  15.922  0.00  0.00    +0.000 N 
ATOM     21  C   UNL     1      47.026   4.273  14.582  0.00  0.00    +0.000 C 
ATOM     22  O   UNL     1      47.239   3.135  14.174  0.00  0.00    +0.000 OA
ATOM     23  H   UNL     1      47.009   5.526  16.231  0.00  0.00    +0.000 HD
BRANCH  21  24
ATOM     24  C   UNL     1      46.774   5.384  13.655  0.00  0.00    +0.000 A 
ATOM     25  C   UNL     1      47.791   6.282  13.366  0.00  0.00    +0.000 A 
ATOM     26  S   UNL     1      47.348   7.476  12.233  0.00  0.00    +0.000 S 
ATOM     27  C   UNL     1      45.761   6.870  12.131  0.00  0.00    +0.000 A 
ATOM     28  N   UNL     1      44.834   7.467  11.334  0.00  0.00    +0.000 NA
ATOM     29  C   UNL     1      43.664   6.925  11.378  0.00  0.00    +0.000 A 
ATOM     30  N   UNL     1      43.339   5.834  12.143  0.00  0.00    +0.000 N 
ATOM     31  C   UNL     1      44.249   5.180  12.940  0.00  0.00    +0.000 A 
ATOM     32  O   UNL     1      43.935   4.182  13.581  0.00  0.00    +0.000 OA
ATOM     33  C   UNL     1      45.578   5.760  12.937  0.00  0.00    +0.000 A 
ATOM     34  H   UNL     1      42.406   5.450  12.128  0.00  0.00    +0.000 HD
ENDBRANCH  21  24
ENDBRANCH  19  20
ENDBRANCH   4  19
TORSDOF 6
ENDMDL
MODEL 2
REMARK VINA RESULT:    -7.587      4.795      9.505
REMARK INTER + INTRA:         -11.150
REMARK INTER:                 -10.850
REMARK INTRA:                  -0.300
REMARK UNBOUND:                -0.902
REMARK  Name = 
REMARK  7 active torsions:
REMARK  status: ('A' for Active; 'I' for Inactive)
REMARK    1  A    between atoms: C_1  and  C_2
REMARK    2  A    between atoms: C_2  and  N_3
REMARK    3  A    between atoms: C_2  and  C_11
REMARK    4  A    between atoms: C_4  and  C_6
REMARK    5  A    between atoms: C_14  and  C_15
REMARK    6  A    between atoms: C_15  and  N_16
REMARK    7  A    between atoms: C_17  and  C_19
REMARK                            x       y       z     vdW  Elec       q    Type
REMARK                         _______ _______ _______ _____ _____    ______ ____
ROOT
ATOM      1  C   UNL     1      45.307   4.355  12.323  0.00  0.00    +0.000 A 
ATOM      2  C   UNL     1      45.311   5.702  11.921  0.00  0.00    +0.000 A 
ATOM      3  C   UNL     1      46.224   6.615  12.460  0.00  0.00    +0.000 A 
ATOM      4  C   UNL     1      47.163   6.205  13.413  0.00  0.00    +0.000 A 
ATOM      5  C   UNL     1      47.138   4.874  13.847  0.00  0.00    +0.000 A 
ATOM      6  C   UNL     1      46.235   3.955  13.298  0.00  0.00    +0.000 A 
ENDROOT
BRANCH   1   8
ATOM      7  C   UNL     1      43.161   4.124  11.092  0.00  0.00    +0.000 C 
ATOM      8  C   UNL     1      44.395   3.368  11.605  0.00  0.00    +0.000 C 
BRANCH   8   9
ATOM      9  N   UNL     1      45.062   2.640  10.541  0.00  0.00    +0.000 N 
ATOM     10  C   UNL     1      45.250   3.168   9.283  0.00  0.00    +0.000 C 
ATOM     11  O   UNL     1      44.861   4.285   8.952  0.00  0.00    +0.000 OA
ATOM     12  H   UNL     1      45.313   1.662  10.653  0.00  0.00    +0.000 HD
BRANCH  10  13
ATOM     13  C   UNL     1      45.967   2.297   8.371  0.00  0.00    +0.000 A 
ATOM     14  N   UNL     1      46.008   0.976   8.441  0.00  0.00    +0.000 NA
ATOM     15  C   UNL     1      46.818   0.585   7.402  0.00  0.00    +0.000 A 
ATOM     16  C   UNL     1      47.273   1.671   6.695  0.00  0.00    +0.000 A 
ATOM     17  N   UNL     1      46.722   2.754   7.320  0.00  0.00    +0.000 N 
ATOM     18  H   UNL     1      46.843   3.731   7.086  0.00  0.00    +0.000 HD
ENDBRANCH  10  13
ENDBRANCH   8   9
ENDBRANCH   1   8
BRANCH   4  19
ATOM     19  C   UNL     1      48.177   7.173  13.967  0.00  0.00    +0.000 C 
BRANCH  19  20
ATOM     20  N   UNL     1      48.158   7.194  15.407  0.00  0.00    +0.000 N 
ATOM     21  C   UNL     1      49.274   6.855  16.134  0.00  0.00    +0.000 C 
ATOM     22  O   UNL     1      50.338   6.569  15.592  0.00  0.00    +0.000 OA
ATOM     23  H   UNL     1      47.250   7.198  15.857  0.00  0.00    +0.000 HD
BRANCH  21  24
ATOM     24  C   UNL     1      49.150   6.914  17.595  0.00  0.00    +0.000 A 
ATOM     25  C   UNL     1      49.263   8.134  18.246  0.00  0.00    +0.000 A 
ATOM     26  S   UNL     1      49.040   8.034  19.933  0.00  0.00    +0.000 S 
ATOM     27  C   UNL     1      48.841   6.344  19.862  0.00  0.00    +0.000 A 
ATOM     28  N   UNL     1      48.636   5.616  20.993  0.00  0.00    +0.000 NA
ATOM     29  C   UNL     1      48.537   4.345  20.798  0.00  0.00    +0.000 A 
ATOM     30  N   UNL     1      48.617   3.736  19.571  0.00  0.00    +0.000 N 
ATOM     31  C   UNL     1      48.793   4.433  18.398  0.00  0.00    +0.000 A 
ATOM     32  O   UNL     1      48.820   3.861  17.313  0.00  0.00    +0.000 OA
ATOM     33  C   UNL     1      48.926   5.867  18.566  0.00  0.00    +0.000 A 
ATOM     34  H   UNL     1      48.522   2.735  19.482  0.00  0.00    +0.000 HD
ENDBRANCH  21  24
ENDBRANCH  19  20
ENDBRANCH   4  19
TORSDOF 6
ENDMDL
MODEL 3
REMARK VINA RESULT:    -7.463      5.609      9.750
REMARK INTER + INTRA:         -10.982
REMARK INTER:                  -9.996
REMARK INTRA:                  -0.986
REMARK UNBOUND:                -0.902
REMARK  Name = 
REMARK  7 active torsions:
REMARK  status: ('A' for Active; 'I' for Inactive)
REMARK    1  A    between atoms: C_1  and  C_2
REMARK    2  A    between atoms: C_2  and  N_3
REMARK    3  A    between atoms: C_2  and  C_11
REMARK    4  A    between atoms: C_4  and  C_6
REMARK    5  A    between atoms: C_14  and  C_15
REMARK    6  A    between atoms: C_15  and  N_16
REMARK    7  A    between atoms: C_17  and  C_19
REMARK                            x       y       z     vdW  Elec       q    Type
REMARK                         _______ _______ _______ _____ _____    ______ ____
ROOT
ATOM      1  C   UNL     1      45.654   5.072  11.862  0.00  0.00    +0.000 A 
ATOM      2  C   UNL     1      46.256   6.257  11.402  0.00  0.00    +0.000 A 
ATOM      3  C   UNL     1      47.183   6.950  12.189  0.00  0.00    +0.000 A 
ATOM      4  C   UNL     1      47.538   6.474  13.457  0.00  0.00    +0.000 A 
ATOM      5  C   UNL     1      46.912   5.316  13.936  0.00  0.00    +0.000 A 
ATOM      6  C   UNL     1      45.995   4.614  13.144  0.00  0.00    +0.000 A 
ENDROOT
BRANCH   1   8
ATOM      7  C   UNL     1      43.504   5.101  10.616  0.00  0.00    +0.000 C 
ATOM      8  C   UNL     1      44.764   4.276  10.915  0.00  0.00    +0.000 C 
BRANCH   8   9
ATOM      9  N   UNL     1      45.442   3.867   9.699  0.00  0.00    +0.000 N 
ATOM     10  C   UNL     1      45.238   2.637   9.112  0.00  0.00    +0.000 C 
ATOM     11  O   UNL     1      44.482   1.785   9.570  0.00  0.00    +0.000 OA
ATOM     12  H   UNL     1      46.185   4.431   9.297  0.00  0.00    +0.000 HD
BRANCH  10  13
ATOM     13  C   UNL     1      45.983   2.431   7.884  0.00  0.00    +0.000 A 
ATOM     14  N   UNL     1      46.789   1.412   7.635  0.00  0.00    +0.000 NA
ATOM     15  C   UNL     1      47.290   1.647   6.377  0.00  0.00    +0.000 A 
ATOM     16  C   UNL     1      46.787   2.814   5.856  0.00  0.00    +0.000 A 
ATOM     17  N   UNL     1      45.955   3.302   6.824  0.00  0.00    +0.000 N 
ATOM     18  H   UNL     1      45.414   4.157   6.801  0.00  0.00    +0.000 HD
ENDBRANCH  10  13
ENDBRANCH   8   9
ENDBRANCH   1   8
BRANCH   4  19
ATOM     19  C   UNL     1      48.567   7.192  14.292  0.00  0.00    +0.000 C 
BRANCH  19  20
ATOM     20  N   UNL     1      48.246   7.131  15.695  0.00  0.00    +0.000 N 
ATOM     21  C   UNL     1      49.075   6.488  16.582  0.00  0.00    +0.000 C 
ATOM     22  O   UNL     1      50.137   5.984  16.229  0.00  0.00    +0.000 OA
ATOM     23  H   UNL     1      47.288   7.330  15.959  0.00  0.00    +0.000 HD
BRANCH  21  24
ATOM     24  C   UNL     1      48.658   6.488  17.990  0.00  0.00    +0.000 A 
ATOM     25  C   UNL     1      48.725   5.314  18.726  0.00  0.00    +0.000 A 
ATOM     26  S   UNL     1      48.257   5.500  20.355  0.00  0.00    +0.000 S 
ATOM     27  C   UNL     1      47.893   7.146  20.121  0.00  0.00    +0.000 A 
ATOM     28  N   UNL     1      47.409   7.907  21.139  0.00  0.00    +0.000 NA
ATOM     29  C   UNL     1      47.144   9.127  20.814  0.00  0.00    +0.000 A 
ATOM     30  N   UNL     1      47.328   9.658  19.562  0.00  0.00    +0.000 N 
ATOM     31  C   UNL     1      47.843   8.936  18.511  0.00  0.00    +0.000 A 
ATOM     32  O   UNL     1      48.033   9.452  17.414  0.00  0.00    +0.000 OA
ATOM     33  C   UNL     1      48.143   7.552  18.822  0.00  0.00    +0.000 A 
ATOM     34  H   UNL     1      47.109  10.625  19.372  0.00  0.00    +0.000 HD
ENDBRANCH  21  24
ENDBRANCH  19  20
ENDBRANCH   4  19
TORSDOF 6
ENDMDL
MODEL 4
REMARK VINA RESULT:    -7.331      1.613      2.590
REMARK INTER + INTRA:         -10.804
REMARK INTER:                  -9.556
REMARK INTRA:                  -1.248
REMARK UNBOUND:                -0.902
REMARK  Name = 
REMARK  7 active torsions:
REMARK  status: ('A' for Active; 'I' for Inactive)
REMARK    1  A    between atoms: C_1  and  C_2
REMARK    2  A    between atoms: C_2  and  N_3
REMARK    3  A    between atoms: C_2  and  C_11
REMARK    4  A    between atoms: C_4  and  C_6
REMARK    5  A    between atoms: C_14  and  C_15
REMARK    6  A    between atoms: C_15  and  N_16
REMARK    7  A    between atoms: C_17  and  C_19
REMARK                            x       y       z     vdW  Elec       q    Type
REMARK                         _______ _______ _______ _____ _____    ______ ____
ROOT
ATOM      1  C   UNL     1      51.392   2.986  17.919  0.00  0.00    +0.000 A 
ATOM      2  C   UNL     1      50.597   2.005  17.301  0.00  0.00    +0.000 A 
ATOM      3  C   UNL     1      49.252   2.247  16.999  0.00  0.00    +0.000 A 
ATOM      4  C   UNL     1      48.666   3.482  17.303  0.00  0.00    +0.000 A 
ATOM      5  C   UNL     1      49.441   4.448  17.955  0.00  0.00    +0.000 A 
ATOM      6  C   UNL     1      50.791   4.212  18.245  0.00  0.00    +0.000 A 
ENDROOT
BRANCH   1   8
ATOM      7  C   UNL     1      53.451   3.782  19.058  0.00  0.00    +0.000 C 
ATOM      8  C   UNL     1      52.883   2.730  18.095  0.00  0.00    +0.000 C 
BRANCH   8   9
ATOM      9  N   UNL     1      53.186   1.380  18.532  0.00  0.00    +0.000 N 
ATOM     10  C   UNL     1      53.970   0.518  17.797  0.00  0.00    +0.000 C 
ATOM     11  O   UNL     1      54.463   0.811  16.711  0.00  0.00    +0.000 OA
ATOM     12  H   UNL     1      52.733   0.979  19.347  0.00  0.00    +0.000 HD
BRANCH  10  13
ATOM     13  C   UNL     1      54.183  -0.774  18.420  0.00  0.00    +0.000 A 
ATOM     14  N   UNL     1      54.302  -0.992  19.719  0.00  0.00    +0.000 NA
ATOM     15  C   UNL     1      54.516  -2.344  19.842  0.00  0.00    +0.000 A 
ATOM     16  C   UNL     1      54.527  -2.955  18.611  0.00  0.00    +0.000 A 
ATOM     17  N   UNL     1      54.312  -1.945  17.715  0.00  0.00    +0.000 N 
ATOM     18  H   UNL     1      54.266  -2.013  16.706  0.00  0.00    +0.000 HD
ENDBRANCH  10  13
ENDBRANCH   8   9
ENDBRANCH   1   8
BRANCH   4  19
ATOM     19  C   UNL     1      47.229   3.765  16.943  0.00  0.00    +0.000 C 
BRANCH  19  20
ATOM     20  N   UNL     1      47.131   4.702  15.853  0.00  0.00    +0.000 N 
ATOM     21  C   UNL     1      47.158   4.273  14.548  0.00  0.00    +0.000 C 
ATOM     22  O   UNL     1      47.219   3.081  14.258  0.00  0.00    +0.000 OA
ATOM     23  H   UNL     1      47.313   5.676  16.064  0.00  0.00    +0.000 HD
BRANCH  21  24
ATOM     24  C   UNL     1      47.046   5.308  13.513  0.00  0.00    +0.000 A 
ATOM     25  C   UNL     1      46.063   5.203  12.540  0.00  0.00    +0.000 A 
ATOM     26  S   UNL     1      46.036   6.513  11.449  0.00  0.00    +0.000 S 
ATOM     27  C   UNL     1      47.376   7.241  12.205  0.00  0.00    +0.000 A 
ATOM     28  N   UNL     1      47.894   8.409  11.738  0.00  0.00    +0.000 NA
ATOM     29  C   UNL     1      48.928   8.831  12.383  0.00  0.00    +0.000 A 
ATOM     30  N   UNL     1      49.488   8.192  13.460  0.00  0.00    +0.000 N 
ATOM     31  C   UNL     1      48.982   7.027  13.987  0.00  0.00    +0.000 A 
ATOM     32  O   UNL     1      49.483   6.503  14.977  0.00  0.00    +0.000 OA
ATOM     33  C   UNL     1      47.826   6.503  13.286  0.00  0.00    +0.000 A 
ATOM     34  H   UNL     1      50.294   8.578  13.930  0.00  0.00    +0.000 HD
ENDBRANCH  21  24
ENDBRANCH  19  20
ENDBRANCH   4  19
TORSDOF 6
ENDMDL
MODEL 5
REMARK VINA RESULT:    -7.292      3.695      9.795
REMARK INTER + INTRA:         -10.751
REMARK INTER:                  -9.778
REMARK INTRA:                  -0.974
REMARK UNBOUND:                -0.902
REMARK  Name = 
REMARK  7 active torsions:
REMARK  status: ('A' for Active; 'I' for Inactive)
REMARK    1  A    between atoms: C_1  and  C_2
REMARK    2  A    between atoms: C_2  and  N_3
REMARK    3  A    between atoms: C_2  and  C_11
REMARK    4  A    between atoms: C_4  and  C_6
REMARK    5  A    between atoms: C_14  and  C_15
REMARK    6  A    between atoms: C_15  and  N_16
REMARK    7  A    between atoms: C_17  and  C_19
REMARK                            x       y       z     vdW  Elec       q    Type
REMARK                         _______ _______ _______ _____ _____    ______ ____
ROOT
ATOM      1  C   UNL     1      46.150   5.549  12.433  0.00  0.00    +0.000 A 
ATOM      2  C   UNL     1      46.571   4.859  13.583  0.00  0.00    +0.000 A 
ATOM      3  C   UNL     1      47.435   5.455  14.509  0.00  0.00    +0.000 A 
ATOM      4  C   UNL     1      47.897   6.762  14.312  0.00  0.00    +0.000 A 
ATOM      5  C   UNL     1      47.513   7.439  13.148  0.00  0.00    +0.000 A 
ATOM      6  C   UNL     1      46.637   6.849  12.229  0.00  0.00    +0.000 A 
ENDROOT
BRANCH   1   8
ATOM      7  C   UNL     1      43.953   5.919  11.332  0.00  0.00    +0.000 C 
ATOM      8  C   UNL     1      45.097   4.915  11.532  0.00  0.00    +0.000 C 
BRANCH   8   9
ATOM      9  N   UNL     1      45.633   4.448  10.265  0.00  0.00    +0.000 N 
ATOM     10  C   UNL     1      45.166   3.317   9.633  0.00  0.00    +0.000 C 
ATOM     11  O   UNL     1      44.274   2.606  10.088  0.00  0.00    +0.000 OA
ATOM     12  H   UNL     1      46.456   4.877   9.855  0.00  0.00    +0.000 HD
BRANCH  10  13
ATOM     13  C   UNL     1      45.807   3.037   8.362  0.00  0.00    +0.000 A 
ATOM     14  N   UNL     1      45.980   3.905   7.380  0.00  0.00    +0.000 NA
ATOM     15  C   UNL     1      46.598   3.198   6.376  0.00  0.00    +0.000 A 
ATOM     16  C   UNL     1      46.803   1.891   6.748  0.00  0.00    +0.000 A 
ATOM     17  N   UNL     1      46.297   1.803   8.014  0.00  0.00    +0.000 N 
ATOM     18  H   UNL     1      46.260   0.985   8.610  0.00  0.00    +0.000 HD
ENDBRANCH  10  13
ENDBRANCH   8   9
ENDBRANCH   1   8
BRANCH   4  19
ATOM     19  C   UNL     1      48.794   7.426  15.326  0.00  0.00    +0.000 C 
BRANCH  19  20
ATOM     20  N   UNL     1      49.837   6.538  15.772  0.00  0.00    +0.000 N 
ATOM     21  C   UNL     1      49.828   6.020  17.044  0.00  0.00    +0.000 C 
ATOM     22  O   UNL     1      48.915   6.251  17.832  0.00  0.00    +0.000 OA
ATOM     23  H   UNL     1      50.695   6.525  15.232  0.00  0.00    +0.000 HD
BRANCH  21  24
ATOM     24  C   UNL     1      50.934   5.121  17.396  0.00  0.00    +0.000 A 
ATOM     25  C   UNL     1      52.149   5.654  17.805  0.00  0.00    +0.000 A 
ATOM     26  S   UNL     1      53.306   4.476  18.228  0.00  0.00    +0.000 S 
ATOM     27  C   UNL     1      52.244   3.208  17.825  0.00  0.00    +0.000 A 
ATOM     28  N   UNL     1      52.632   1.909  17.936  0.00  0.00    +0.000 NA
ATOM     29  C   UNL     1      51.741   1.053  17.565  0.00  0.00    +0.000 A 
ATOM     30  N   UNL     1      50.492   1.379  17.101  0.00  0.00    +0.000 N 
ATOM     31  C   UNL     1      50.045   2.676  17.001  0.00  0.00    +0.000 A 
ATOM     32  O   UNL     1      48.908   2.932  16.619  0.00  0.00    +0.000 OA
ATOM     33  C   UNL     1      51.017   3.679  17.391  0.00  0.00    +0.000 A 
ATOM     34  H   UNL     1      49.835   0.662  16.834  0.00  0.00    +0.000 HD
ENDBRANCH  21  24
ENDBRANCH  19  20
ENDBRANCH   4  19
TORSDOF 6
ENDMDL
MODEL 6
REMARK VINA RESULT:    -7.270      5.696      9.733
REMARK INTER + INTRA:         -10.721
REMARK INTER:                  -9.897
REMARK INTRA:                  -0.825
REMARK UNBOUND:                -0.902
REMARK  Name = 
REMARK  7 active torsions:
REMARK  status: ('A' for Active; 'I' for Inactive)
REMARK    1  A    between atoms: C_1  and  C_2
REMARK    2  A    between atoms: C_2  and  N_3
REMARK    3  A    between atoms: C_2  and  C_11
REMARK    4  A    between atoms: C_4  and  C_6
REMARK    5  A    between atoms: C_14  and  C_15
REMARK    6  A    between atoms: C_15  and  N_16
REMARK    7  A    between atoms: C_17  and  C_19
REMARK                            x       y       z     vdW  Elec       q    Type
REMARK                         _______ _______ _______ _____ _____    ______ ____
ROOT
ATOM      1  C   UNL     1      45.459   6.147  11.975  0.00  0.00    +0.000 A 
ATOM      2  C   UNL     1      46.749   5.870  12.459  0.00  0.00    +0.000 A 
ATOM      3  C   UNL     1      47.503   6.851  13.112  0.00  0.00    +0.000 A 
ATOM      4  C   UNL     1      46.984   8.137  13.304  0.00  0.00    +0.000 A 
ATOM      5  C   UNL     1      45.715   8.430  12.789  0.00  0.00    +0.000 A 
ATOM      6  C   UNL     1      44.954   7.445  12.148  0.00  0.00    +0.000 A 
ENDROOT
BRANCH   1   8
ATOM      7  C   UNL     1      43.249   5.567  10.997  0.00  0.00    +0.000 C 
ATOM      8  C   UNL     1      44.621   5.010  11.402  0.00  0.00    +0.000 C 
BRANCH   8   9
ATOM      9  N   UNL     1      45.269   4.318  10.301  0.00  0.00    +0.000 N 
ATOM     10  C   UNL     1      44.833   3.099   9.830  0.00  0.00    +0.000 C 
ATOM     11  O   UNL     1      43.877   2.492  10.305  0.00  0.00    +0.000 OA
ATOM     12  H   UNL     1      46.144   4.656   9.913  0.00  0.00    +0.000 HD
BRANCH  10  13
ATOM     13  C   UNL     1      45.592   2.589   8.704  0.00  0.00    +0.000 A 
ATOM     14  N   UNL     1      45.966   1.332   8.535  0.00  0.00    +0.000 NA
ATOM     15  C   UNL     1      46.677   1.321   7.359  0.00  0.00    +0.000 A 
ATOM     16  C   UNL     1      46.736   2.578   6.807  0.00  0.00    +0.000 A 
ATOM     17  N   UNL     1      46.040   3.375   7.672  0.00  0.00    +0.000 N 
ATOM     18  H   UNL     1      45.879   4.372   7.601  0.00  0.00    +0.000 HD
ENDBRANCH  10  13
ENDBRANCH   8   9
ENDBRANCH   1   8
BRANCH   4  19
ATOM     19  C   UNL     1      47.773   9.187  14.044  0.00  0.00    +0.000 C 
BRANCH  19  20
ATOM     20  N   UNL     1      47.565   9.101  15.467  0.00  0.00    +0.000 N 
ATOM     21  C   UNL     1      48.512   8.537  16.287  0.00  0.00    +0.000 C 
ATOM     22  O   UNL     1      49.585   8.127  15.853  0.00  0.00    +0.000 OA
ATOM     23  H   UNL     1      46.616   9.216  15.802  0.00  0.00    +0.000 HD
BRANCH  21  24
ATOM     24  C   UNL     1      48.204   8.504  17.722  0.00  0.00    +0.000 A 
ATOM     25  C   UNL     1      48.117   9.692  18.433  0.00  0.00    +0.000 A 
ATOM     26  S   UNL     1      47.699   9.479  20.072  0.00  0.00    +0.000 S 
ATOM     27  C   UNL     1      47.675   7.785  19.904  0.00  0.00    +0.000 A 
ATOM     28  N   UNL     1      47.403   6.980  20.967  0.00  0.00    +0.000 NA
ATOM     29  C   UNL     1      47.452   5.718  20.706  0.00  0.00    +0.000 A 
ATOM     30  N   UNL     1      47.741   5.187  19.475  0.00  0.00    +0.000 N 
ATOM     31  C   UNL     1      47.992   5.961  18.365  0.00  0.00    +0.000 A 
ATOM     32  O   UNL     1      48.208   5.454  17.269  0.00  0.00    +0.000 OA
ATOM     33  C   UNL     1      47.964   7.389  18.610  0.00  0.00    +0.000 A 
ATOM     34  H   UNL     1      47.755   4.188  19.331  0.00  0.00    +0.000 HD
ENDBRANCH  21  24
ENDBRANCH  19  20
ENDBRANCH   4  19
TORSDOF 6
ENDMDL
MODEL 7
REMARK VINA RESULT:    -6.924      3.313      9.816
REMARK INTER + INTRA:         -10.254
REMARK INTER:                  -9.321
REMARK INTRA:                  -0.932
REMARK UNBOUND:                -0.902
REMARK  Name = 
REMARK  7 active torsions:
REMARK  status: ('A' for Active; 'I' for Inactive)
REMARK    1  A    between atoms: C_1  and  C_2
REMARK    2  A    between atoms: C_2  and  N_3
REMARK    3  A    between atoms: C_2  and  C_11
REMARK    4  A    between atoms: C_4  and  C_6
REMARK    5  A    between atoms: C_14  and  C_15
REMARK    6  A    between atoms: C_15  and  N_16
REMARK    7  A    between atoms: C_17  and  C_19
REMARK                            x       y       z     vdW  Elec       q    Type
REMARK                         _______ _______ _______ _____ _____    ______ ____
ROOT
ATOM      1  C   UNL     1      47.718   5.819  14.603  0.00  0.00    +0.000 A 
ATOM      2  C   UNL     1      48.617   6.290  15.577  0.00  0.00    +0.000 A 
ATOM      3  C   UNL     1      48.880   5.552  16.736  0.00  0.00    +0.000 A 
ATOM      4  C   UNL     1      48.255   4.318  16.952  0.00  0.00    +0.000 A 
ATOM      5  C   UNL     1      47.329   3.862  16.006  0.00  0.00    +0.000 A 
ATOM      6  C   UNL     1      47.075   4.593  14.838  0.00  0.00    +0.000 A 
ENDROOT
BRANCH   1   8
ATOM      7  C   UNL     1      48.958   7.094  12.869  0.00  0.00    +0.000 C 
ATOM      8  C   UNL     1      47.574   6.584  13.294  0.00  0.00    +0.000 C 
BRANCH   8   9
ATOM      9  N   UNL     1      46.940   5.809  12.243  0.00  0.00    +0.000 N 
ATOM     10  C   UNL     1      45.608   5.946  11.919  0.00  0.00    +0.000 C 
ATOM     11  O   UNL     1      44.847   6.718  12.495  0.00  0.00    +0.000 OA
ATOM     12  H   UNL     1      47.431   5.048  11.783  0.00  0.00    +0.000 HD
BRANCH  10  13
ATOM     13  C   UNL     1      45.172   5.107  10.820  0.00  0.00    +0.000 A 
ATOM     14  N   UNL     1      44.498   3.974  10.935  0.00  0.00    +0.000 NA
ATOM     15  C   UNL     1      44.331   3.520   9.649  0.00  0.00    +0.000 A 
ATOM     16  C   UNL     1      44.905   4.379   8.744  0.00  0.00    +0.000 A 
ATOM     17  N   UNL     1      45.435   5.385   9.501  0.00  0.00    +0.000 N 
ATOM     18  H   UNL     1      45.949   6.196   9.180  0.00  0.00    +0.000 HD
ENDBRANCH  10  13
ENDBRANCH   8   9
ENDBRANCH   1   8
BRANCH   4  19
ATOM     19  C   UNL     1      48.565   3.498  18.178  0.00  0.00    +0.000 C 
BRANCH  19  20
ATOM     20  N   UNL     1      49.972   3.202  18.276  0.00  0.00    +0.000 N 
ATOM     21  C   UNL     1      50.569   2.315  17.415  0.00  0.00    +0.000 C 
ATOM     22  O   UNL     1      49.946   1.776  16.504  0.00  0.00    +0.000 OA
ATOM     23  H   UNL     1      50.436   3.450  19.143  0.00  0.00    +0.000 HD
BRANCH  21  24
ATOM     24  C   UNL     1      52.008   2.089  17.597  0.00  0.00    +0.000 A 
ATOM     25  C   UNL     1      52.496   0.792  17.672  0.00  0.00    +0.000 A 
ATOM     26  S   UNL     1      54.191   0.706  17.829  0.00  0.00    +0.000 S 
ATOM     27  C   UNL     1      54.330   2.402  17.860  0.00  0.00    +0.000 A 
ATOM     28  N   UNL     1      55.542   3.002  18.005  0.00  0.00    +0.000 NA
ATOM     29  C   UNL     1      55.498   4.291  18.047  0.00  0.00    +0.000 A 
ATOM     30  N   UNL     1      54.350   5.035  17.950  0.00  0.00    +0.000 N 
ATOM     31  C   UNL     1      53.106   4.474  17.773  0.00  0.00    +0.000 A 
ATOM     32  O   UNL     1      52.104   5.170  17.649  0.00  0.00    +0.000 OA
ATOM     33  C   UNL     1      53.100   3.024  17.735  0.00  0.00    +0.000 A 
ATOM     34  H   UNL     1      54.381   6.043  17.981  0.00  0.00    +0.000 HD
ENDBRANCH  21  24
ENDBRANCH  19  20
ENDBRANCH   4  19
TORSDOF 6
ENDMDL
MODEL 8
REMARK VINA RESULT:    -6.898      3.350      4.847
REMARK INTER + INTRA:         -10.219
REMARK INTER:                  -9.189
REMARK INTRA:                  -1.030
REMARK UNBOUND:                -0.902
REMARK  Name = 
REMARK  7 active torsions:
REMARK  status: ('A' for Active; 'I' for Inactive)
REMARK    1  A    between atoms: C_1  and  C_2
REMARK    2  A    between atoms: C_2  and  N_3
REMARK    3  A    between atoms: C_2  and  C_11
REMARK    4  A    between atoms: C_4  and  C_6
REMARK    5  A    between atoms: C_14  and  C_15
REMARK    6  A    between atoms: C_15  and  N_16
REMARK    7  A    between atoms: C_17  and  C_19
REMARK                            x       y       z     vdW  Elec       q    Type
REMARK                         _______ _______ _______ _____ _____    ______ ____
ROOT
ATOM      1  C   UNL     1      51.409   4.312  17.716  0.00  0.00    +0.000 A 
ATOM      2  C   UNL     1      51.003   2.976  17.552  0.00  0.00    +0.000 A 
ATOM      3  C   UNL     1      49.681   2.656  17.224  0.00  0.00    +0.000 A 
ATOM      4  C   UNL     1      48.727   3.666  17.046  0.00  0.00    +0.000 A 
ATOM      5  C   UNL     1      49.116   4.996  17.248  0.00  0.00    +0.000 A 
ATOM      6  C   UNL     1      50.442   5.318  17.562  0.00  0.00    +0.000 A 
ENDROOT
BRANCH   1   8
ATOM      7  C   UNL     1      53.621   3.306  18.234  0.00  0.00    +0.000 C 
ATOM      8  C   UNL     1      52.886   4.619  17.929  0.00  0.00    +0.000 C 
BRANCH   8   9
ATOM      9  N   UNL     1      53.490   5.329  16.817  0.00  0.00    +0.000 N 
ATOM     10  C   UNL     1      53.844   6.659  16.887  0.00  0.00    +0.000 C 
ATOM     11  O   UNL     1      53.667   7.354  17.884  0.00  0.00    +0.000 OA
ATOM     12  H   UNL     1      53.569   4.899  15.900  0.00  0.00    +0.000 HD
BRANCH  10  13
ATOM     13  C   UNL     1      54.464   7.176  15.683  0.00  0.00    +0.000 A 
ATOM     14  N   UNL     1      55.308   8.194  15.628  0.00  0.00    +0.000 NA
ATOM     15  C   UNL     1      55.609   8.342  14.296  0.00  0.00    +0.000 A 
ATOM     16  C   UNL     1      54.947   7.410  13.534  0.00  0.00    +0.000 A 
ATOM     17  N   UNL     1      54.224   6.674  14.429  0.00  0.00    +0.000 N 
ATOM     18  H   UNL     1      53.601   5.900  14.232  0.00  0.00    +0.000 HD
ENDBRANCH  10  13
ENDBRANCH   8   9
ENDBRANCH   1   8
BRANCH   4  19
ATOM     19  C   UNL     1      47.311   3.331  16.652  0.00  0.00    +0.000 C 
BRANCH  19  20
ATOM     20  N   UNL     1      46.767   4.313  15.748  0.00  0.00    +0.000 N 
ATOM     21  C   UNL     1      46.776   4.105  14.390  0.00  0.00    +0.000 C 
ATOM     22  O   UNL     1      47.201   3.064  13.896  0.00  0.00    +0.000 OA
ATOM     23  H   UNL     1      46.632   5.250  16.111  0.00  0.00    +0.000 HD
BRANCH  21  24
ATOM     24  C   UNL     1      46.193   5.165  13.559  0.00  0.00    +0.000 A 
ATOM     25  C   UNL     1      46.874   6.363  13.395  0.00  0.00    +0.000 A 
ATOM     26  S   UNL     1      46.086   7.462  12.358  0.00  0.00    +0.000 S 
ATOM     27  C   UNL     1      44.775   6.398  12.135  0.00  0.00    +0.000 A 
ATOM     28  N   UNL     1      43.715   6.747  11.357  0.00  0.00    +0.000 NA
ATOM     29  C   UNL     1      42.778   5.863  11.303  0.00  0.00    +0.000 A 
ATOM     30  N   UNL     1      42.810   4.654  11.952  0.00  0.00    +0.000 N 
ATOM     31  C   UNL     1      43.873   4.245  12.724  0.00  0.00    +0.000 A 
ATOM     32  O   UNL     1      43.886   3.141  13.258  0.00  0.00    +0.000 OA
ATOM     33  C   UNL     1      44.947   5.213  12.829  0.00  0.00    +0.000 A 
ATOM     34  H   UNL     1      42.048   3.998  11.864  0.00  0.00    +0.000 HD
ENDBRANCH  21  24
ENDBRANCH  19  20
ENDBRANCH   4  19
TORSDOF 6
ENDMDL
MODEL 9
REMARK VINA RESULT:    -6.547      2.587      3.597
REMARK INTER + INTRA:          -9.745
REMARK INTER:                  -8.824
REMARK INTRA:                  -0.921
REMARK UNBOUND:                -0.902
REMARK  Name = 
REMARK  7 active torsions:
REMARK  status: ('A' for Active; 'I' for Inactive)
REMARK    1  A    between atoms: C_1  and  C_2
REMARK    2  A    between atoms: C_2  and  N_3
REMARK    3  A    between atoms: C_2  and  C_11
REMARK    4  A    between atoms: C_4  and  C_6
REMARK    5  A    between atoms: C_14  and  C_15
REMARK    6  A    between atoms: C_15  and  N_16
REMARK    7  A    between atoms: C_17  and  C_19
REMARK                            x       y       z     vdW  Elec       q    Type
REMARK                         _______ _______ _______ _____ _____    ______ ____
ROOT
ATOM      1  C   UNL     1      50.138   5.864  18.214  0.00  0.00    +0.000 A 
ATOM      2  C   UNL     1      48.908   6.545  18.232  0.00  0.00    +0.000 A 
ATOM      3  C   UNL     1      48.514   7.357  17.162  0.00  0.00    +0.000 A 
ATOM      4  C   UNL     1      49.339   7.506  16.041  0.00  0.00    +0.000 A 
ATOM      5  C   UNL     1      50.583   6.863  16.035  0.00  0.00    +0.000 A 
ATOM      6  C   UNL     1      50.971   6.039  17.098  0.00  0.00    +0.000 A 
ENDROOT
BRANCH   1   8
ATOM      7  C   UNL     1      49.146   4.464  20.010  0.00  0.00    +0.000 C 
ATOM      8  C   UNL     1      50.458   4.880  19.332  0.00  0.00    +0.000 C 
BRANCH   8   9
ATOM      9  N   UNL     1      51.222   3.730  18.882  0.00  0.00    +0.000 N 
ATOM     10  C   UNL     1      52.590   3.646  19.019  0.00  0.00    +0.000 C 
ATOM     11  O   UNL     1      53.277   4.534  19.516  0.00  0.00    +0.000 OA
ATOM     12  H   UNL     1      50.785   2.990  18.341  0.00  0.00    +0.000 HD
BRANCH  10  13
ATOM     13  C   UNL     1      53.162   2.403  18.539  0.00  0.00    +0.000 A 
ATOM     14  N   UNL     1      54.445   2.190  18.296  0.00  0.00    +0.000 NA
ATOM     15  C   UNL     1      54.516   0.896  17.838  0.00  0.00    +0.000 A 
ATOM     16  C   UNL     1      53.271   0.317  17.801  0.00  0.00    +0.000 A 
ATOM     17  N   UNL     1      52.419   1.285  18.252  0.00  0.00    +0.000 N 
ATOM     18  H   UNL     1      51.413   1.226  18.352  0.00  0.00    +0.000 HD
ENDBRANCH  10  13
ENDBRANCH   8   9
ENDBRANCH   1   8
BRANCH   4  19
ATOM     19  C   UNL     1      48.903   8.346  14.867  0.00  0.00    +0.000 C 
BRANCH  19  20
ATOM     20  N   UNL     1      47.705   7.825  14.260  0.00  0.00    +0.000 N 
ATOM     21  C   UNL     1      47.769   6.868  13.276  0.00  0.00    +0.000 C 
ATOM     22  O   UNL     1      48.837   6.387  12.909  0.00  0.00    +0.000 OA
ATOM     23  H   UNL     1      46.855   8.364  14.379  0.00  0.00    +0.000 HD
BRANCH  21  24
ATOM     24  C   UNL     1      46.490   6.402  12.727  0.00  0.00    +0.000 A 
ATOM     25  C   UNL     1      45.604   7.318  12.177  0.00  0.00    +0.000 A 
ATOM     26  S   UNL     1      44.193   6.606  11.538  0.00  0.00    +0.000 S 
ATOM     27  C   UNL     1      44.690   5.052  12.024  0.00  0.00    +0.000 A 
ATOM     28  N   UNL     1      43.906   3.963  11.796  0.00  0.00    +0.000 NA
ATOM     29  C   UNL     1      44.388   2.855  12.247  0.00  0.00    +0.000 A 
ATOM     30  N   UNL     1      45.589   2.735  12.899  0.00  0.00    +0.000 N 
ATOM     31  C   UNL     1      46.428   3.802  13.125  0.00  0.00    +0.000 A 
ATOM     32  O   UNL     1      47.514   3.653  13.675  0.00  0.00    +0.000 OA
ATOM     33  C   UNL     1      45.924   5.075  12.650  0.00  0.00    +0.000 A 
ATOM     34  H   UNL     1      45.917   1.837  13.221  0.00  0.00    +0.000 HD
ENDBRANCH  21  24
ENDBRANCH  19  20
ENDBRANCH   4  19
TORSDOF 6
ENDMDL
