MODEL 1
REMARK VINA RESULT:    -7.955      0.000      0.000
REMARK INTER + INTRA:         -11.809
REMARK INTER:                 -10.745
REMARK INTRA:                  -1.063
REMARK UNBOUND:                -1.063
REMARK  Name = 
REMARK  7 active torsions:
REMARK  status: ('A' for Active; 'I' for Inactive)
REMARK    1  A    between atoms: C_1  and  C_2
REMARK    2  A    between atoms: C_2  and  N_3
REMARK    3  A    between atoms: C_2  and  C_12
REMARK    4  A    between atoms: C_4  and  C_6
REMARK    5  A    between atoms: C_15  and  C_16
REMARK    6  A    between atoms: C_16  and  N_17
REMARK    7  A    between atoms: C_18  and  C_20
REMARK                            x       y       z     vdW  Elec       q    Type
REMARK                         _______ _______ _______ _____ _____    ______ ____
ROOT
ATOM      1  C   UNL     1      45.324   6.057  11.916  0.00  0.00    +0.000 A 
ATOM      2  C   UNL     1      44.905   7.366  12.158  0.00  0.00    +0.000 A 
ATOM      3  C   UNL     1      45.755   8.240  12.835  0.00  0.00    +0.000 A 
ATOM      4  C   UNL     1      47.018   7.807  13.244  0.00  0.00    +0.000 A 
ATOM      5  C   UNL     1      47.358   6.493  12.951  0.00  0.00    +0.000 A 
ATOM      6  N   UNL     1      46.551   5.623  12.304  0.00  0.00    +0.000 NA
ENDROOT
BRANCH   1   8
ATOM      7  C   UNL     1      43.014   5.598  11.027  0.00  0.00    +0.000 C 
ATOM      8  C   UNL     1      44.413   5.022  11.269  0.00  0.00    +0.000 C 
BRANCH   8   9
ATOM      9  N   UNL     1      44.977   4.461  10.050  0.00  0.00    +0.000 N 
ATOM     10  C   UNL     1      44.619   3.214   9.581  0.00  0.00    +0.000 C 
ATOM     11  O   UNL     1      43.865   2.451  10.181  0.00  0.00    +0.000 OA
ATOM     12  H   UNL     1      45.525   5.032   9.413  0.00  0.00    +0.000 HD
BRANCH  10  13
ATOM     13  C   UNL     1      45.273   2.827   8.239  0.00  0.00    +0.000 C 
ATOM     14  C   UNL     1      46.141   1.576   8.407  0.00  0.00    +0.000 C 
ATOM     15  C   UNL     1      46.863   1.219   7.109  0.00  0.00    +0.000 C 
ATOM     16  C   UNL     1      47.609   2.428   6.554  0.00  0.00    +0.000 C 
ATOM     17  C   UNL     1      46.690   3.644   6.446  0.00  0.00    +0.000 C 
ATOM     18  N   UNL     1      46.084   3.973   7.739  0.00  0.00    +0.000 NA
ATOM     19  H   UNL     1      45.449   4.763   7.604  0.00  0.00    +0.000 HD
ENDBRANCH  10  13
ENDBRANCH   8   9
ENDBRANCH   1   8
BRANCH   4  20
ATOM     20  C   UNL     1      47.954   8.682  14.024  0.00  0.00    +0.000 C 
BRANCH  20  21
ATOM     21  N   UNL     1      48.283   8.087  15.296  0.00  0.00    +0.000 N 
ATOM     22  C   UNL     1      49.553   7.651  15.575  0.00  0.00    +0.000 C 
ATOM     23  O   UNL     1      50.478   7.802  14.780  0.00  0.00    +0.000 OA
ATOM     24  H   UNL     1      47.511   7.753  15.867  0.00  0.00    +0.000 HD
BRANCH  22  25
ATOM     25  C   UNL     1      49.768   7.048  16.897  0.00  0.00    +0.000 A 
ATOM     26  C   UNL     1      50.579   7.691  17.822  0.00  0.00    +0.000 A 
ATOM     27  S   UNL     1      50.685   6.883  19.320  0.00  0.00    +0.000 S 
ATOM     28  C   UNL     1      49.692   5.617  18.770  0.00  0.00    +0.000 A 
ATOM     29  N   UNL     1      49.400   4.559  19.572  0.00  0.00    +0.000 NA
ATOM     30  C   UNL     1      48.665   3.653  19.017  0.00  0.00    +0.000 A 
ATOM     31  N   UNL     1      48.189   3.716  17.733  0.00  0.00    +0.000 N 
ATOM     32  C   UNL     1      48.428   4.782  16.898  0.00  0.00    +0.000 A 
ATOM     33  O   UNL     1      47.940   4.836  15.774  0.00  0.00    +0.000 OA
ATOM     34  C   UNL     1      49.268   5.818  17.469  0.00  0.00    +0.000 A 
ATOM     35  H   UNL     1      47.605   2.980  17.362  0.00  0.00    +0.000 HD
ENDBRANCH  22  25
ENDBRANCH  20  21
ENDBRANCH   4  20
TORSDOF 6
ENDMDL
MODEL 2
REMARK VINA RESULT:    -7.755      4.819      9.847
REMARK INTER + INTRA:         -11.538
REMARK INTER:                 -10.622
REMARK INTRA:                  -0.916
REMARK UNBOUND:                -1.063
REMARK  Name = 
REMARK  7 active torsions:
REMARK  status: ('A' for Active; 'I' for Inactive)
REMARK    1  A    between atoms: C_1  and  C_2
REMARK    2  A    between atoms: C_2  and  N_3
REMARK    3  A    between atoms: C_2  and  C_12
REMARK    4  A    between atoms: C_4  and  C_6
REMARK    5  A    between atoms: C_15  and  C_16
REMARK    6  A    between atoms: C_16  and  N_17
REMARK    7  A    between atoms: C_18  and  C_20
REMARK                            x       y       z     vdW  Elec       q    Type
REMARK                         _______ _______ _______ _____ _____    ______ ____
ROOT
ATOM      1  C   UNL     1      51.371   2.888  17.776  0.00  0.00    +0.000 A 
ATOM      2  C   UNL     1      50.677   1.905  17.069  0.00  0.00    +0.000 A 
ATOM      3  C   UNL     1      49.323   2.094  16.789  0.00  0.00    +0.000 A 
ATOM      4  C   UNL     1      48.686   3.267  17.196  0.00  0.00    +0.000 A 
ATOM      5  C   UNL     1      49.455   4.197  17.882  0.00  0.00    +0.000 A 
ATOM      6  N   UNL     1      50.765   4.035  18.174  0.00  0.00    +0.000 NA
ENDROOT
BRANCH   1   8
ATOM      7  C   UNL     1      53.206   3.713  19.289  0.00  0.00    +0.000 C 
ATOM      8  C   UNL     1      52.822   2.706  18.200  0.00  0.00    +0.000 C 
BRANCH   8   9
ATOM      9  N   UNL     1      53.122   1.340  18.607  0.00  0.00    +0.000 N 
ATOM     10  C   UNL     1      54.027   0.552  17.926  0.00  0.00    +0.000 C 
ATOM     11  O   UNL     1      54.590   0.901  16.892  0.00  0.00    +0.000 OA
ATOM     12  H   UNL     1      52.804   0.977  19.500  0.00  0.00    +0.000 HD
BRANCH  10  13
ATOM     13  C   UNL     1      54.258  -0.838  18.554  0.00  0.00    +0.000 C 
ATOM     14  C   UNL     1      54.962  -1.764  17.557  0.00  0.00    +0.000 C 
ATOM     15  C   UNL     1      55.130  -3.171  18.127  0.00  0.00    +0.000 C 
ATOM     16  C   UNL     1      53.801  -3.708  18.649  0.00  0.00    +0.000 C 
ATOM     17  C   UNL     1      53.144  -2.717  19.608  0.00  0.00    +0.000 C 
ATOM     18  N   UNL     1      52.949  -1.409  18.978  0.00  0.00    +0.000 NA
ATOM     19  H   UNL     1      52.547  -0.775  19.672  0.00  0.00    +0.000 HD
ENDBRANCH  10  13
ENDBRANCH   8   9
ENDBRANCH   1   8
BRANCH   4  20
ATOM     20  C   UNL     1      47.220   3.504  16.973  0.00  0.00    +0.000 C 
BRANCH  20  21
ATOM     21  N   UNL     1      47.005   4.528  15.981  0.00  0.00    +0.000 N 
ATOM     22  C   UNL     1      47.056   4.246  14.640  0.00  0.00    +0.000 C 
ATOM     23  O   UNL     1      47.228   3.103  14.224  0.00  0.00    +0.000 OA
ATOM     24  H   UNL     1      47.085   5.494  16.285  0.00  0.00    +0.000 HD
BRANCH  22  25
ATOM     25  C   UNL     1      46.836   5.372  13.721  0.00  0.00    +0.000 A 
ATOM     26  C   UNL     1      47.870   6.265  13.471  0.00  0.00    +0.000 A 
ATOM     27  S   UNL     1      47.465   7.484  12.348  0.00  0.00    +0.000 S 
ATOM     28  C   UNL     1      45.878   6.893  12.196  0.00  0.00    +0.000 A 
ATOM     29  N   UNL     1      44.976   7.512  11.388  0.00  0.00    +0.000 NA
ATOM     30  C   UNL     1      43.799   6.980  11.393  0.00  0.00    +0.000 A 
ATOM     31  N   UNL     1      43.447   5.877  12.127  0.00  0.00    +0.000 N 
ATOM     32  C   UNL     1      44.333   5.196  12.928  0.00  0.00    +0.000 A 
ATOM     33  O   UNL     1      44.003   4.179  13.527  0.00  0.00    +0.000 OA
ATOM     34  C   UNL     1      45.666   5.769  12.973  0.00  0.00    +0.000 A 
ATOM     35  H   UNL     1      42.511   5.499  12.074  0.00  0.00    +0.000 HD
ENDBRANCH  22  25
ENDBRANCH  20  21
ENDBRANCH   4  20
TORSDOF 6
ENDMDL
MODEL 3
REMARK VINA RESULT:    -7.619      3.301      4.885
REMARK INTER + INTRA:         -11.355
REMARK INTER:                 -10.409
REMARK INTRA:                  -0.945
REMARK UNBOUND:                -1.063
REMARK  Name = 
REMARK  7 active torsions:
REMARK  status: ('A' for Active; 'I' for Inactive)
REMARK    1  A    between atoms: C_1  and  C_2
REMARK    2  A    between atoms: C_2  and  N_3
REMARK    3  A    between atoms: C_2  and  C_12
REMARK    4  A    between atoms: C_4  and  C_6
REMARK    5  A    between atoms: C_15  and  C_16
REMARK    6  A    between atoms: C_16  and  N_17
REMARK    7  A    between atoms: C_18  and  C_20
REMARK                            x       y       z     vdW  Elec       q    Type
REMARK                         _______ _______ _______ _____ _____    ______ ____
ROOT
ATOM      1  C   UNL     1      47.458   5.556  14.313  0.00  0.00    +0.000 A 
ATOM      2  C   UNL     1      48.262   6.135  15.297  0.00  0.00    +0.000 A 
ATOM      3  C   UNL     1      48.543   5.415  16.459  0.00  0.00    +0.000 A 
ATOM      4  C   UNL     1      48.039   4.123  16.616  0.00  0.00    +0.000 A 
ATOM      5  C   UNL     1      47.258   3.621  15.583  0.00  0.00    +0.000 A 
ATOM      6  N   UNL     1      46.964   4.299  14.452  0.00  0.00    +0.000 NA
ENDROOT
BRANCH   1   8
ATOM      7  C   UNL     1      48.226   7.031  12.423  0.00  0.00    +0.000 C 
ATOM      8  C   UNL     1      47.032   6.318  13.066  0.00  0.00    +0.000 C 
BRANCH   8   9
ATOM      9  N   UNL     1      46.332   5.476  12.105  0.00  0.00    +0.000 N 
ATOM     10  C   UNL     1      45.388   5.982  11.237  0.00  0.00    +0.000 C 
ATOM     11  O   UNL     1      45.006   7.150  11.250  0.00  0.00    +0.000 OA
ATOM     12  H   UNL     1      46.633   4.524  11.925  0.00  0.00    +0.000 HD
BRANCH  10  13
ATOM     13  C   UNL     1      44.811   4.946  10.250  0.00  0.00    +0.000 C 
ATOM     14  C   UNL     1      44.832   3.546  10.873  0.00  0.00    +0.000 C 
ATOM     15  C   UNL     1      44.340   2.490   9.886  0.00  0.00    +0.000 C 
ATOM     16  C   UNL     1      45.087   2.597   8.560  0.00  0.00    +0.000 C 
ATOM     17  C   UNL     1      45.052   4.025   8.019  0.00  0.00    +0.000 C 
ATOM     18  N   UNL     1      45.600   4.978   8.987  0.00  0.00    +0.000 NA
ATOM     19  H   UNL     1      45.515   5.919   8.595  0.00  0.00    +0.000 HD
ENDBRANCH  10  13
ENDBRANCH   8   9
ENDBRANCH   1   8
BRANCH   4  20
ATOM     20  C   UNL     1      48.260   3.322  17.866  0.00  0.00    +0.000 C 
BRANCH  20  21
ATOM     21  N   UNL     1      49.664   3.073  18.082  0.00  0.00    +0.000 N 
ATOM     22  C   UNL     1      50.373   2.226  17.269  0.00  0.00    +0.000 C 
ATOM     23  O   UNL     1      49.862   1.690  16.289  0.00  0.00    +0.000 OA
ATOM     24  H   UNL     1      50.045   3.317  18.992  0.00  0.00    +0.000 HD
BRANCH  22  25
ATOM     25  C   UNL     1      51.794   2.038  17.594  0.00  0.00    +0.000 A 
ATOM     26  C   UNL     1      52.295   0.753  17.760  0.00  0.00    +0.000 A 
ATOM     27  S   UNL     1      53.969   0.708  18.086  0.00  0.00    +0.000 S 
ATOM     28  C   UNL     1      54.074   2.405  18.069  0.00  0.00    +0.000 A 
ATOM     29  N   UNL     1      55.254   3.035  18.312  0.00  0.00    +0.000 NA
ATOM     30  C   UNL     1      55.185   4.324  18.303  0.00  0.00    +0.000 A 
ATOM     31  N   UNL     1      54.041   5.041  18.064  0.00  0.00    +0.000 N 
ATOM     32  C   UNL     1      52.833   4.449  17.778  0.00  0.00    +0.000 A 
ATOM     33  O   UNL     1      51.840   5.117  17.511  0.00  0.00    +0.000 OA
ATOM     34  C   UNL     1      52.854   2.998  17.797  0.00  0.00    +0.000 A 
ATOM     35  H   UNL     1      54.056   6.051  18.055  0.00  0.00    +0.000 HD
ENDBRANCH  22  25
ENDBRANCH  20  21
ENDBRANCH   4  20
TORSDOF 6
ENDMDL
MODEL 4
REMARK VINA RESULT:    -7.618      2.281      3.303
REMARK INTER + INTRA:         -11.353
REMARK INTER:                 -10.185
REMARK INTRA:                  -1.168
REMARK UNBOUND:                -1.063
REMARK  Name = 
REMARK  7 active torsions:
REMARK  status: ('A' for Active; 'I' for Inactive)
REMARK    1  A    between atoms: C_1  and  C_2
REMARK    2  A    between atoms: C_2  and  N_3
REMARK    3  A    between atoms: C_2  and  C_12
REMARK    4  A    between atoms: C_4  and  C_6
REMARK    5  A    between atoms: C_15  and  C_16
REMARK    6  A    between atoms: C_16  and  N_17
REMARK    7  A    between atoms: C_18  and  C_20
REMARK                            x       y       z     vdW  Elec       q    Type
REMARK                         _______ _______ _______ _____ _____    ______ ____
ROOT
ATOM      1  C   UNL     1      45.666   5.164  12.442  0.00  0.00    +0.000 A 
ATOM      2  C   UNL     1      46.487   6.215  12.853  0.00  0.00    +0.000 A 
ATOM      3  C   UNL     1      47.265   6.065  14.001  0.00  0.00    +0.000 A 
ATOM      4  C   UNL     1      47.232   4.864  14.712  0.00  0.00    +0.000 A 
ATOM      5  C   UNL     1      46.396   3.867  14.226  0.00  0.00    +0.000 A 
ATOM      6  N   UNL     1      45.626   3.989  13.122  0.00  0.00    +0.000 NA
ENDROOT
BRANCH   1   8
ATOM      7  C   UNL     1      44.382   6.762  10.980  0.00  0.00    +0.000 C 
ATOM      8  C   UNL     1      44.719   5.293  11.257  0.00  0.00    +0.000 C 
BRANCH   8   9
ATOM      9  N   UNL     1      45.220   4.626  10.063  0.00  0.00    +0.000 N 
ATOM     10  C   UNL     1      44.648   3.470   9.572  0.00  0.00    +0.000 C 
ATOM     11  O   UNL     1      43.734   2.871  10.133  0.00  0.00    +0.000 OA
ATOM     12  H   UNL     1      45.897   5.077   9.455  0.00  0.00    +0.000 HD
BRANCH  10  13
ATOM     13  C   UNL     1      45.277   2.958   8.260  0.00  0.00    +0.000 C 
ATOM     14  C   UNL     1      46.070   1.671   8.514  0.00  0.00    +0.000 C 
ATOM     15  C   UNL     1      46.768   1.188   7.244  0.00  0.00    +0.000 C 
ATOM     16  C   UNL     1      47.583   2.311   6.612  0.00  0.00    +0.000 C 
ATOM     17  C   UNL     1      46.737   3.569   6.422  0.00  0.00    +0.000 C 
ATOM     18  N   UNL     1      46.153   4.018   7.688  0.00  0.00    +0.000 NA
ATOM     19  H   UNL     1      45.566   4.834   7.499  0.00  0.00    +0.000 HD
ENDBRANCH  10  13
ENDBRANCH   8   9
ENDBRANCH   1   8
BRANCH   4  20
ATOM     20  C   UNL     1      48.003   4.662  15.984  0.00  0.00    +0.000 C 
BRANCH  20  21
ATOM     21  N   UNL     1      47.764   5.739  16.912  0.00  0.00    +0.000 N 
ATOM     22  C   UNL     1      48.723   6.136  17.808  0.00  0.00    +0.000 C 
ATOM     23  O   UNL     1      49.844   5.636  17.821  0.00  0.00    +0.000 OA
ATOM     24  H   UNL     1      46.797   6.009  17.073  0.00  0.00    +0.000 HD
BRANCH  22  25
ATOM     25  C   UNL     1      48.362   7.234  18.716  0.00  0.00    +0.000 A 
ATOM     26  C   UNL     1      48.248   6.988  20.078  0.00  0.00    +0.000 A 
ATOM     27  S   UNL     1      47.870   8.375  20.996  0.00  0.00    +0.000 S 
ATOM     28  C   UNL     1      47.794   9.345  19.600  0.00  0.00    +0.000 A 
ATOM     29  N   UNL     1      47.480  10.665  19.682  0.00  0.00    +0.000 NA
ATOM     30  C   UNL     1      47.424  11.274  18.545  0.00  0.00    +0.000 A 
ATOM     31  N   UNL     1      47.662  10.680  17.332  0.00  0.00    +0.000 N 
ATOM     32  C   UNL     1      48.018   9.359  17.202  0.00  0.00    +0.000 A 
ATOM     33  O   UNL     1      48.281   8.871  16.108  0.00  0.00    +0.000 OA
ATOM     34  C   UNL     1      48.074   8.625  18.453  0.00  0.00    +0.000 A 
ATOM     35  H   UNL     1      47.617  11.217  16.477  0.00  0.00    +0.000 HD
ENDBRANCH  22  25
ENDBRANCH  20  21
ENDBRANCH   4  20
TORSDOF 6
ENDMDL
MODEL 5
REMARK VINA RESULT:    -7.366      1.716      2.297
REMARK INTER + INTRA:         -11.013
REMARK INTER:                 -10.018
REMARK INTRA:                  -0.995
REMARK UNBOUND:                -1.063
REMARK  Name = 
REMARK  7 active torsions:
REMARK  status: ('A' for Active; 'I' for Inactive)
REMARK    1  A    between atoms: C_1  and  C_2
REMARK    2  A    between atoms: C_2  and  N_3
REMARK    3  A    between atoms: C_2  and  C_12
REMARK    4  A    between atoms: C_4  and  C_6
REMARK    5  A    between atoms: C_15  and  C_16
REMARK    6  A    between atoms: C_16  and  N_17
REMARK    7  A    between atoms: C_18  and  C_20
REMARK                            x       y       z     vdW  Elec       q    Type
REMARK                         _______ _______ _______ _____ _____    ______ ____
ROOT
ATOM      1  C   UNL     1      45.200   5.638  12.169  0.00  0.00    +0.000 A 
ATOM      2  C   UNL     1      46.054   5.012  13.077  0.00  0.00    +0.000 A 
ATOM      3  C   UNL     1      46.997   5.775  13.765  0.00  0.00    +0.000 A 
ATOM      4  C   UNL     1      47.063   7.154  13.556  0.00  0.00    +0.000 A 
ATOM      5  C   UNL     1      46.167   7.696  12.644  0.00  0.00    +0.000 A 
ATOM      6  N   UNL     1      45.250   6.979  11.958  0.00  0.00    +0.000 NA
ENDROOT
BRANCH   1   8
ATOM      7  C   UNL     1      42.962   5.687  11.016  0.00  0.00    +0.000 C 
ATOM      8  C   UNL     1      44.214   4.855  11.313  0.00  0.00    +0.000 C 
BRANCH   8   9
ATOM      9  N   UNL     1      44.815   4.341  10.090  0.00  0.00    +0.000 N 
ATOM     10  C   UNL     1      44.523   3.086   9.599  0.00  0.00    +0.000 C 
ATOM     11  O   UNL     1      43.803   2.277  10.180  0.00  0.00    +0.000 OA
ATOM     12  H   UNL     1      45.339   4.949   9.468  0.00  0.00    +0.000 HD
BRANCH  10  13
ATOM     13  C   UNL     1      45.207   2.754   8.256  0.00  0.00    +0.000 C 
ATOM     14  C   UNL     1      46.066   1.493   8.392  0.00  0.00    +0.000 C 
ATOM     15  C   UNL     1      46.817   1.188   7.096  0.00  0.00    +0.000 C 
ATOM     16  C   UNL     1      47.579   2.417   6.609  0.00  0.00    +0.000 C 
ATOM     17  C   UNL     1      46.666   3.639   6.533  0.00  0.00    +0.000 C 
ATOM     18  N   UNL     1      46.032   3.916   7.824  0.00  0.00    +0.000 NA
ATOM     19  H   UNL     1      45.402   4.714   7.708  0.00  0.00    +0.000 HD
ENDBRANCH  10  13
ENDBRANCH   8   9
ENDBRANCH   1   8
BRANCH   4  20
ATOM     20  C   UNL     1      48.091   8.019  14.224  0.00  0.00    +0.000 C 
BRANCH  20  21
ATOM     21  N   UNL     1      48.257   7.654  15.609  0.00  0.00    +0.000 N 
ATOM     22  C   UNL     1      49.353   6.949  16.037  0.00  0.00    +0.000 C 
ATOM     23  O   UNL     1      50.268   6.650  15.274  0.00  0.00    +0.000 OA
ATOM     24  H   UNL     1      47.431   7.689  16.201  0.00  0.00    +0.000 HD
BRANCH  22  25
ATOM     25  C   UNL     1      49.407   6.620  17.467  0.00  0.00    +0.000 A 
ATOM     26  C   UNL     1      49.751   5.334  17.863  0.00  0.00    +0.000 A 
ATOM     27  S   UNL     1      49.814   5.131  19.555  0.00  0.00    +0.000 S 
ATOM     28  C   UNL     1      49.333   6.740  19.821  0.00  0.00    +0.000 A 
ATOM     29  N   UNL     1      49.163   7.220  21.082  0.00  0.00    +0.000 NA
ATOM     30  C   UNL     1      48.763   8.446  21.139  0.00  0.00    +0.000 A 
ATOM     31  N   UNL     1      48.525   9.239  20.046  0.00  0.00    +0.000 N 
ATOM     32  C   UNL     1      48.718   8.810  18.754  0.00  0.00    +0.000 A 
ATOM     33  O   UNL     1      48.553   9.561  17.799  0.00  0.00    +0.000 OA
ATOM     34  C   UNL     1      49.148   7.429  18.636  0.00  0.00    +0.000 A 
ATOM     35  H   UNL     1      48.228  10.198  20.158  0.00  0.00    +0.000 HD
ENDBRANCH  22  25
ENDBRANCH  20  21
ENDBRANCH   4  20
TORSDOF 6
ENDMDL
MODEL 6
REMARK VINA RESULT:    -7.353      4.937      9.697
REMARK INTER + INTRA:         -10.996
REMARK INTER:                  -9.740
REMARK INTRA:                  -1.256
REMARK UNBOUND:                -1.063
REMARK  Name = 
REMARK  7 active torsions:
REMARK  status: ('A' for Active; 'I' for Inactive)
REMARK    1  A    between atoms: C_1  and  C_2
REMARK    2  A    between atoms: C_2  and  N_3
REMARK    3  A    between atoms: C_2  and  C_12
REMARK    4  A    between atoms: C_4  and  C_6
REMARK    5  A    between atoms: C_15  and  C_16
REMARK    6  A    between atoms: C_16  and  N_17
REMARK    7  A    between atoms: C_18  and  C_20
REMARK                            x       y       z     vdW  Elec       q    Type
REMARK                         _______ _______ _______ _____ _____    ______ ____
ROOT
ATOM      1  C   UNL     1      51.328   2.696  17.599  0.00  0.00    +0.000 A 
ATOM      2  C   UNL     1      50.806   3.897  18.082  0.00  0.00    +0.000 A 
ATOM      3  C   UNL     1      49.458   4.189  17.870  0.00  0.00    +0.000 A 
ATOM      4  C   UNL     1      48.645   3.274  17.200  0.00  0.00    +0.000 A 
ATOM      5  C   UNL     1      49.243   2.100  16.764  0.00  0.00    +0.000 A 
ATOM      6  N   UNL     1      50.547   1.795  16.949  0.00  0.00    +0.000 NA
ENDROOT
BRANCH   1   8
ATOM      7  C   UNL     1      53.559   3.423  18.511  0.00  0.00    +0.000 C 
ATOM      8  C   UNL     1      52.808   2.355  17.709  0.00  0.00    +0.000 C 
BRANCH   8   9
ATOM      9  N   UNL     1      53.039   1.022  18.249  0.00  0.00    +0.000 N 
ATOM     10  C   UNL     1      54.068   0.218  17.805  0.00  0.00    +0.000 C 
ATOM     11  O   UNL     1      54.817   0.520  16.879  0.00  0.00    +0.000 OA
ATOM     12  H   UNL     1      52.558   0.703  19.084  0.00  0.00    +0.000 HD
BRANCH  10  13
ATOM     13  C   UNL     1      54.189  -1.128  18.548  0.00  0.00    +0.000 C 
ATOM     14  C   UNL     1      54.841  -2.181  17.646  0.00  0.00    +0.000 C 
ATOM     15  C   UNL     1      54.900  -3.544  18.332  0.00  0.00    +0.000 C 
ATOM     16  C   UNL     1      53.528  -3.941  18.868  0.00  0.00    +0.000 C 
ATOM     17  C   UNL     1      52.927  -2.831  19.729  0.00  0.00    +0.000 C 
ATOM     18  N   UNL     1      52.837  -1.570  18.989  0.00  0.00    +0.000 NA
ATOM     19  H   UNL     1      52.469  -0.853  19.620  0.00  0.00    +0.000 HD
ENDBRANCH  10  13
ENDBRANCH   8   9
ENDBRANCH   1   8
BRANCH   4  20
ATOM     20  C   UNL     1      47.203   3.556  16.893  0.00  0.00    +0.000 C 
BRANCH  20  21
ATOM     21  N   UNL     1      47.077   4.581  15.886  0.00  0.00    +0.000 N 
ATOM     22  C   UNL     1      47.104   4.277  14.549  0.00  0.00    +0.000 C 
ATOM     23  O   UNL     1      47.176   3.117  14.150  0.00  0.00    +0.000 OA
ATOM     24  H   UNL     1      47.241   5.541  16.176  0.00  0.00    +0.000 HD
BRANCH  22  25
ATOM     25  C   UNL     1      46.983   5.404  13.615  0.00  0.00    +0.000 A 
ATOM     26  C   UNL     1      45.956   5.412  12.680  0.00  0.00    +0.000 A 
ATOM     27  S   UNL     1      45.928   6.812  11.705  0.00  0.00    +0.000 S 
ATOM     28  C   UNL     1      47.319   7.433  12.461  0.00  0.00    +0.000 A 
ATOM     29  N   UNL     1      47.856   8.619  12.071  0.00  0.00    +0.000 NA
ATOM     30  C   UNL     1      48.930   8.956  12.705  0.00  0.00    +0.000 A 
ATOM     31  N   UNL     1      49.509   8.214  13.702  0.00  0.00    +0.000 N 
ATOM     32  C   UNL     1      48.982   7.028  14.155  0.00  0.00    +0.000 A 
ATOM     33  O   UNL     1      49.491   6.416  15.088  0.00  0.00    +0.000 OA
ATOM     34  C   UNL     1      47.785   6.596  13.458  0.00  0.00    +0.000 A 
ATOM     35  H   UNL     1      50.343   8.541  14.171  0.00  0.00    +0.000 HD
ENDBRANCH  22  25
ENDBRANCH  20  21
ENDBRANCH   4  20
TORSDOF 6
ENDMDL
MODEL 7
REMARK VINA RESULT:    -7.221      3.775      8.892
REMARK INTER + INTRA:         -10.818
REMARK INTER:                 -10.181
REMARK INTRA:                  -0.636
REMARK UNBOUND:                -1.063
REMARK  Name = 
REMARK  7 active torsions:
REMARK  status: ('A' for Active; 'I' for Inactive)
REMARK    1  A    between atoms: C_1  and  C_2
REMARK    2  A    between atoms: C_2  and  N_3
REMARK    3  A    between atoms: C_2  and  C_12
REMARK    4  A    between atoms: C_4  and  C_6
REMARK    5  A    between atoms: C_15  and  C_16
REMARK    6  A    between atoms: C_16  and  N_17
REMARK    7  A    between atoms: C_18  and  C_20
REMARK                            x       y       z     vdW  Elec       q    Type
REMARK                         _______ _______ _______ _____ _____    ______ ____
ROOT
ATOM      1  C   UNL     1      49.134   5.251  17.212  0.00  0.00    +0.000 A 
ATOM      2  C   UNL     1      49.912   6.353  16.855  0.00  0.00    +0.000 A 
ATOM      3  C   UNL     1      49.679   6.986  15.634  0.00  0.00    +0.000 A 
ATOM      4  C   UNL     1      48.662   6.527  14.795  0.00  0.00    +0.000 A 
ATOM      5  C   UNL     1      47.929   5.433  15.234  0.00  0.00    +0.000 A 
ATOM      6  N   UNL     1      48.139   4.796  16.407  0.00  0.00    +0.000 NA
ENDROOT
BRANCH   1   8
ATOM      7  C   UNL     1      48.288   3.421  18.721  0.00  0.00    +0.000 C 
ATOM      8  C   UNL     1      49.396   4.453  18.482  0.00  0.00    +0.000 C 
BRANCH   8   9
ATOM      9  N   UNL     1      50.713   3.833  18.495  0.00  0.00    +0.000 N 
ATOM     10  C   UNL     1      51.061   2.828  17.616  0.00  0.00    +0.000 C 
ATOM     11  O   UNL     1      50.279   2.325  16.812  0.00  0.00    +0.000 OA
ATOM     12  H   UNL     1      51.475   4.230  19.035  0.00  0.00    +0.000 HD
BRANCH  10  13
ATOM     13  C   UNL     1      52.522   2.351  17.741  0.00  0.00    +0.000 C 
ATOM     14  C   UNL     1      52.637   0.872  17.359  0.00  0.00    +0.000 C 
ATOM     15  C   UNL     1      54.061   0.355  17.551  0.00  0.00    +0.000 C 
ATOM     16  C   UNL     1      54.572   0.682  18.951  0.00  0.00    +0.000 C 
ATOM     17  C   UNL     1      54.394   2.164  19.273  0.00  0.00    +0.000 C 
ATOM     18  N   UNL     1      52.996   2.578  19.135  0.00  0.00    +0.000 NA
ATOM     19  H   UNL     1      52.939   3.583  19.320  0.00  0.00    +0.000 HD
ENDBRANCH  10  13
ENDBRANCH   8   9
ENDBRANCH   1   8
BRANCH   4  20
ATOM     20  C   UNL     1      48.400   7.131  13.446  0.00  0.00    +0.000 C 
BRANCH  20  21
ATOM     21  N   UNL     1      47.631   6.236  12.617  0.00  0.00    +0.000 N 
ATOM     22  C   UNL     1      46.562   6.682  11.883  0.00  0.00    +0.000 C 
ATOM     23  O   UNL     1      46.249   7.870  11.852  0.00  0.00    +0.000 OA
ATOM     24  H   UNL     1      47.724   5.240  12.797  0.00  0.00    +0.000 HD
BRANCH  22  25
ATOM     25  C   UNL     1      45.844   5.678  11.087  0.00  0.00    +0.000 A 
ATOM     26  C   UNL     1      45.916   5.721   9.701  0.00  0.00    +0.000 A 
ATOM     27  S   UNL     1      45.067   4.458   8.931  0.00  0.00    +0.000 S 
ATOM     28  C   UNL     1      44.528   3.838  10.420  0.00  0.00    +0.000 A 
ATOM     29  N   UNL     1      43.716   2.749  10.472  0.00  0.00    +0.000 NA
ATOM     30  C   UNL     1      43.355   2.406  11.663  0.00  0.00    +0.000 A 
ATOM     31  N   UNL     1      43.741   3.051  12.810  0.00  0.00    +0.000 N 
ATOM     32  C   UNL     1      44.589   4.133  12.810  0.00  0.00    +0.000 A 
ATOM     33  O   UNL     1      44.963   4.653  13.855  0.00  0.00    +0.000 OA
ATOM     34  C   UNL     1      45.008   4.571  11.491  0.00  0.00    +0.000 A 
ATOM     35  H   UNL     1      43.435   2.723  13.715  0.00  0.00    +0.000 HD
ENDBRANCH  22  25
ENDBRANCH  20  21
ENDBRANCH   4  20
TORSDOF 6
ENDMDL
MODEL 8
REMARK VINA RESULT:    -7.199      3.115      8.886
REMARK INTER + INTRA:         -10.787
REMARK INTER:                  -9.677
REMARK INTRA:                  -1.110
REMARK UNBOUND:                -1.063
REMARK  Name = 
REMARK  7 active torsions:
REMARK  status: ('A' for Active; 'I' for Inactive)
REMARK    1  A    between atoms: C_1  and  C_2
REMARK    2  A    between atoms: C_2  and  N_3
REMARK    3  A    between atoms: C_2  and  C_12
REMARK    4  A    between atoms: C_4  and  C_6
REMARK    5  A    between atoms: C_15  and  C_16
REMARK    6  A    between atoms: C_16  and  N_17
REMARK    7  A    between atoms: C_18  and  C_20
REMARK                            x       y       z     vdW  Elec       q    Type
REMARK                         _______ _______ _______ _____ _____    ______ ____
ROOT
ATOM      1  C   UNL     1      49.009   7.582  15.895  0.00  0.00    +0.000 A 
ATOM      2  C   UNL     1      48.752   8.841  15.350  0.00  0.00    +0.000 A 
ATOM      3  C   UNL     1      48.150   8.931  14.095  0.00  0.00    +0.000 A 
ATOM      4  C   UNL     1      47.794   7.769  13.409  0.00  0.00    +0.000 A 
ATOM      5  C   UNL     1      48.075   6.560  14.029  0.00  0.00    +0.000 A 
ATOM      6  N   UNL     1      48.664   6.443  15.240  0.00  0.00    +0.000 NA
ENDROOT
BRANCH   1   8
ATOM      7  C   UNL     1      49.006   8.105  18.357  0.00  0.00    +0.000 C 
ATOM      8  C   UNL     1      49.749   7.407  17.214  0.00  0.00    +0.000 C 
BRANCH   8   9
ATOM      9  N   UNL     1      50.018   6.010  17.527  0.00  0.00    +0.000 N 
ATOM     10  C   UNL     1      51.289   5.478  17.479  0.00  0.00    +0.000 C 
ATOM     11  O   UNL     1      52.276   6.105  17.101  0.00  0.00    +0.000 OA
ATOM     12  H   UNL     1      49.308   5.422  17.952  0.00  0.00    +0.000 HD
BRANCH  10  13
ATOM     13  C   UNL     1      51.377   4.000  17.912  0.00  0.00    +0.000 C 
ATOM     14  C   UNL     1      52.830   3.516  17.871  0.00  0.00    +0.000 C 
ATOM     15  C   UNL     1      52.933   2.032  18.219  0.00  0.00    +0.000 C 
ATOM     16  C   UNL     1      51.973   1.207  17.367  0.00  0.00    +0.000 C 
ATOM     17  C   UNL     1      50.554   1.769  17.431  0.00  0.00    +0.000 C 
ATOM     18  N   UNL     1      50.516   3.175  17.020  0.00  0.00    +0.000 NA
ATOM     19  H   UNL     1      49.555   3.512  17.120  0.00  0.00    +0.000 HD
ENDBRANCH  10  13
ENDBRANCH   8   9
ENDBRANCH   1   8
BRANCH   4  20
ATOM     20  C   UNL     1      47.195   7.801  12.033  0.00  0.00    +0.000 C 
BRANCH  20  21
ATOM     21  N   UNL     1      46.580   6.538  11.705  0.00  0.00    +0.000 N 
ATOM     22  C   UNL     1      45.217   6.382  11.715  0.00  0.00    +0.000 C 
ATOM     23  O   UNL     1      44.460   7.322  11.945  0.00  0.00    +0.000 OA
ATOM     24  H   UNL     1      47.171   5.711  11.734  0.00  0.00    +0.000 HD
BRANCH  22  25
ATOM     25  C   UNL     1      44.704   5.047  11.380  0.00  0.00    +0.000 A 
ATOM     26  C   UNL     1      43.942   4.351  12.309  0.00  0.00    +0.000 A 
ATOM     27  S   UNL     1      43.386   2.840  11.746  0.00  0.00    +0.000 S 
ATOM     28  C   UNL     1      44.188   3.038  10.259  0.00  0.00    +0.000 A 
ATOM     29  N   UNL     1      44.141   2.070   9.305  0.00  0.00    +0.000 NA
ATOM     30  C   UNL     1      44.821   2.334   8.240  0.00  0.00    +0.000 A 
ATOM     31  N   UNL     1      45.538   3.486   8.040  0.00  0.00    +0.000 N 
ATOM     32  C   UNL     1      45.585   4.507   8.958  0.00  0.00    +0.000 A 
ATOM     33  O   UNL     1      46.187   5.550   8.727  0.00  0.00    +0.000 OA
ATOM     34  C   UNL     1      44.852   4.249  10.184  0.00  0.00    +0.000 A 
ATOM     35  H   UNL     1      46.038   3.639   7.175  0.00  0.00    +0.000 HD
ENDBRANCH  22  25
ENDBRANCH  20  21
ENDBRANCH   4  20
TORSDOF 6
ENDMDL
MODEL 9
REMARK VINA RESULT:    -7.025      2.295      3.008
REMARK INTER + INTRA:         -10.552
REMARK INTER:                  -9.588
REMARK INTRA:                  -0.965
REMARK UNBOUND:                -1.063
REMARK  Name = 
REMARK  7 active torsions:
REMARK  status: ('A' for Active; 'I' for Inactive)
REMARK    1  A    between atoms: C_1  and  C_2
REMARK    2  A    between atoms: C_2  and  N_3
REMARK    3  A    between atoms: C_2  and  C_12
REMARK    4  A    between atoms: C_4  and  C_6
REMARK    5  A    between atoms: C_15  and  C_16
REMARK    6  A    between atoms: C_16  and  N_17
REMARK    7  A    between atoms: C_18  and  C_20
REMARK                            x       y       z     vdW  Elec       q    Type
REMARK                         _______ _______ _______ _____ _____    ______ ____
ROOT
ATOM      1  C   UNL     1      45.283   4.493  12.257  0.00  0.00    +0.000 A 
ATOM      2  C   UNL     1      45.648   5.735  12.778  0.00  0.00    +0.000 A 
ATOM      3  C   UNL     1      46.485   5.790  13.893  0.00  0.00    +0.000 A 
ATOM      4  C   UNL     1      46.964   4.608  14.461  0.00  0.00    +0.000 A 
ATOM      5  C   UNL     1      46.561   3.417  13.872  0.00  0.00    +0.000 A 
ATOM      6  N   UNL     1      45.745   3.336  12.798  0.00  0.00    +0.000 NA
ENDROOT
BRANCH   1   8
ATOM      7  C   UNL     1      43.484   5.642  10.923  0.00  0.00    +0.000 C 
ATOM      8  C   UNL     1      44.298   4.356  11.105  0.00  0.00    +0.000 C 
BRANCH   8   9
ATOM      9  N   UNL     1      44.940   3.951   9.862  0.00  0.00    +0.000 N 
ATOM     10  C   UNL     1      44.691   2.730   9.271  0.00  0.00    +0.000 C 
ATOM     11  O   UNL     1      43.980   1.863   9.772  0.00  0.00    +0.000 OA
ATOM     12  H   UNL     1      45.461   4.617   9.300  0.00  0.00    +0.000 HD
BRANCH  10  13
ATOM     13  C   UNL     1      45.413   2.517   7.924  0.00  0.00    +0.000 C 
ATOM     14  C   UNL     1      46.382   1.334   8.018  0.00  0.00    +0.000 C 
ATOM     15  C   UNL     1      47.167   1.152   6.721  0.00  0.00    +0.000 C 
ATOM     16  C   UNL     1      47.820   2.463   6.294  0.00  0.00    +0.000 C 
ATOM     17  C   UNL     1      46.802   3.601   6.256  0.00  0.00    +0.000 C 
ATOM     18  N   UNL     1      46.134   3.765   7.550  0.00  0.00    +0.000 NA
ATOM     19  H   UNL     1      45.436   4.508   7.459  0.00  0.00    +0.000 HD
ENDBRANCH  10  13
ENDBRANCH   8   9
ENDBRANCH   1   8
BRANCH   4  20
ATOM     20  C   UNL     1      47.822   4.599  15.692  0.00  0.00    +0.000 C 
BRANCH  20  21
ATOM     21  N   UNL     1      47.848   5.900  16.316  0.00  0.00    +0.000 N 
ATOM     22  C   UNL     1      49.029   6.558  16.546  0.00  0.00    +0.000 C 
ATOM     23  O   UNL     1      50.108   6.100  16.180  0.00  0.00    +0.000 OA
ATOM     24  H   UNL     1      47.015   6.191  16.820  0.00  0.00    +0.000 HD
BRANCH  22  25
ATOM     25  C   UNL     1      48.935   7.870  17.201  0.00  0.00    +0.000 A 
ATOM     26  C   UNL     1      48.410   8.949  16.503  0.00  0.00    +0.000 A 
ATOM     27  S   UNL     1      48.327  10.384  17.421  0.00  0.00    +0.000 S 
ATOM     28  C   UNL     1      49.039   9.629  18.768  0.00  0.00    +0.000 A 
ATOM     29  N   UNL     1      49.283  10.323  19.911  0.00  0.00    +0.000 NA
ATOM     30  C   UNL     1      49.858   9.637  20.842  0.00  0.00    +0.000 A 
ATOM     31  N   UNL     1      50.202   8.314  20.734  0.00  0.00    +0.000 N 
ATOM     32  C   UNL     1      49.942   7.562  19.613  0.00  0.00    +0.000 A 
ATOM     33  O   UNL     1      50.210   6.366  19.568  0.00  0.00    +0.000 OA
ATOM     34  C   UNL     1      49.315   8.295  18.529  0.00  0.00    +0.000 A 
ATOM     35  H   UNL     1      50.637   7.829  21.507  0.00  0.00    +0.000 HD
ENDBRANCH  22  25
ENDBRANCH  20  21
ENDBRANCH   4  20
TORSDOF 6
ENDMDL
