MODEL 1
REMARK VINA RESULT:    -7.501      0.000      0.000
REMARK INTER + INTRA:         -11.131
REMARK INTER:                 -10.132
REMARK INTRA:                  -0.999
REMARK UNBOUND:                -0.999
REMARK  Name = 
REMARK  7 active torsions:
REMARK  status: ('A' for Active; 'I' for Inactive)
REMARK    1  A    between atoms: C_1  and  C_2
REMARK    2  A    between atoms: C_2  and  N_3
REMARK    3  A    between atoms: C_2  and  C_17
REMARK    4  A    between atoms: N_3  and  C_4
REMARK    5  A    between atoms: C_7  and  C_8
REMARK    6  A    between atoms: C_8  and  N_9
REMARK    7  A    between atoms: N_9  and  C_10
REMARK                            x       y       z     vdW  Elec       q    Type
REMARK                         _______ _______ _______ _____ _____    ______ ____
ROOT
ATOM      1  N   UNL     1      46.436   6.035  13.700  0.00  0.00    +0.000 N 
ATOM      2  H   UNL     1      45.896   6.106  14.568  0.00  0.00    +0.000 HD
ENDROOT
BRANCH   1   3
ATOM      3  C   UNL     1      45.788   5.297  12.715  0.00  0.00    +0.000 A 
ATOM      4  C   UNL     1      45.219   5.843  11.566  0.00  0.00    +0.000 A 
ATOM      5  C   UNL     1      44.682   5.017  10.566  0.00  0.00    +0.000 A 
ATOM      6  C   UNL     1      44.671   3.623  10.696  0.00  0.00    +0.000 A 
ATOM      7  C   UNL     1      45.157   3.076  11.884  0.00  0.00    +0.000 A 
ATOM      8  C   UNL     1      45.716   3.905  12.872  0.00  0.00    +0.000 A 
BRANCH   6   9
ATOM      9  C   UNL     1      44.180   2.742   9.564  0.00  0.00    +0.000 C 
BRANCH   9  10
ATOM     10  N   UNL     1      44.722   3.209   8.284  0.00  0.00    +0.000 NA
ATOM     11  H   UNL     1      44.489   4.195   8.156  0.00  0.00    +0.000 HD
BRANCH  10  12
ATOM     12  C   UNL     1      46.162   2.993   8.113  0.00  0.00    +0.000 C 
ATOM     13  C   UNL     1      46.779   3.626   6.866  0.00  0.00    +0.000 C 
ATOM     14  C   UNL     1      46.817   2.504   5.850  0.00  0.00    +0.000 C 
ATOM     15  N   UNL     1      47.166   1.320   6.638  0.00  0.00    +0.000 NA
ATOM     16  C   UNL     1      46.452   1.484   7.918  0.00  0.00    +0.000 C 
ATOM     17  H   UNL     1      48.169   1.331   6.823  0.00  0.00    +0.000 HD
ENDBRANCH  10  12
ENDBRANCH   9  10
ENDBRANCH   6   9
ENDBRANCH   1   3
BRANCH   1  19
ATOM     18  C   UNL     1      48.501   6.977  12.892  0.00  0.00    +0.000 C 
ATOM     19  C   UNL     1      47.881   6.018  13.917  0.00  0.00    +0.000 C 
BRANCH  19  20
ATOM     20  C   UNL     1      48.457   6.270  15.306  0.00  0.00    +0.000 A 
ATOM     21  C   UNL     1      49.215   7.400  15.574  0.00  0.00    +0.000 A 
ATOM     22  S   UNL     1      49.831   7.452  17.163  0.00  0.00    +0.000 S 
ATOM     23  C   UNL     1      49.028   6.017  17.581  0.00  0.00    +0.000 A 
ATOM     24  N   UNL     1      49.110   5.518  18.846  0.00  0.00    +0.000 NA
ATOM     25  C   UNL     1      48.384   4.472  19.055  0.00  0.00    +0.000 A 
ATOM     26  N   UNL     1      47.585   3.875  18.112  0.00  0.00    +0.000 N 
ATOM     27  C   UNL     1      47.503   4.322  16.808  0.00  0.00    +0.000 A 
ATOM     28  O   UNL     1      46.782   3.771  15.984  0.00  0.00    +0.000 OA
ATOM     29  C   UNL     1      48.295   5.500  16.523  0.00  0.00    +0.000 A 
ATOM     30  H   UNL     1      47.020   3.082  18.349  0.00  0.00    +0.000 HD
ENDBRANCH  19  20
ENDBRANCH   1  19
TORSDOF 6
ENDMDL
MODEL 2
REMARK VINA RESULT:    -7.210      2.336      3.027
REMARK INTER + INTRA:         -10.738
REMARK INTER:                  -9.659
REMARK INTRA:                  -1.080
REMARK UNBOUND:                -0.999
REMARK  Name = 
REMARK  7 active torsions:
REMARK  status: ('A' for Active; 'I' for Inactive)
REMARK    1  A    between atoms: C_1  and  C_2
REMARK    2  A    between atoms: C_2  and  N_3
REMARK    3  A    between atoms: C_2  and  C_17
REMARK    4  A    between atoms: N_3  and  C_4
REMARK    5  A    between atoms: C_7  and  C_8
REMARK    6  A    between atoms: C_8  and  N_9
REMARK    7  A    between atoms: N_9  and  C_10
REMARK                            x       y       z     vdW  Elec       q    Type
REMARK                         _______ _______ _______ _____ _____    ______ ____
ROOT
ATOM      1  N   UNL     1      47.592   3.667  15.087  0.00  0.00    +0.000 N 
ATOM      2  H   UNL     1      48.432   3.153  14.801  0.00  0.00    +0.000 HD
ENDROOT
BRANCH   1   3
ATOM      3  C   UNL     1      46.859   4.152  14.009  0.00  0.00    +0.000 A 
ATOM      4  C   UNL     1      46.848   5.484  13.599  0.00  0.00    +0.000 A 
ATOM      5  C   UNL     1      46.172   5.873  12.432  0.00  0.00    +0.000 A 
ATOM      6  C   UNL     1      45.462   4.950  11.656  0.00  0.00    +0.000 A 
ATOM      7  C   UNL     1      45.394   3.632  12.111  0.00  0.00    +0.000 A 
ATOM      8  C   UNL     1      46.094   3.242  13.266  0.00  0.00    +0.000 A 
BRANCH   6   9
ATOM      9  C   UNL     1      44.821   5.367  10.346  0.00  0.00    +0.000 C 
BRANCH   9  10
ATOM     10  N   UNL     1      45.760   5.174   9.237  0.00  0.00    +0.000 NA
ATOM     11  H   UNL     1      46.665   4.876   9.606  0.00  0.00    +0.000 HD
BRANCH  10  12
ATOM     12  C   UNL     1      45.298   4.250   8.196  0.00  0.00    +0.000 C 
ATOM     13  C   UNL     1      44.602   2.986   8.700  0.00  0.00    +0.000 C 
ATOM     14  C   UNL     1      45.687   1.930   8.704  0.00  0.00    +0.000 C 
ATOM     15  N   UNL     1      46.470   2.219   7.500  0.00  0.00    +0.000 NA
ATOM     16  C   UNL     1      46.509   3.691   7.409  0.00  0.00    +0.000 C 
ATOM     17  H   UNL     1      45.970   1.857   6.688  0.00  0.00    +0.000 HD
ENDBRANCH  10  12
ENDBRANCH   9  10
ENDBRANCH   6   9
ENDBRANCH   1   3
BRANCH   1  19
ATOM     18  C   UNL     1      46.687   3.832  17.313  0.00  0.00    +0.000 C 
ATOM     19  C   UNL     1      47.753   4.378  16.353  0.00  0.00    +0.000 C 
BRANCH  19  20
ATOM     20  C   UNL     1      49.113   4.438  17.039  0.00  0.00    +0.000 A 
ATOM     21  C   UNL     1      49.536   5.585  17.694  0.00  0.00    +0.000 A 
ATOM     22  S   UNL     1      51.117   5.473  18.323  0.00  0.00    +0.000 S 
ATOM     23  C   UNL     1      51.258   3.856  17.830  0.00  0.00    +0.000 A 
ATOM     24  N   UNL     1      52.385   3.141  18.105  0.00  0.00    +0.000 NA
ATOM     25  C   UNL     1      52.329   1.901  17.754  0.00  0.00    +0.000 A 
ATOM     26  N   UNL     1      51.250   1.309  17.147  0.00  0.00    +0.000 N 
ATOM     27  C   UNL     1      50.104   2.003  16.812  0.00  0.00    +0.000 A 
ATOM     28  O   UNL     1      49.153   1.452  16.270  0.00  0.00    +0.000 OA
ATOM     29  C   UNL     1      50.114   3.401  17.192  0.00  0.00    +0.000 A 
ATOM     30  H   UNL     1      51.259   0.331  16.928  0.00  0.00    +0.000 HD
ENDBRANCH  19  20
ENDBRANCH   1  19
TORSDOF 6
ENDMDL
MODEL 3
REMARK VINA RESULT:    -6.807      1.559      2.482
REMARK INTER + INTRA:         -10.193
REMARK INTER:                  -9.310
REMARK INTRA:                  -0.883
REMARK UNBOUND:                -0.999
REMARK  Name = 
REMARK  7 active torsions:
REMARK  status: ('A' for Active; 'I' for Inactive)
REMARK    1  A    between atoms: C_1  and  C_2
REMARK    2  A    between atoms: C_2  and  N_3
REMARK    3  A    between atoms: C_2  and  C_17
REMARK    4  A    between atoms: N_3  and  C_4
REMARK    5  A    between atoms: C_7  and  C_8
REMARK    6  A    between atoms: C_8  and  N_9
REMARK    7  A    between atoms: N_9  and  C_10
REMARK                            x       y       z     vdW  Elec       q    Type
REMARK                         _______ _______ _______ _____ _____    ______ ____
ROOT
ATOM      1  N   UNL     1      48.356   7.193  14.407  0.00  0.00    +0.000 N 
ATOM      2  H   UNL     1      47.935   8.103  14.624  0.00  0.00    +0.000 HD
ENDROOT
BRANCH   1   3
ATOM      3  C   UNL     1      47.496   6.349  13.712  0.00  0.00    +0.000 A 
ATOM      4  C   UNL     1      47.060   5.110  14.179  0.00  0.00    +0.000 A 
ATOM      5  C   UNL     1      46.103   4.369  13.468  0.00  0.00    +0.000 A 
ATOM      6  C   UNL     1      45.575   4.828  12.256  0.00  0.00    +0.000 A 
ATOM      7  C   UNL     1      46.074   6.024  11.739  0.00  0.00    +0.000 A 
ATOM      8  C   UNL     1      47.014   6.775  12.467  0.00  0.00    +0.000 A 
BRANCH   6   9
ATOM      9  C   UNL     1      44.469   4.065  11.552  0.00  0.00    +0.000 C 
BRANCH   9  10
ATOM     10  N   UNL     1      45.008   2.860  10.915  0.00  0.00    +0.000 NA
ATOM     11  H   UNL     1      44.790   2.045  11.491  0.00  0.00    +0.000 HD
BRANCH  10  12
ATOM     12  C   UNL     1      44.567   2.649   9.532  0.00  0.00    +0.000 C 
ATOM     13  C   UNL     1      45.493   1.791   8.670  0.00  0.00    +0.000 C 
ATOM     14  C   UNL     1      46.337   2.791   7.908  0.00  0.00    +0.000 C 
ATOM     15  N   UNL     1      45.404   3.874   7.588  0.00  0.00    +0.000 NA
ATOM     16  C   UNL     1      44.536   3.999   8.774  0.00  0.00    +0.000 C 
ATOM     17  H   UNL     1      44.830   3.591   6.794  0.00  0.00    +0.000 HD
ENDBRANCH  10  12
ENDBRANCH   9  10
ENDBRANCH   6   9
ENDBRANCH   1   3
BRANCH   1  19
ATOM     18  C   UNL     1      50.644   7.430  15.123  0.00  0.00    +0.000 C 
ATOM     19  C   UNL     1      49.306   6.739  15.420  0.00  0.00    +0.000 C 
BRANCH  19  20
ATOM     20  C   UNL     1      48.965   6.844  16.902  0.00  0.00    +0.000 A 
ATOM     21  C   UNL     1      48.556   8.046  17.461  0.00  0.00    +0.000 A 
ATOM     22  S   UNL     1      48.301   7.968  19.145  0.00  0.00    +0.000 S 
ATOM     23  C   UNL     1      48.632   6.305  19.175  0.00  0.00    +0.000 A 
ATOM     24  N   UNL     1      48.547   5.600  20.337  0.00  0.00    +0.000 NA
ATOM     25  C   UNL     1      48.737   4.330  20.207  0.00  0.00    +0.000 A 
ATOM     26  N   UNL     1      49.008   3.699  19.018  0.00  0.00    +0.000 N 
ATOM     27  C   UNL     1      49.144   4.378  17.823  0.00  0.00    +0.000 A 
ATOM     28  O   UNL     1      49.387   3.792  16.775  0.00  0.00    +0.000 OA
ATOM     29  C   UNL     1      48.933   5.808  17.915  0.00  0.00    +0.000 A 
ATOM     30  H   UNL     1      49.114   2.703  18.981  0.00  0.00    +0.000 HD
ENDBRANCH  19  20
ENDBRANCH   1  19
TORSDOF 6
ENDMDL
MODEL 4
REMARK VINA RESULT:    -6.743      2.873      8.281
REMARK INTER + INTRA:         -10.106
REMARK INTER:                  -8.846
REMARK INTRA:                  -1.260
REMARK UNBOUND:                -0.999
REMARK  Name = 
REMARK  7 active torsions:
REMARK  status: ('A' for Active; 'I' for Inactive)
REMARK    1  A    between atoms: C_1  and  C_2
REMARK    2  A    between atoms: C_2  and  N_3
REMARK    3  A    between atoms: C_2  and  C_17
REMARK    4  A    between atoms: N_3  and  C_4
REMARK    5  A    between atoms: C_7  and  C_8
REMARK    6  A    between atoms: C_8  and  N_9
REMARK    7  A    between atoms: N_9  and  C_10
REMARK                            x       y       z     vdW  Elec       q    Type
REMARK                         _______ _______ _______ _____ _____    ______ ____
ROOT
ATOM      1  N   UNL     1      46.157   7.106  11.783  0.00  0.00    +0.000 N 
ATOM      2  H   UNL     1      46.615   6.878  10.894  0.00  0.00    +0.000 HD
ENDROOT
BRANCH   1   3
ATOM      3  C   UNL     1      47.035   7.104  12.862  0.00  0.00    +0.000 A 
ATOM      4  C   UNL     1      47.531   8.252  13.478  0.00  0.00    +0.000 A 
ATOM      5  C   UNL     1      48.323   8.165  14.633  0.00  0.00    +0.000 A 
ATOM      6  C   UNL     1      48.668   6.929  15.191  0.00  0.00    +0.000 A 
ATOM      7  C   UNL     1      48.251   5.775  14.528  0.00  0.00    +0.000 A 
ATOM      8  C   UNL     1      47.437   5.867  13.385  0.00  0.00    +0.000 A 
BRANCH   6   9
ATOM      9  C   UNL     1      49.439   6.854  16.495  0.00  0.00    +0.000 C 
BRANCH   9  10
ATOM     10  N   UNL     1      49.851   5.473  16.765  0.00  0.00    +0.000 NA
ATOM     11  H   UNL     1      50.864   5.440  16.891  0.00  0.00    +0.000 HD
BRANCH  10  12
ATOM     12  C   UNL     1      49.169   4.841  17.898  0.00  0.00    +0.000 C 
ATOM     13  C   UNL     1      48.549   3.473  17.613  0.00  0.00    +0.000 C 
ATOM     14  C   UNL     1      47.094   3.769  17.317  0.00  0.00    +0.000 C 
ATOM     15  N   UNL     1      46.749   4.838  18.257  0.00  0.00    +0.000 NA
ATOM     16  C   UNL     1      47.948   5.694  18.325  0.00  0.00    +0.000 C 
ATOM     17  H   UNL     1      46.590   4.428  19.177  0.00  0.00    +0.000 HD
ENDBRANCH  10  12
ENDBRANCH   9  10
ENDBRANCH   6   9
ENDBRANCH   1   3
BRANCH   1  19
ATOM     18  C   UNL     1      43.930   7.630  11.030  0.00  0.00    +0.000 C 
ATOM     19  C   UNL     1      44.772   6.647  11.854  0.00  0.00    +0.000 C 
BRANCH  19  20
ATOM     20  C   UNL     1      44.416   5.207  11.502  0.00  0.00    +0.000 A 
ATOM     21  C   UNL     1      43.544   4.470  12.290  0.00  0.00    +0.000 A 
ATOM     22  S   UNL     1      43.341   2.860  11.768  0.00  0.00    +0.000 S 
ATOM     23  C   UNL     1      44.333   3.115  10.416  0.00  0.00    +0.000 A 
ATOM     24  N   UNL     1      44.547   2.117   9.512  0.00  0.00    +0.000 NA
ATOM     25  C   UNL     1      45.247   2.467   8.487  0.00  0.00    +0.000 A 
ATOM     26  N   UNL     1      45.757   3.724   8.282  0.00  0.00    +0.000 N 
ATOM     27  C   UNL     1      45.601   4.754   9.189  0.00  0.00    +0.000 A 
ATOM     28  O   UNL     1      46.067   5.869   8.983  0.00  0.00    +0.000 OA
ATOM     29  C   UNL     1      44.816   4.414  10.357  0.00  0.00    +0.000 A 
ATOM     30  H   UNL     1      46.267   3.939   7.446  0.00  0.00    +0.000 HD
ENDBRANCH  19  20
ENDBRANCH   1  19
TORSDOF 6
ENDMDL
MODEL 5
REMARK VINA RESULT:    -6.544      1.913      2.901
REMARK INTER + INTRA:          -9.838
REMARK INTER:                  -8.931
REMARK INTRA:                  -0.907
REMARK UNBOUND:                -0.999
REMARK  Name = 
REMARK  7 active torsions:
REMARK  status: ('A' for Active; 'I' for Inactive)
REMARK    1  A    between atoms: C_1  and  C_2
REMARK    2  A    between atoms: C_2  and  N_3
REMARK    3  A    between atoms: C_2  and  C_17
REMARK    4  A    between atoms: N_3  and  C_4
REMARK    5  A    between atoms: C_7  and  C_8
REMARK    6  A    between atoms: C_8  and  N_9
REMARK    7  A    between atoms: N_9  and  C_10
REMARK                            x       y       z     vdW  Elec       q    Type
REMARK                         _______ _______ _______ _____ _____    ______ ____
ROOT
ATOM      1  N   UNL     1      47.824   5.509  15.060  0.00  0.00    +0.000 N 
ATOM      2  H   UNL     1      48.299   6.404  15.214  0.00  0.00    +0.000 HD
ENDROOT
BRANCH   1   3
ATOM      3  C   UNL     1      47.016   5.512  13.927  0.00  0.00    +0.000 A 
ATOM      4  C   UNL     1      47.237   6.304  12.801  0.00  0.00    +0.000 A 
ATOM      5  C   UNL     1      46.441   6.165  11.655  0.00  0.00    +0.000 A 
ATOM      6  C   UNL     1      45.380   5.253  11.607  0.00  0.00    +0.000 A 
ATOM      7  C   UNL     1      45.096   4.523  12.762  0.00  0.00    +0.000 A 
ATOM      8  C   UNL     1      45.913   4.646  13.900  0.00  0.00    +0.000 A 
BRANCH   6   9
ATOM      9  C   UNL     1      44.593   5.043  10.328  0.00  0.00    +0.000 C 
BRANCH   9  10
ATOM     10  N   UNL     1      45.489   5.074   9.168  0.00  0.00    +0.000 NA
ATOM     11  H   UNL     1      46.455   4.970   9.484  0.00  0.00    +0.000 HD
BRANCH  10  12
ATOM     12  C   UNL     1      45.178   4.089   8.127  0.00  0.00    +0.000 C 
ATOM     13  C   UNL     1      44.585   2.771   8.624  0.00  0.00    +0.000 C 
ATOM     14  C   UNL     1      45.769   1.830   8.707  0.00  0.00    +0.000 C 
ATOM     15  N   UNL     1      46.582   2.175   7.539  0.00  0.00    +0.000 NA
ATOM     16  C   UNL     1      46.478   3.641   7.416  0.00  0.00    +0.000 C 
ATOM     17  H   UNL     1      46.165   1.750   6.711  0.00  0.00    +0.000 HD
ENDBRANCH  10  12
ENDBRANCH   9  10
ENDBRANCH   6   9
ENDBRANCH   1   3
BRANCH   1  19
ATOM     18  C   UNL     1      48.069   3.391  16.180  0.00  0.00    +0.000 C 
ATOM     19  C   UNL     1      47.494   4.809  16.298  0.00  0.00    +0.000 C 
BRANCH  19  20
ATOM     20  C   UNL     1      47.846   5.420  17.650  0.00  0.00    +0.000 A 
ATOM     21  C   UNL     1      46.956   5.376  18.712  0.00  0.00    +0.000 A 
ATOM     22  S   UNL     1      47.509   6.186  20.106  0.00  0.00    +0.000 S 
ATOM     23  C   UNL     1      48.999   6.542  19.376  0.00  0.00    +0.000 A 
ATOM     24  N   UNL     1      49.970   7.203  20.066  0.00  0.00    +0.000 NA
ATOM     25  C   UNL     1      51.083   7.333  19.426  0.00  0.00    +0.000 A 
ATOM     26  N   UNL     1      51.314   6.865  18.157  0.00  0.00    +0.000 N 
ATOM     27  C   UNL     1      50.347   6.226  17.406  0.00  0.00    +0.000 A 
ATOM     28  O   UNL     1      50.577   5.818  16.274  0.00  0.00    +0.000 OA
ATOM     29  C   UNL     1      49.079   6.049  18.082  0.00  0.00    +0.000 A 
ATOM     30  H   UNL     1      52.214   6.971  17.728  0.00  0.00    +0.000 HD
ENDBRANCH  19  20
ENDBRANCH   1  19
TORSDOF 6
ENDMDL
MODEL 6
REMARK VINA RESULT:    -6.493      2.753      4.429
REMARK INTER + INTRA:          -9.769
REMARK INTER:                  -8.872
REMARK INTRA:                  -0.897
REMARK UNBOUND:                -0.999
REMARK  Name = 
REMARK  7 active torsions:
REMARK  status: ('A' for Active; 'I' for Inactive)
REMARK    1  A    between atoms: C_1  and  C_2
REMARK    2  A    between atoms: C_2  and  N_3
REMARK    3  A    between atoms: C_2  and  C_17
REMARK    4  A    between atoms: N_3  and  C_4
REMARK    5  A    between atoms: C_7  and  C_8
REMARK    6  A    between atoms: C_8  and  N_9
REMARK    7  A    between atoms: N_9  and  C_10
REMARK                            x       y       z     vdW  Elec       q    Type
REMARK                         _______ _______ _______ _____ _____    ______ ____
ROOT
ATOM      1  N   UNL     1      48.155   4.783  16.523  0.00  0.00    +0.000 N 
ATOM      2  H   UNL     1      48.228   3.777  16.707  0.00  0.00    +0.000 HD
ENDROOT
BRANCH   1   3
ATOM      3  C   UNL     1      47.695   5.069  15.241  0.00  0.00    +0.000 A 
ATOM      4  C   UNL     1      46.933   4.198  14.464  0.00  0.00    +0.000 A 
ATOM      5  C   UNL     1      46.412   4.605  13.226  0.00  0.00    +0.000 A 
ATOM      6  C   UNL     1      46.661   5.884  12.713  0.00  0.00    +0.000 A 
ATOM      7  C   UNL     1      47.498   6.727  13.444  0.00  0.00    +0.000 A 
ATOM      8  C   UNL     1      47.997   6.325  14.695  0.00  0.00    +0.000 A 
BRANCH   6   9
ATOM      9  C   UNL     1      46.009   6.343  11.423  0.00  0.00    +0.000 C 
BRANCH   9  10
ATOM     10  N   UNL     1      45.677   5.189  10.582  0.00  0.00    +0.000 NA
ATOM     11  H   UNL     1      46.066   4.342  11.000  0.00  0.00    +0.000 HD
BRANCH  10  12
ATOM     12  C   UNL     1      44.247   5.020  10.309  0.00  0.00    +0.000 C 
ATOM     13  C   UNL     1      43.304   5.746  11.267  0.00  0.00    +0.000 C 
ATOM     14  C   UNL     1      42.906   4.692  12.280  0.00  0.00    +0.000 C 
ATOM     15  N   UNL     1      42.766   3.470  11.485  0.00  0.00    +0.000 NA
ATOM     16  C   UNL     1      43.846   3.534  10.484  0.00  0.00    +0.000 C 
ATOM     17  H   UNL     1      41.870   3.494  10.998  0.00  0.00    +0.000 HD
ENDBRANCH  10  12
ENDBRANCH   9  10
ENDBRANCH   6   9
ENDBRANCH   1   3
BRANCH   1  19
ATOM     18  C   UNL     1      48.507   6.104  18.506  0.00  0.00    +0.000 C 
ATOM     19  C   UNL     1      49.164   5.573  17.224  0.00  0.00    +0.000 C 
BRANCH  19  20
ATOM     20  C   UNL     1      50.535   4.980  17.529  0.00  0.00    +0.000 A 
ATOM     21  C   UNL     1      51.599   5.788  17.904  0.00  0.00    +0.000 A 
ATOM     22  S   UNL     1      53.062   4.940  18.121  0.00  0.00    +0.000 S 
ATOM     23  C   UNL     1      52.308   3.451  17.818  0.00  0.00    +0.000 A 
ATOM     24  N   UNL     1      53.014   2.287  17.887  0.00  0.00    +0.000 NA
ATOM     25  C   UNL     1      52.305   1.222  17.722  0.00  0.00    +0.000 A 
ATOM     26  N   UNL     1      50.953   1.213  17.489  0.00  0.00    +0.000 N 
ATOM     27  C   UNL     1      50.204   2.368  17.371  0.00  0.00    +0.000 A 
ATOM     28  O   UNL     1      48.997   2.333  17.161  0.00  0.00    +0.000 OA
ATOM     29  C   UNL     1      50.954   3.593  17.554  0.00  0.00    +0.000 A 
ATOM     30  H   UNL     1      50.455   0.347  17.401  0.00  0.00    +0.000 HD
ENDBRANCH  19  20
ENDBRANCH   1  19
TORSDOF 6
ENDMDL
MODEL 7
REMARK VINA RESULT:    -6.436      2.526      3.673
REMARK INTER + INTRA:          -9.693
REMARK INTER:                  -8.286
REMARK INTRA:                  -1.406
REMARK UNBOUND:                -0.999
REMARK  Name = 
REMARK  7 active torsions:
REMARK  status: ('A' for Active; 'I' for Inactive)
REMARK    1  A    between atoms: C_1  and  C_2
REMARK    2  A    between atoms: C_2  and  N_3
REMARK    3  A    between atoms: C_2  and  C_17
REMARK    4  A    between atoms: N_3  and  C_4
REMARK    5  A    between atoms: C_7  and  C_8
REMARK    6  A    between atoms: C_8  and  N_9
REMARK    7  A    between atoms: N_9  and  C_10
REMARK                            x       y       z     vdW  Elec       q    Type
REMARK                         _______ _______ _______ _____ _____    ______ ____
ROOT
ATOM      1  N   UNL     1      49.883   7.045  13.977  0.00  0.00    +0.000 N 
ATOM      2  H   UNL     1      50.613   6.869  13.280  0.00  0.00    +0.000 HD
ENDROOT
BRANCH   1   3
ATOM      3  C   UNL     1      48.603   7.066  13.431  0.00  0.00    +0.000 A 
ATOM      4  C   UNL     1      48.092   8.108  12.660  0.00  0.00    +0.000 A 
ATOM      5  C   UNL     1      46.832   8.003  12.050  0.00  0.00    +0.000 A 
ATOM      6  C   UNL     1      46.033   6.866  12.216  0.00  0.00    +0.000 A 
ATOM      7  C   UNL     1      46.500   5.858  13.059  0.00  0.00    +0.000 A 
ATOM      8  C   UNL     1      47.774   5.957  13.648  0.00  0.00    +0.000 A 
BRANCH   6   9
ATOM      9  C   UNL     1      44.720   6.725  11.470  0.00  0.00    +0.000 C 
BRANCH   9  10
ATOM     10  N   UNL     1      44.822   5.671  10.455  0.00  0.00    +0.000 NA
ATOM     11  H   UNL     1      45.684   5.144  10.600  0.00  0.00    +0.000 HD
BRANCH  10  12
ATOM     12  C   UNL     1      43.668   4.768  10.392  0.00  0.00    +0.000 C 
ATOM     13  C   UNL     1      42.936   4.542  11.714  0.00  0.00    +0.000 C 
ATOM     14  C   UNL     1      43.512   3.248  12.251  0.00  0.00    +0.000 C 
ATOM     15  N   UNL     1      43.689   2.415  11.059  0.00  0.00    +0.000 NA
ATOM     16  C   UNL     1      44.133   3.343  10.002  0.00  0.00    +0.000 C 
ATOM     17  H   UNL     1      42.784   2.027  10.791  0.00  0.00    +0.000 HD
ENDBRANCH  10  12
ENDBRANCH   9  10
ENDBRANCH   6   9
ENDBRANCH   1   3
BRANCH   1  19
ATOM     18  C   UNL     1      50.816   9.220  14.426  0.00  0.00    +0.000 C 
ATOM     19  C   UNL     1      50.321   7.915  15.066  0.00  0.00    +0.000 C 
BRANCH  19  20
ATOM     20  C   UNL     1      49.394   8.210  16.240  0.00  0.00    +0.000 A 
ATOM     21  C   UNL     1      48.930   9.495  16.483  0.00  0.00    +0.000 A 
ATOM     22  S   UNL     1      47.974   9.625  17.888  0.00  0.00    +0.000 S 
ATOM     23  C   UNL     1      48.063   7.954  18.171  0.00  0.00    +0.000 A 
ATOM     24  N   UNL     1      47.409   7.392  19.225  0.00  0.00    +0.000 NA
ATOM     25  C   UNL     1      47.487   6.105  19.277  0.00  0.00    +0.000 A 
ATOM     26  N   UNL     1      48.163   5.327  18.371  0.00  0.00    +0.000 N 
ATOM     27  C   UNL     1      48.874   5.856  17.311  0.00  0.00    +0.000 A 
ATOM     28  O   UNL     1      49.471   5.140  16.516  0.00  0.00    +0.000 OA
ATOM     29  C   UNL     1      48.813   7.299  17.206  0.00  0.00    +0.000 A 
ATOM     30  H   UNL     1      48.158   4.327  18.450  0.00  0.00    +0.000 HD
ENDBRANCH  19  20
ENDBRANCH   1  19
TORSDOF 6
ENDMDL
MODEL 8
REMARK VINA RESULT:    -6.183      3.375      5.195
REMARK INTER + INTRA:          -9.351
REMARK INTER:                  -8.475
REMARK INTRA:                  -0.876
REMARK UNBOUND:                -0.999
REMARK  Name = 
REMARK  7 active torsions:
REMARK  status: ('A' for Active; 'I' for Inactive)
REMARK    1  A    between atoms: C_1  and  C_2
REMARK    2  A    between atoms: C_2  and  N_3
REMARK    3  A    between atoms: C_2  and  C_17
REMARK    4  A    between atoms: N_3  and  C_4
REMARK    5  A    between atoms: C_7  and  C_8
REMARK    6  A    between atoms: C_8  and  N_9
REMARK    7  A    between atoms: N_9  and  C_10
REMARK                            x       y       z     vdW  Elec       q    Type
REMARK                         _______ _______ _______ _____ _____    ______ ____
ROOT
ATOM      1  N   UNL     1      49.454   4.824  17.679  0.00  0.00    +0.000 N 
ATOM      2  H   UNL     1      49.276   3.962  18.205  0.00  0.00    +0.000 HD
ENDROOT
BRANCH   1   3
ATOM      3  C   UNL     1      48.598   4.985  16.594  0.00  0.00    +0.000 A 
ATOM      4  C   UNL     1      48.658   6.046  15.693  0.00  0.00    +0.000 A 
ATOM      5  C   UNL     1      47.832   6.077  14.559  0.00  0.00    +0.000 A 
ATOM      6  C   UNL     1      46.899   5.063  14.307  0.00  0.00    +0.000 A 
ATOM      7  C   UNL     1      46.771   4.046  15.252  0.00  0.00    +0.000 A 
ATOM      8  C   UNL     1      47.619   4.006  16.373  0.00  0.00    +0.000 A 
BRANCH   6   9
ATOM      9  C   UNL     1      46.085   5.059  13.027  0.00  0.00    +0.000 C 
BRANCH   9  10
ATOM     10  N   UNL     1      45.203   3.889  12.989  0.00  0.00    +0.000 NA
ATOM     11  H   UNL     1      44.987   3.596  13.943  0.00  0.00    +0.000 HD
BRANCH  10  12
ATOM     12  C   UNL     1      43.972   4.075  12.214  0.00  0.00    +0.000 C 
ATOM     13  C   UNL     1      43.599   2.920  11.285  0.00  0.00    +0.000 C 
ATOM     14  C   UNL     1      44.132   3.337   9.930  0.00  0.00    +0.000 C 
ATOM     15  N   UNL     1      43.877   4.778   9.874  0.00  0.00    +0.000 NA
ATOM     16  C   UNL     1      44.134   5.268  11.241  0.00  0.00    +0.000 C 
ATOM     17  H   UNL     1      42.893   4.930   9.654  0.00  0.00    +0.000 HD
ENDBRANCH  10  12
ENDBRANCH   9  10
ENDBRANCH   6   9
ENDBRANCH   1   3
BRANCH   1  19
ATOM     18  C   UNL     1      50.935   6.621  18.297  0.00  0.00    +0.000 C 
ATOM     19  C   UNL     1      50.861   5.219  17.676  0.00  0.00    +0.000 C 
BRANCH  19  20
ATOM     20  C   UNL     1      51.921   4.306  18.282  0.00  0.00    +0.000 A 
ATOM     21  C   UNL     1      52.809   4.775  19.239  0.00  0.00    +0.000 A 
ATOM     22  S   UNL     1      53.964   3.620  19.728  0.00  0.00    +0.000 S 
ATOM     23  C   UNL     1      53.262   2.423  18.753  0.00  0.00    +0.000 A 
ATOM     24  N   UNL     1      53.760   1.155  18.741  0.00  0.00    +0.000 NA
ATOM     25  C   UNL     1      53.083   0.321  18.026  0.00  0.00    +0.000 A 
ATOM     26  N   UNL     1      51.951   0.640  17.318  0.00  0.00    +0.000 N 
ATOM     27  C   UNL     1      51.434   1.920  17.268  0.00  0.00    +0.000 A 
ATOM     28  O   UNL     1      50.422   2.180  16.627  0.00  0.00    +0.000 OA
ATOM     29  C   UNL     1      52.156   2.893  18.060  0.00  0.00    +0.000 A 
ATOM     30  H   UNL     1      51.453  -0.063  16.807  0.00  0.00    +0.000 HD
ENDBRANCH  19  20
ENDBRANCH   1  19
TORSDOF 6
ENDMDL
MODEL 9
REMARK VINA RESULT:    -6.176      2.307      3.115
REMARK INTER + INTRA:          -9.341
REMARK INTER:                  -8.320
REMARK INTRA:                  -1.022
REMARK UNBOUND:                -0.999
REMARK  Name = 
REMARK  7 active torsions:
REMARK  status: ('A' for Active; 'I' for Inactive)
REMARK    1  A    between atoms: C_1  and  C_2
REMARK    2  A    between atoms: C_2  and  N_3
REMARK    3  A    between atoms: C_2  and  C_17
REMARK    4  A    between atoms: N_3  and  C_4
REMARK    5  A    between atoms: C_7  and  C_8
REMARK    6  A    between atoms: C_8  and  N_9
REMARK    7  A    between atoms: N_9  and  C_10
REMARK                            x       y       z     vdW  Elec       q    Type
REMARK                         _______ _______ _______ _____ _____    ______ ____
ROOT
ATOM      1  N   UNL     1      48.221   7.468  13.887  0.00  0.00    +0.000 N 
ATOM      2  H   UNL     1      47.928   8.433  14.072  0.00  0.00    +0.000 HD
ENDROOT
BRANCH   1   3
ATOM      3  C   UNL     1      47.182   6.663  13.431  0.00  0.00    +0.000 A 
ATOM      4  C   UNL     1      46.109   7.118  12.666  0.00  0.00    +0.000 A 
ATOM      5  C   UNL     1      45.161   6.221  12.150  0.00  0.00    +0.000 A 
ATOM      6  C   UNL     1      45.239   4.847  12.406  0.00  0.00    +0.000 A 
ATOM      7  C   UNL     1      46.258   4.397  13.245  0.00  0.00    +0.000 A 
ATOM      8  C   UNL     1      47.221   5.296  13.740  0.00  0.00    +0.000 A 
BRANCH   6   9
ATOM      9  C   UNL     1      44.266   3.881  11.758  0.00  0.00    +0.000 C 
BRANCH   9  10
ATOM     10  N   UNL     1      44.991   2.876  10.975  0.00  0.00    +0.000 NA
ATOM     11  H   UNL     1      44.941   1.974  11.452  0.00  0.00    +0.000 HD
BRANCH  10  12
ATOM     12  C   UNL     1      44.551   2.749   9.582  0.00  0.00    +0.000 C 
ATOM     13  C   UNL     1      45.354   1.772   8.725  0.00  0.00    +0.000 C 
ATOM     14  C   UNL     1      46.353   2.643   7.992  0.00  0.00    +0.000 C 
ATOM     15  N   UNL     1      45.600   3.858   7.671  0.00  0.00    +0.000 NA
ATOM     16  C   UNL     1      44.738   4.098   8.844  0.00  0.00    +0.000 C 
ATOM     17  H   UNL     1      45.005   3.673   6.863  0.00  0.00    +0.000 HD
ENDBRANCH  10  12
ENDBRANCH   9  10
ENDBRANCH   6   9
ENDBRANCH   1   3
BRANCH   1  19
ATOM     18  C   UNL     1      50.526   7.855  14.473  0.00  0.00    +0.000 C 
ATOM     19  C   UNL     1      49.284   7.006  14.777  0.00  0.00    +0.000 C 
BRANCH  19  20
ATOM     20  C   UNL     1      49.049   6.917  16.281  0.00  0.00    +0.000 A 
ATOM     21  C   UNL     1      49.386   5.776  16.994  0.00  0.00    +0.000 A 
ATOM     22  S   UNL     1      48.969   5.850  18.645  0.00  0.00    +0.000 S 
ATOM     23  C   UNL     1      48.411   7.444  18.490  0.00  0.00    +0.000 A 
ATOM     24  N   UNL     1      47.944   8.126  19.573  0.00  0.00    +0.000 NA
ATOM     25  C   UNL     1      47.634   9.356  19.337  0.00  0.00    +0.000 A 
ATOM     26  N   UNL     1      47.745   9.968  18.114  0.00  0.00    +0.000 N 
ATOM     27  C   UNL     1      48.174   9.306  16.980  0.00  0.00    +0.000 A 
ATOM     28  O   UNL     1      48.263   9.874  15.898  0.00  0.00    +0.000 OA
ATOM     29  C   UNL     1      48.541   7.921  17.194  0.00  0.00    +0.000 A 
ATOM     30  H   UNL     1      47.516  10.938  18.005  0.00  0.00    +0.000 HD
ENDBRANCH  19  20
ENDBRANCH   1  19
TORSDOF 6
ENDMDL
