MODEL 1
REMARK VINA RESULT:    -7.414      0.000      0.000
REMARK INTER + INTRA:         -11.102
REMARK INTER:                 -10.014
REMARK INTRA:                  -1.088
REMARK UNBOUND:                -1.088
REMARK  Name = 
REMARK  6 active torsions:
REMARK  status: ('A' for Active; 'I' for Inactive)
REMARK    1  A    between atoms: C_2  and  C_3
REMARK    2  A    between atoms: C_6  and  C_7
REMARK    3  A    between atoms: C_7  and  C_8
REMARK    4  A    between atoms: C_11  and  C_12
REMARK    5  A    between atoms: C_12  and  N_13
REMARK    6  A    between atoms: C_14  and  C_16
REMARK                            x       y       z     vdW  Elec       q    Type
REMARK                         _______ _______ _______ _____ _____    ______ ____
ROOT
ATOM      1  C   UNL     1      49.016   6.061  17.440  0.00  0.00    +0.000 C 
ENDROOT
BRANCH   1   5
ATOM      2  C   UNL     1      46.860   4.436  14.152  0.00  0.00    +0.000 A 
ATOM      3  C   UNL     1      47.516   5.654  13.983  0.00  0.00    +0.000 A 
ATOM      4  C   UNL     1      48.236   6.191  15.043  0.00  0.00    +0.000 A 
ATOM      5  C   UNL     1      48.256   5.523  16.267  0.00  0.00    +0.000 A 
ATOM      6  C   UNL     1      47.517   4.351  16.366  0.00  0.00    +0.000 A 
ATOM      7  N   UNL     1      46.846   3.783  15.336  0.00  0.00    +0.000 NA
BRANCH   2   8
ATOM      8  C   UNL     1      46.135   3.795  12.995  0.00  0.00    +0.000 C 
BRANCH   8  12
ATOM      9  C   UNL     1      44.324   4.163   9.739  0.00  0.00    +0.000 C 
ATOM     10  C   UNL     1      44.158   2.953  10.669  0.00  0.00    +0.000 C 
ATOM     11  C   UNL     1      43.734   3.372  12.075  0.00  0.00    +0.000 C 
ATOM     12  C   UNL     1      44.722   4.367  12.713  0.00  0.00    +0.000 C 
ATOM     13  C   UNL     1      44.808   5.599  11.792  0.00  0.00    +0.000 C 
ATOM     14  C   UNL     1      45.225   5.241  10.362  0.00  0.00    +0.000 C 
BRANCH   9  16
ATOM     15  N   UNL     1      45.301   3.384   7.416  0.00  0.00    +0.000 NA
ATOM     16  C   UNL     1      44.866   3.728   8.433  0.00  0.00    +0.000 C 
ENDBRANCH   9  16
ENDBRANCH   8  12
ENDBRANCH   2   8
ENDBRANCH   1   5
BRANCH   1  17
ATOM     17  N   UNL     1      50.066   5.165  17.848  0.00  0.00    +0.000 N 
ATOM     18  C   UNL     1      51.347   5.276  17.376  0.00  0.00    +0.000 C 
ATOM     19  O   UNL     1      51.678   6.150  16.579  0.00  0.00    +0.000 OA
ATOM     20  H   UNL     1      49.781   4.311  18.317  0.00  0.00    +0.000 HD
BRANCH  18  21
ATOM     21  C   UNL     1      52.325   4.339  17.938  0.00  0.00    +0.000 A 
ATOM     22  C   UNL     1      53.430   4.830  18.620  0.00  0.00    +0.000 A 
ATOM     23  S   UNL     1      54.448   3.609  19.238  0.00  0.00    +0.000 S 
ATOM     24  C   UNL     1      53.471   2.384  18.577  0.00  0.00    +0.000 A 
ATOM     25  N   UNL     1      53.805   1.072  18.718  0.00  0.00    +0.000 NA
ATOM     26  C   UNL     1      52.995   0.252  18.136  0.00  0.00    +0.000 A 
ATOM     27  N   UNL     1      51.877   0.622  17.438  0.00  0.00    +0.000 N 
ATOM     28  C   UNL     1      51.461   1.927  17.331  0.00  0.00    +0.000 A 
ATOM     29  O   UNL     1      50.387   2.216  16.809  0.00  0.00    +0.000 OA
ATOM     30  C   UNL     1      52.365   2.897  17.922  0.00  0.00    +0.000 A 
ATOM     31  H   UNL     1      51.268  -0.074  17.031  0.00  0.00    +0.000 HD
ENDBRANCH  18  21
ENDBRANCH   1  17
TORSDOF 6
ENDMDL
MODEL 2
REMARK VINA RESULT:    -6.831      3.133      9.177
REMARK INTER + INTRA:         -10.315
REMARK INTER:                  -9.387
REMARK INTRA:                  -0.928
REMARK UNBOUND:                -1.088
REMARK  Name = 
REMARK  6 active torsions:
REMARK  status: ('A' for Active; 'I' for Inactive)
REMARK    1  A    between atoms: C_2  and  C_3
REMARK    2  A    between atoms: C_6  and  C_7
REMARK    3  A    between atoms: C_7  and  C_8
REMARK    4  A    between atoms: C_11  and  C_12
REMARK    5  A    between atoms: C_12  and  N_13
REMARK    6  A    between atoms: C_14  and  C_16
REMARK                            x       y       z     vdW  Elec       q    Type
REMARK                         _______ _______ _______ _____ _____    ______ ____
ROOT
ATOM      1  C   UNL     1      48.804   5.663  17.451  0.00  0.00    +0.000 C 
ENDROOT
BRANCH   1   5
ATOM      2  C   UNL     1      51.310   2.225  17.421  0.00  0.00    +0.000 A 
ATOM      3  C   UNL     1      49.940   2.054  17.230  0.00  0.00    +0.000 A 
ATOM      4  C   UNL     1      49.110   3.169  17.223  0.00  0.00    +0.000 A 
ATOM      5  C   UNL     1      49.656   4.432  17.447  0.00  0.00    +0.000 A 
ATOM      6  C   UNL     1      51.021   4.502  17.697  0.00  0.00    +0.000 A 
ATOM      7  N   UNL     1      51.858   3.437  17.663  0.00  0.00    +0.000 NA
BRANCH   2   8
ATOM      8  C   UNL     1      52.241   1.040  17.358  0.00  0.00    +0.000 C 
BRANCH   8  12
ATOM      9  C   UNL     1      55.186  -1.262  17.580  0.00  0.00    +0.000 C 
ATOM     10  C   UNL     1      54.726  -0.595  16.275  0.00  0.00    +0.000 C 
ATOM     11  C   UNL     1      54.663   0.925  16.406  0.00  0.00    +0.000 C 
ATOM     12  C   UNL     1      53.741   1.377  17.554  0.00  0.00    +0.000 C 
ATOM     13  C   UNL     1      54.272   0.751  18.858  0.00  0.00    +0.000 C 
ATOM     14  C   UNL     1      54.364  -0.777  18.786  0.00  0.00    +0.000 C 
BRANCH   9  16
ATOM     15  N   UNL     1      55.025  -3.884  17.352  0.00  0.00    +0.000 NA
ATOM     16  C   UNL     1      55.100  -2.733  17.456  0.00  0.00    +0.000 C 
ENDBRANCH   9  16
ENDBRANCH   8  12
ENDBRANCH   2   8
ENDBRANCH   1   5
BRANCH   1  17
ATOM     17  N   UNL     1      47.986   5.745  16.269  0.00  0.00    +0.000 N 
ATOM     18  C   UNL     1      48.464   6.227  15.080  0.00  0.00    +0.000 C 
ATOM     19  O   UNL     1      49.620   6.618  14.949  0.00  0.00    +0.000 OA
ATOM     20  H   UNL     1      46.984   5.647  16.400  0.00  0.00    +0.000 HD
BRANCH  18  21
ATOM     21  C   UNL     1      47.537   6.180  13.945  0.00  0.00    +0.000 A 
ATOM     22  C   UNL     1      47.240   7.347  13.253  0.00  0.00    +0.000 A 
ATOM     23  S   UNL     1      46.175   7.112  11.943  0.00  0.00    +0.000 S 
ATOM     24  C   UNL     1      46.038   5.451  12.281  0.00  0.00    +0.000 A 
ATOM     25  N   UNL     1      45.232   4.650  11.532  0.00  0.00    +0.000 NA
ATOM     26  C   UNL     1      45.196   3.419  11.921  0.00  0.00    +0.000 A 
ATOM     27  N   UNL     1      45.901   2.914  12.981  0.00  0.00    +0.000 N 
ATOM     28  C   UNL     1      46.781   3.667  13.720  0.00  0.00    +0.000 A 
ATOM     29  O   UNL     1      47.493   3.157  14.581  0.00  0.00    +0.000 OA
ATOM     30  C   UNL     1      46.821   5.073  13.358  0.00  0.00    +0.000 A 
ATOM     31  H   UNL     1      45.850   1.933  13.215  0.00  0.00    +0.000 HD
ENDBRANCH  18  21
ENDBRANCH   1  17
TORSDOF 6
ENDMDL
MODEL 3
REMARK VINA RESULT:    -6.640      5.696      6.221
REMARK INTER + INTRA:         -10.057
REMARK INTER:                  -9.477
REMARK INTRA:                  -0.580
REMARK UNBOUND:                -1.088
REMARK  Name = 
REMARK  6 active torsions:
REMARK  status: ('A' for Active; 'I' for Inactive)
REMARK    1  A    between atoms: C_2  and  C_3
REMARK    2  A    between atoms: C_6  and  C_7
REMARK    3  A    between atoms: C_7  and  C_8
REMARK    4  A    between atoms: C_11  and  C_12
REMARK    5  A    between atoms: C_12  and  N_13
REMARK    6  A    between atoms: C_14  and  C_16
REMARK                            x       y       z     vdW  Elec       q    Type
REMARK                         _______ _______ _______ _____ _____    ______ ____
ROOT
ATOM      1  C   UNL     1      46.057   8.735  13.257  0.00  0.00    +0.000 C 
ENDROOT
BRANCH   1   5
ATOM      2  C   UNL     1      45.441   4.846  11.647  0.00  0.00    +0.000 A 
ATOM      3  C   UNL     1      44.713   5.910  11.117  0.00  0.00    +0.000 A 
ATOM      4  C   UNL     1      44.913   7.189  11.623  0.00  0.00    +0.000 A 
ATOM      5  C   UNL     1      45.807   7.378  12.677  0.00  0.00    +0.000 A 
ATOM      6  C   UNL     1      46.437   6.251  13.188  0.00  0.00    +0.000 A 
ATOM      7  N   UNL     1      46.294   5.002  12.684  0.00  0.00    +0.000 NA
BRANCH   2   8
ATOM      8  C   UNL     1      45.297   3.462  11.065  0.00  0.00    +0.000 C 
BRANCH   8  12
ATOM      9  C   UNL     1      46.067   2.479   7.536  0.00  0.00    +0.000 C 
ATOM     10  C   UNL     1      45.558   1.495   8.598  0.00  0.00    +0.000 C 
ATOM     11  C   UNL     1      44.241   1.960   9.217  0.00  0.00    +0.000 C 
ATOM     12  C   UNL     1      44.350   3.363   9.841  0.00  0.00    +0.000 C 
ATOM     13  C   UNL     1      44.792   4.338   8.733  0.00  0.00    +0.000 C 
ATOM     14  C   UNL     1      46.108   3.920   8.069  0.00  0.00    +0.000 C 
BRANCH   9  16
ATOM     15  N   UNL     1      48.453   1.746   6.682  0.00  0.00    +0.000 NA
ATOM     16  C   UNL     1      47.406   2.066   7.063  0.00  0.00    +0.000 C 
ENDBRANCH   9  16
ENDBRANCH   8  12
ENDBRANCH   2   8
ENDBRANCH   1   5
BRANCH   1  17
ATOM     17  N   UNL     1      47.415   9.163  13.040  0.00  0.00    +0.000 N 
ATOM     18  C   UNL     1      48.318   9.276  14.064  0.00  0.00    +0.000 C 
ATOM     19  O   UNL     1      48.024   9.018  15.228  0.00  0.00    +0.000 OA
ATOM     20  H   UNL     1      47.621   9.593  12.145  0.00  0.00    +0.000 HD
BRANCH  18  21
ATOM     21  C   UNL     1      49.683   9.649  13.682  0.00  0.00    +0.000 A 
ATOM     22  C   UNL     1      50.271  10.771  14.251  0.00  0.00    +0.000 A 
ATOM     23  S   UNL     1      51.870  11.045  13.726  0.00  0.00    +0.000 S 
ATOM     24  C   UNL     1      51.816   9.700  12.686  0.00  0.00    +0.000 A 
ATOM     25  N   UNL     1      52.881   9.382  11.900  0.00  0.00    +0.000 NA
ATOM     26  C   UNL     1      52.690   8.360  11.135  0.00  0.00    +0.000 A 
ATOM     27  N   UNL     1      51.539   7.620  11.093  0.00  0.00    +0.000 N 
ATOM     28  C   UNL     1      50.467   7.858  11.919  0.00  0.00    +0.000 A 
ATOM     29  O   UNL     1      49.501   7.100  11.948  0.00  0.00    +0.000 OA
ATOM     30  C   UNL     1      50.608   9.031  12.763  0.00  0.00    +0.000 A 
ATOM     31  H   UNL     1      51.466   6.812  10.491  0.00  0.00    +0.000 HD
ENDBRANCH  18  21
ENDBRANCH   1  17
TORSDOF 6
ENDMDL
MODEL 4
REMARK VINA RESULT:    -6.638      3.542     10.127
REMARK INTER + INTRA:         -10.055
REMARK INTER:                  -9.144
REMARK INTRA:                  -0.911
REMARK UNBOUND:                -1.088
REMARK  Name = 
REMARK  6 active torsions:
REMARK  status: ('A' for Active; 'I' for Inactive)
REMARK    1  A    between atoms: C_2  and  C_3
REMARK    2  A    between atoms: C_6  and  C_7
REMARK    3  A    between atoms: C_7  and  C_8
REMARK    4  A    between atoms: C_11  and  C_12
REMARK    5  A    between atoms: C_12  and  N_13
REMARK    6  A    between atoms: C_14  and  C_16
REMARK                            x       y       z     vdW  Elec       q    Type
REMARK                         _______ _______ _______ _____ _____    ______ ____
ROOT
ATOM      1  C   UNL     1      47.221   3.420  16.796  0.00  0.00    +0.000 C 
ENDROOT
BRANCH   1   5
ATOM      2  C   UNL     1      51.377   3.787  17.628  0.00  0.00    +0.000 A 
ATOM      3  C   UNL     1      50.843   2.512  17.446  0.00  0.00    +0.000 A 
ATOM      4  C   UNL     1      49.490   2.376  17.160  0.00  0.00    +0.000 A 
ATOM      5  C   UNL     1      48.684   3.513  17.100  0.00  0.00    +0.000 A 
ATOM      6  C   UNL     1      49.286   4.737  17.363  0.00  0.00    +0.000 A 
ATOM      7  N   UNL     1      50.611   4.900  17.598  0.00  0.00    +0.000 NA
BRANCH   2   8
ATOM      8  C   UNL     1      52.856   3.965  17.866  0.00  0.00    +0.000 C 
BRANCH   8  12
ATOM      9  C   UNL     1      54.876   5.694  20.502  0.00  0.00    +0.000 C 
ATOM     10  C   UNL     1      53.342   5.620  20.521  0.00  0.00    +0.000 C 
ATOM     11  C   UNL     1      52.844   4.177  20.462  0.00  0.00    +0.000 C 
ATOM     12  C   UNL     1      53.368   3.425  19.225  0.00  0.00    +0.000 C 
ATOM     13  C   UNL     1      54.908   3.455  19.275  0.00  0.00    +0.000 C 
ATOM     14  C   UNL     1      55.470   4.879  19.341  0.00  0.00    +0.000 C 
BRANCH   9  16
ATOM     15  N   UNL     1      55.650   8.211  20.364  0.00  0.00    +0.000 NA
ATOM     16  C   UNL     1      55.314   7.104  20.420  0.00  0.00    +0.000 C 
ENDBRANCH   9  16
ENDBRANCH   8  12
ENDBRANCH   2   8
ENDBRANCH   1   5
BRANCH   1  17
ATOM     17  N   UNL     1      46.820   4.396  15.817  0.00  0.00    +0.000 N 
ATOM     18  C   UNL     1      46.859   4.141  14.471  0.00  0.00    +0.000 C 
ATOM     19  O   UNL     1      47.237   3.063  14.019  0.00  0.00    +0.000 OA
ATOM     20  H   UNL     1      46.722   5.353  16.138  0.00  0.00    +0.000 HD
BRANCH  18  21
ATOM     21  C   UNL     1      46.350   5.202  13.598  0.00  0.00    +0.000 A 
ATOM     22  C   UNL     1      47.130   6.327  13.360  0.00  0.00    +0.000 A 
ATOM     23  S   UNL     1      46.407   7.447  12.297  0.00  0.00    +0.000 S 
ATOM     24  C   UNL     1      45.008   6.489  12.153  0.00  0.00    +0.000 A 
ATOM     25  N   UNL     1      43.957   6.900  11.391  0.00  0.00    +0.000 NA
ATOM     26  C   UNL     1      42.948   6.094  11.401  0.00  0.00    +0.000 A 
ATOM     27  N   UNL     1      42.899   4.911  12.089  0.00  0.00    +0.000 N 
ATOM     28  C   UNL     1      43.962   4.422  12.810  0.00  0.00    +0.000 A 
ATOM     29  O   UNL     1      43.933   3.300  13.311  0.00  0.00    +0.000 OA
ATOM     30  C   UNL     1      45.104   5.315  12.878  0.00  0.00    +0.000 A 
ATOM     31  H   UNL     1      42.089   4.311  12.029  0.00  0.00    +0.000 HD
ENDBRANCH  18  21
ENDBRANCH   1  17
TORSDOF 6
ENDMDL
MODEL 5
REMARK VINA RESULT:    -6.632      3.597      4.891
REMARK INTER + INTRA:         -10.047
REMARK INTER:                  -9.579
REMARK INTRA:                  -0.467
REMARK UNBOUND:                -1.088
REMARK  Name = 
REMARK  6 active torsions:
REMARK  status: ('A' for Active; 'I' for Inactive)
REMARK    1  A    between atoms: C_2  and  C_3
REMARK    2  A    between atoms: C_6  and  C_7
REMARK    3  A    between atoms: C_7  and  C_8
REMARK    4  A    between atoms: C_11  and  C_12
REMARK    5  A    between atoms: C_12  and  N_13
REMARK    6  A    between atoms: C_14  and  C_16
REMARK                            x       y       z     vdW  Elec       q    Type
REMARK                         _______ _______ _______ _____ _____    ______ ____
ROOT
ATOM      1  C   UNL     1      46.755   8.961  13.309  0.00  0.00    +0.000 C 
ENDROOT
BRANCH   1   5
ATOM      2  C   UNL     1      45.778   5.120  11.763  0.00  0.00    +0.000 A 
ATOM      3  C   UNL     1      44.904   6.179  11.521  0.00  0.00    +0.000 A 
ATOM      4  C   UNL     1      45.216   7.443  12.007  0.00  0.00    +0.000 A 
ATOM      5  C   UNL     1      46.375   7.620  12.762  0.00  0.00    +0.000 A 
ATOM      6  C   UNL     1      47.151   6.496  13.013  0.00  0.00    +0.000 A 
ATOM      7  N   UNL     1      46.894   5.264  12.513  0.00  0.00    +0.000 NA
BRANCH   2   8
ATOM      8  C   UNL     1      45.499   3.756  11.183  0.00  0.00    +0.000 C 
BRANCH   8  12
ATOM      9  C   UNL     1      46.049   2.688   7.637  0.00  0.00    +0.000 C 
ATOM     10  C   UNL     1      45.484   1.762   8.724  0.00  0.00    +0.000 C 
ATOM     11  C   UNL     1      44.241   2.354   9.384  0.00  0.00    +0.000 C 
ATOM     12  C   UNL     1      44.505   3.743   9.993  0.00  0.00    +0.000 C 
ATOM     13  C   UNL     1      45.000   4.666   8.863  0.00  0.00    +0.000 C 
ATOM     14  C   UNL     1      46.246   4.121   8.158  0.00  0.00    +0.000 C 
BRANCH   9  16
ATOM     15  N   UNL     1      48.321   1.711   6.722  0.00  0.00    +0.000 NA
ATOM     16  C   UNL     1      47.325   2.146   7.122  0.00  0.00    +0.000 C 
ENDBRANCH   9  16
ENDBRANCH   8  12
ENDBRANCH   2   8
ENDBRANCH   1   5
BRANCH   1  17
ATOM     17  N   UNL     1      47.128   8.881  14.697  0.00  0.00    +0.000 N 
ATOM     18  C   UNL     1      48.436   8.846  15.103  0.00  0.00    +0.000 C 
ATOM     19  O   UNL     1      49.370   8.882  14.306  0.00  0.00    +0.000 OA
ATOM     20  H   UNL     1      46.398   8.624  15.353  0.00  0.00    +0.000 HD
BRANCH  18  21
ATOM     21  C   UNL     1      48.663   8.840  16.551  0.00  0.00    +0.000 A 
ATOM     22  C   UNL     1      48.481  10.009  17.278  0.00  0.00    +0.000 A 
ATOM     23  S   UNL     1      48.751   9.822  18.951  0.00  0.00    +0.000 S 
ATOM     24  C   UNL     1      49.165   8.183  18.756  0.00  0.00    +0.000 A 
ATOM     25  N   UNL     1      49.540   7.426  19.823  0.00  0.00    +0.000 NA
ATOM     26  C   UNL     1      49.861   6.212  19.526  0.00  0.00    +0.000 A 
ATOM     27  N   UNL     1      49.828   5.681  18.264  0.00  0.00    +0.000 N 
ATOM     28  C   UNL     1      49.388   6.385  17.169  0.00  0.00    +0.000 A 
ATOM     29  O   UNL     1      49.250   5.845  16.075  0.00  0.00    +0.000 OA
ATOM     30  C   UNL     1      49.065   7.775  17.438  0.00  0.00    +0.000 A 
ATOM     31  H   UNL     1      50.064   4.712  18.105  0.00  0.00    +0.000 HD
ENDBRANCH  18  21
ENDBRANCH   1  17
TORSDOF 6
ENDMDL
MODEL 6
REMARK VINA RESULT:    -6.545      4.040      9.143
REMARK INTER + INTRA:          -9.929
REMARK INTER:                  -9.372
REMARK INTRA:                  -0.556
REMARK UNBOUND:                -1.088
REMARK  Name = 
REMARK  6 active torsions:
REMARK  status: ('A' for Active; 'I' for Inactive)
REMARK    1  A    between atoms: C_2  and  C_3
REMARK    2  A    between atoms: C_6  and  C_7
REMARK    3  A    between atoms: C_7  and  C_8
REMARK    4  A    between atoms: C_11  and  C_12
REMARK    5  A    between atoms: C_12  and  N_13
REMARK    6  A    between atoms: C_14  and  C_16
REMARK                            x       y       z     vdW  Elec       q    Type
REMARK                         _______ _______ _______ _____ _____    ______ ____
ROOT
ATOM      1  C   UNL     1      47.262   7.812  12.134  0.00  0.00    +0.000 C 
ENDROOT
BRANCH   1   5
ATOM      2  C   UNL     1      49.474   7.623  15.764  0.00  0.00    +0.000 A 
ATOM      3  C   UNL     1      48.532   8.639  15.608  0.00  0.00    +0.000 A 
ATOM      4  C   UNL     1      47.792   8.706  14.434  0.00  0.00    +0.000 A 
ATOM      5  C   UNL     1      48.032   7.781  13.418  0.00  0.00    +0.000 A 
ATOM      6  C   UNL     1      49.037   6.846  13.631  0.00  0.00    +0.000 A 
ATOM      7  N   UNL     1      49.740   6.731  14.784  0.00  0.00    +0.000 NA
BRANCH   2   8
ATOM      8  C   UNL     1      50.236   7.484  17.058  0.00  0.00    +0.000 C 
BRANCH   8  12
ATOM      9  C   UNL     1      49.550   3.938  18.042  0.00  0.00    +0.000 C 
ATOM     10  C   UNL     1      50.701   4.771  18.623  0.00  0.00    +0.000 C 
ATOM     11  C   UNL     1      50.201   6.072  19.247  0.00  0.00    +0.000 C 
ATOM     12  C   UNL     1      49.408   6.935  18.248  0.00  0.00    +0.000 C 
ATOM     13  C   UNL     1      48.220   6.095  17.741  0.00  0.00    +0.000 C 
ATOM     14  C   UNL     1      48.660   4.772  17.107  0.00  0.00    +0.000 C 
BRANCH   9  16
ATOM     15  N   UNL     1      50.506   1.830  16.778  0.00  0.00    +0.000 NA
ATOM     16  C   UNL     1      50.087   2.760  17.328  0.00  0.00    +0.000 C 
ENDBRANCH   9  16
ENDBRANCH   8  12
ENDBRANCH   2   8
ENDBRANCH   1   5
BRANCH   1  17
ATOM     17  N   UNL     1      46.599   6.559  11.885  0.00  0.00    +0.000 N 
ATOM     18  C   UNL     1      45.238   6.465  11.754  0.00  0.00    +0.000 C 
ATOM     19  O   UNL     1      44.503   7.444  11.839  0.00  0.00    +0.000 OA
ATOM     20  H   UNL     1      47.143   5.716  12.033  0.00  0.00    +0.000 HD
BRANCH  18  21
ATOM     21  C   UNL     1      44.712   5.136  11.427  0.00  0.00    +0.000 A 
ATOM     22  C   UNL     1      43.911   4.471  12.347  0.00  0.00    +0.000 A 
ATOM     23  S   UNL     1      43.354   2.957  11.799  0.00  0.00    +0.000 S 
ATOM     24  C   UNL     1      44.199   3.116  10.331  0.00  0.00    +0.000 A 
ATOM     25  N   UNL     1      44.169   2.127   9.397  0.00  0.00    +0.000 NA
ATOM     26  C   UNL     1      44.884   2.365   8.348  0.00  0.00    +0.000 A 
ATOM     27  N   UNL     1      45.612   3.506   8.141  0.00  0.00    +0.000 N 
ATOM     28  C   UNL     1      45.614   4.560   9.022  0.00  0.00    +0.000 A 
ATOM     29  O   UNL     1      46.174   5.620   8.750  0.00  0.00    +0.000 OA
ATOM     30  C   UNL     1      44.870   4.323  10.245  0.00  0.00    +0.000 A 
ATOM     31  H   UNL     1      46.126   3.642   7.283  0.00  0.00    +0.000 HD
ENDBRANCH  18  21
ENDBRANCH   1  17
TORSDOF 6
ENDMDL
MODEL 7
REMARK VINA RESULT:    -6.088      1.555      2.760
REMARK INTER + INTRA:          -9.311
REMARK INTER:                  -8.607
REMARK INTRA:                  -0.703
REMARK UNBOUND:                -1.088
REMARK  Name = 
REMARK  6 active torsions:
REMARK  status: ('A' for Active; 'I' for Inactive)
REMARK    1  A    between atoms: C_2  and  C_3
REMARK    2  A    between atoms: C_6  and  C_7
REMARK    3  A    between atoms: C_7  and  C_8
REMARK    4  A    between atoms: C_11  and  C_12
REMARK    5  A    between atoms: C_12  and  N_13
REMARK    6  A    between atoms: C_14  and  C_16
REMARK                            x       y       z     vdW  Elec       q    Type
REMARK                         _______ _______ _______ _____ _____    ______ ____
ROOT
ATOM      1  C   UNL     1      48.276   3.099  17.746  0.00  0.00    +0.000 C 
ENDROOT
BRANCH   1   5
ATOM      2  C   UNL     1      47.403   5.113  14.101  0.00  0.00    +0.000 A 
ATOM      3  C   UNL     1      47.253   3.728  14.151  0.00  0.00    +0.000 A 
ATOM      4  C   UNL     1      47.520   3.057  15.338  0.00  0.00    +0.000 A 
ATOM      5  C   UNL     1      47.973   3.776  16.445  0.00  0.00    +0.000 A 
ATOM      6  C   UNL     1      48.160   5.142  16.285  0.00  0.00    +0.000 A 
ATOM      7  N   UNL     1      47.862   5.826  15.154  0.00  0.00    +0.000 NA
BRANCH   2   8
ATOM      8  C   UNL     1      47.047   5.873  12.847  0.00  0.00    +0.000 C 
BRANCH   8  12
ATOM      9  C   UNL     1      44.234   4.558  10.755  0.00  0.00    +0.000 C 
ATOM     10  C   UNL     1      44.500   4.107  12.199  0.00  0.00    +0.000 C 
ATOM     11  C   UNL     1      44.528   5.289  13.166  0.00  0.00    +0.000 C 
ATOM     12  C   UNL     1      45.574   6.348  12.768  0.00  0.00    +0.000 C 
ATOM     13  C   UNL     1      45.235   6.831  11.344  0.00  0.00    +0.000 C 
ATOM     14  C   UNL     1      45.187   5.686  10.328  0.00  0.00    +0.000 C 
BRANCH   9  16
ATOM     15  N   UNL     1      44.456   2.504   9.116  0.00  0.00    +0.000 NA
ATOM     16  C   UNL     1      44.352   3.406   9.835  0.00  0.00    +0.000 C 
ENDBRANCH   9  16
ENDBRANCH   8  12
ENDBRANCH   2   8
ENDBRANCH   1   5
BRANCH   1  17
ATOM     17  N   UNL     1      49.685   3.123  18.040  0.00  0.00    +0.000 N 
ATOM     18  C   UNL     1      50.586   2.340  17.367  0.00  0.00    +0.000 C 
ATOM     19  O   UNL     1      50.246   1.572  16.472  0.00  0.00    +0.000 OA
ATOM     20  H   UNL     1      49.963   3.567  18.909  0.00  0.00    +0.000 HD
BRANCH  18  21
ATOM     21  C   UNL     1      51.995   2.527  17.724  0.00  0.00    +0.000 A 
ATOM     22  C   UNL     1      52.769   1.423  18.061  0.00  0.00    +0.000 A 
ATOM     23  S   UNL     1      54.391   1.809  18.414  0.00  0.00    +0.000 S 
ATOM     24  C   UNL     1      54.106   3.469  18.174  0.00  0.00    +0.000 A 
ATOM     25  N   UNL     1      55.101   4.381  18.353  0.00  0.00    +0.000 NA
ATOM     26  C   UNL     1      54.736   5.606  18.172  0.00  0.00    +0.000 A 
ATOM     27  N   UNL     1      53.474   6.002  17.817  0.00  0.00    +0.000 N 
ATOM     28  C   UNL     1      52.458   5.113  17.556  0.00  0.00    +0.000 A 
ATOM     29  O   UNL     1      51.375   5.491  17.116  0.00  0.00    +0.000 OA
ATOM     30  C   UNL     1      52.800   3.723  17.796  0.00  0.00    +0.000 A 
ATOM     31  H   UNL     1      53.262   6.977  17.662  0.00  0.00    +0.000 HD
ENDBRANCH  18  21
ENDBRANCH   1  17
TORSDOF 6
ENDMDL
MODEL 8
REMARK VINA RESULT:    -5.417      3.910      9.540
REMARK INTER + INTRA:          -8.404
REMARK INTER:                  -7.172
REMARK INTRA:                  -1.232
REMARK UNBOUND:                -1.088
REMARK  Name = 
REMARK  6 active torsions:
REMARK  status: ('A' for Active; 'I' for Inactive)
REMARK    1  A    between atoms: C_2  and  C_3
REMARK    2  A    between atoms: C_6  and  C_7
REMARK    3  A    between atoms: C_7  and  C_8
REMARK    4  A    between atoms: C_11  and  C_12
REMARK    5  A    between atoms: C_12  and  N_13
REMARK    6  A    between atoms: C_14  and  C_16
REMARK                            x       y       z     vdW  Elec       q    Type
REMARK                         _______ _______ _______ _____ _____    ______ ____
ROOT
ATOM      1  C   UNL     1      47.482   3.572  16.584  0.00  0.00    +0.000 C 
ENDROOT
BRANCH   1   5
ATOM      2  C   UNL     1      51.101   5.326  17.971  0.00  0.00    +0.000 A 
ATOM      3  C   UNL     1      50.054   6.166  17.595  0.00  0.00    +0.000 A 
ATOM      4  C   UNL     1      48.860   5.608  17.154  0.00  0.00    +0.000 A 
ATOM      5  C   UNL     1      48.746   4.221  17.056  0.00  0.00    +0.000 A 
ATOM      6  C   UNL     1      49.863   3.465  17.385  0.00  0.00    +0.000 A 
ATOM      7  N   UNL     1      51.021   3.981  17.862  0.00  0.00    +0.000 NA
BRANCH   2   8
ATOM      8  C   UNL     1      52.379   5.905  18.525  0.00  0.00    +0.000 C 
BRANCH   8  12
ATOM      9  C   UNL     1      54.697   8.370  16.921  0.00  0.00    +0.000 C 
ATOM     10  C   UNL     1      54.947   7.743  18.300  0.00  0.00    +0.000 C 
ATOM     11  C   UNL     1      54.949   6.217  18.238  0.00  0.00    +0.000 C 
ATOM     12  C   UNL     1      53.639   5.652  17.658  0.00  0.00    +0.000 C 
ATOM     13  C   UNL     1      53.456   6.243  16.248  0.00  0.00    +0.000 C 
ATOM     14  C   UNL     1      53.451   7.775  16.244  0.00  0.00    +0.000 C 
BRANCH   9  16
ATOM     15  N   UNL     1      54.450  10.986  17.143  0.00  0.00    +0.000 NA
ATOM     16  C   UNL     1      54.565   9.837  17.047  0.00  0.00    +0.000 C 
ENDBRANCH   9  16
ENDBRANCH   8  12
ENDBRANCH   2   8
ENDBRANCH   1   5
BRANCH   1  17
ATOM     17  N   UNL     1      46.773   4.407  15.650  0.00  0.00    +0.000 N 
ATOM     18  C   UNL     1      46.805   4.184  14.299  0.00  0.00    +0.000 C 
ATOM     19  O   UNL     1      47.439   3.257  13.803  0.00  0.00    +0.000 OA
ATOM     20  H   UNL     1      46.434   5.297  15.999  0.00  0.00    +0.000 HD
BRANCH  18  21
ATOM     21  C   UNL     1      45.975   5.071  13.479  0.00  0.00    +0.000 A 
ATOM     22  C   UNL     1      44.818   4.577  12.891  0.00  0.00    +0.000 A 
ATOM     23  S   UNL     1      43.952   5.745  12.001  0.00  0.00    +0.000 S 
ATOM     24  C   UNL     1      45.115   6.941  12.333  0.00  0.00    +0.000 A 
ATOM     25  N   UNL     1      44.988   8.198  11.827  0.00  0.00    +0.000 NA
ATOM     26  C   UNL     1      45.961   8.992  12.129  0.00  0.00    +0.000 A 
ATOM     27  N   UNL     1      47.040   8.649  12.899  0.00  0.00    +0.000 N 
ATOM     28  C   UNL     1      47.174   7.416  13.490  0.00  0.00    +0.000 A 
ATOM     29  O   UNL     1      48.086   7.179  14.278  0.00  0.00    +0.000 OA
ATOM     30  C   UNL     1      46.134   6.465  13.140  0.00  0.00    +0.000 A 
ATOM     31  H   UNL     1      47.752   9.329  13.122  0.00  0.00    +0.000 HD
ENDBRANCH  18  21
ENDBRANCH   1  17
TORSDOF 6
ENDMDL
MODEL 9
REMARK VINA RESULT:    -5.369      3.006      4.188
REMARK INTER + INTRA:          -8.340
REMARK INTER:                  -7.735
REMARK INTRA:                  -0.606
REMARK UNBOUND:                -1.088
REMARK  Name = 
REMARK  6 active torsions:
REMARK  status: ('A' for Active; 'I' for Inactive)
REMARK    1  A    between atoms: C_2  and  C_3
REMARK    2  A    between atoms: C_6  and  C_7
REMARK    3  A    between atoms: C_7  and  C_8
REMARK    4  A    between atoms: C_11  and  C_12
REMARK    5  A    between atoms: C_12  and  N_13
REMARK    6  A    between atoms: C_14  and  C_16
REMARK                            x       y       z     vdW  Elec       q    Type
REMARK                         _______ _______ _______ _____ _____    ______ ____
ROOT
ATOM      1  C   UNL     1      48.443   3.220  17.977  0.00  0.00    +0.000 C 
ENDROOT
BRANCH   1   5
ATOM      2  C   UNL     1      48.137   6.429  15.200  0.00  0.00    +0.000 A 
ATOM      3  C   UNL     1      47.482   5.233  14.912  0.00  0.00    +0.000 A 
ATOM      4  C   UNL     1      47.561   4.180  15.816  0.00  0.00    +0.000 A 
ATOM      5  C   UNL     1      48.326   4.325  16.973  0.00  0.00    +0.000 A 
ATOM      6  C   UNL     1      49.001   5.526  17.145  0.00  0.00    +0.000 A 
ATOM      7  N   UNL     1      48.903   6.584  16.303  0.00  0.00    +0.000 NA
BRANCH   2   8
ATOM      8  C   UNL     1      48.006   7.611  14.272  0.00  0.00    +0.000 C 
BRANCH   8  12
ATOM      9  C   UNL     1      45.825   9.119  11.628  0.00  0.00    +0.000 C 
ATOM     10  C   UNL     1      47.272   9.562  11.889  0.00  0.00    +0.000 C 
ATOM     11  C   UNL     1      48.248   8.391  11.798  0.00  0.00    +0.000 C 
ATOM     12  C   UNL     1      47.889   7.250  12.768  0.00  0.00    +0.000 C 
ATOM     13  C   UNL     1      46.460   6.781  12.433  0.00  0.00    +0.000 C 
ATOM     14  C   UNL     1      45.433   7.916  12.502  0.00  0.00    +0.000 C 
BRANCH   9  16
ATOM     15  N   UNL     1      44.170  11.132  12.033  0.00  0.00    +0.000 NA
ATOM     16  C   UNL     1      44.900  10.249  11.861  0.00  0.00    +0.000 C 
ENDBRANCH   9  16
ENDBRANCH   8  12
ENDBRANCH   2   8
ENDBRANCH   1   5
BRANCH   1  17
ATOM     17  N   UNL     1      49.815   2.842  18.191  0.00  0.00    +0.000 N 
ATOM     18  C   UNL     1      50.519   2.097  17.283  0.00  0.00    +0.000 C 
ATOM     19  O   UNL     1      50.022   1.707  16.230  0.00  0.00    +0.000 OA
ATOM     20  H   UNL     1      50.178   2.951  19.133  0.00  0.00    +0.000 HD
BRANCH  18  21
ATOM     21  C   UNL     1      51.929   1.853  17.602  0.00  0.00    +0.000 A 
ATOM     22  C   UNL     1      52.380   0.549  17.763  0.00  0.00    +0.000 A 
ATOM     23  S   UNL     1      54.048   0.440  18.096  0.00  0.00    +0.000 S 
ATOM     24  C   UNL     1      54.218   2.132  18.082  0.00  0.00    +0.000 A 
ATOM     25  N   UNL     1      55.421   2.715  18.334  0.00  0.00    +0.000 NA
ATOM     26  C   UNL     1      55.398   4.006  18.327  0.00  0.00    +0.000 A 
ATOM     27  N   UNL     1      54.286   4.766  18.078  0.00  0.00    +0.000 N 
ATOM     28  C   UNL     1      53.068   4.222  17.747  0.00  0.00    +0.000 A 
ATOM     29  O   UNL     1      52.124   4.929  17.405  0.00  0.00    +0.000 OA
ATOM     30  C   UNL     1      53.025   2.772  17.793  0.00  0.00    +0.000 A 
ATOM     31  H   UNL     1      54.343   5.774  18.058  0.00  0.00    +0.000 HD
ENDBRANCH  18  21
ENDBRANCH   1  17
TORSDOF 6
ENDMDL
