MODEL 1
REMARK VINA RESULT:    -8.752      0.000      0.000
REMARK INTER + INTRA:         -13.955
REMARK INTER:                 -13.101
REMARK INTRA:                  -0.854
REMARK UNBOUND:                -0.854
REMARK  Name = 
REMARK  10 active torsions:
REMARK  status: ('A' for Active; 'I' for Inactive)
REMARK    1  A    between atoms: C_1  and  C_2
REMARK    2  A    between atoms: C_2  and  N_3
REMARK    3  A    between atoms: C_2  and  C_21
REMARK    4  A    between atoms: N_3  and  C_4
REMARK    5  A    between atoms: C_4  and  C_5
REMARK    6  A    between atoms: C_8  and  C_9
REMARK    7  A    between atoms: C_9  and  C_10
REMARK    8  A    between atoms: C_10  and  C_11
REMARK    9  A    between atoms: C_11  and  O_12
REMARK   10  A    between atoms: C_11  and  C_13
REMARK                            x       y       z     vdW  Elec       q    Type
REMARK                         _______ _______ _______ _____ _____    ______ ____
ROOT
ATOM      1  C   UNL     1      46.903   5.242  13.799  0.00  0.00    +0.000 A 
ATOM      2  C   UNL     1      46.951   3.869  13.573  0.00  0.00    +0.000 A 
ATOM      3  C   UNL     1      45.917   3.261  12.862  0.00  0.00    +0.000 A 
ATOM      4  C   UNL     1      44.842   4.025  12.409  0.00  0.00    +0.000 A 
ATOM      5  C   UNL     1      44.877   5.389  12.678  0.00  0.00    +0.000 A 
ATOM      6  N   UNL     1      45.872   6.006  13.359  0.00  0.00    +0.000 NA
ENDROOT
BRANCH   1   7
ATOM      7  C   UNL     1      47.995   5.934  14.603  0.00  0.00    +0.000 C 
BRANCH   7   8
ATOM      8  N   UNL     1      47.869   5.733  16.053  0.00  0.00    +0.000 NA
ATOM      9  H   UNL     1      48.539   6.330  16.531  0.00  0.00    +0.000 HD
BRANCH   8  11
ATOM     10  C   UNL     1      46.935   3.778  17.307  0.00  0.00    +0.000 C 
ATOM     11  C   UNL     1      48.100   4.345  16.486  0.00  0.00    +0.000 C 
BRANCH  11  12
ATOM     12  C   UNL     1      49.377   4.375  17.314  0.00  0.00    +0.000 A 
ATOM     13  C   UNL     1      49.759   5.464  18.086  0.00  0.00    +0.000 A 
ATOM     14  S   UNL     1      51.273   5.268  18.844  0.00  0.00    +0.000 S 
ATOM     15  C   UNL     1      51.467   3.715  18.178  0.00  0.00    +0.000 A 
ATOM     16  N   UNL     1      52.601   2.997  18.404  0.00  0.00    +0.000 NA
ATOM     17  C   UNL     1      52.610   1.831  17.843  0.00  0.00    +0.000 A 
ATOM     18  N   UNL     1      51.582   1.315  17.095  0.00  0.00    +0.000 N 
ATOM     19  C   UNL     1      50.401   1.989  16.869  0.00  0.00    +0.000 A 
ATOM     20  O   UNL     1      49.472   1.466  16.264  0.00  0.00    +0.000 OA
ATOM     21  C   UNL     1      50.371   3.330  17.427  0.00  0.00    +0.000 A 
ATOM     22  H   UNL     1      51.644   0.380  16.720  0.00  0.00    +0.000 HD
ENDBRANCH  11  12
ENDBRANCH   8  11
ENDBRANCH   7   8
ENDBRANCH   1   7
BRANCH   4  23
ATOM     23  C   UNL     1      43.692   3.403  11.662  0.00  0.00    +0.000 C 
BRANCH  23  24
ATOM     24  C   UNL     1      44.136   2.765  10.338  0.00  0.00    +0.000 C 
BRANCH  24  25
ATOM     25  C   UNL     1      44.769   3.793   9.392  0.00  0.00    +0.000 C 
BRANCH  25  26
ATOM     26  C   UNL     1      45.615   3.116   8.327  0.00  0.00    +0.000 A 
ATOM     27  C   UNL     1      46.014   1.788   8.469  0.00  0.00    +0.000 A 
ATOM     28  C   UNL     1      46.810   1.215   7.480  0.00  0.00    +0.000 A 
ATOM     29  C   UNL     1      47.187   1.980   6.382  0.00  0.00    +0.000 A 
ATOM     30  C   UNL     1      46.754   3.293   6.319  0.00  0.00    +0.000 A 
ATOM     31  N   UNL     1      45.991   3.881   7.265  0.00  0.00    +0.000 NA
ENDBRANCH  25  26
BRANCH  25  32
ATOM     32  O   UNL     1      43.720   4.527   8.752  0.00  0.00    +0.000 OA
ATOM     33  H   UNL     1      43.011   3.869   8.603  0.00  0.00    +0.000 HD
ENDBRANCH  25  32
ENDBRANCH  24  25
ENDBRANCH  23  24
ENDBRANCH   4  23
TORSDOF 9
ENDMDL
MODEL 2
REMARK VINA RESULT:    -8.532      1.094      1.533
REMARK INTER + INTRA:         -13.625
REMARK INTER:                 -13.017
REMARK INTRA:                  -0.608
REMARK UNBOUND:                -0.854
REMARK  Name = 
REMARK  10 active torsions:
REMARK  status: ('A' for Active; 'I' for Inactive)
REMARK    1  A    between atoms: C_1  and  C_2
REMARK    2  A    between atoms: C_2  and  N_3
REMARK    3  A    between atoms: C_2  and  C_21
REMARK    4  A    between atoms: N_3  and  C_4
REMARK    5  A    between atoms: C_4  and  C_5
REMARK    6  A    between atoms: C_8  and  C_9
REMARK    7  A    between atoms: C_9  and  C_10
REMARK    8  A    between atoms: C_10  and  C_11
REMARK    9  A    between atoms: C_11  and  O_12
REMARK   10  A    between atoms: C_11  and  C_13
REMARK                            x       y       z     vdW  Elec       q    Type
REMARK                         _______ _______ _______ _____ _____    ______ ____
ROOT
ATOM      1  C   UNL     1      47.469   5.927  13.864  0.00  0.00    +0.000 A 
ATOM      2  C   UNL     1      46.908   6.854  12.989  0.00  0.00    +0.000 A 
ATOM      3  C   UNL     1      45.888   6.446  12.131  0.00  0.00    +0.000 A 
ATOM      4  C   UNL     1      45.459   5.118  12.141  0.00  0.00    +0.000 A 
ATOM      5  C   UNL     1      46.074   4.262  13.049  0.00  0.00    +0.000 A 
ATOM      6  N   UNL     1      47.062   4.634  13.898  0.00  0.00    +0.000 NA
ENDROOT
BRANCH   1   7
ATOM      7  C   UNL     1      48.611   6.327  14.788  0.00  0.00    +0.000 C 
BRANCH   7   8
ATOM      8  N   UNL     1      48.308   6.129  16.212  0.00  0.00    +0.000 NA
ATOM      9  H   UNL     1      48.987   6.641  16.771  0.00  0.00    +0.000 HD
BRANCH   8  11
ATOM     10  C   UNL     1      47.116   4.336  17.489  0.00  0.00    +0.000 C 
ATOM     11  C   UNL     1      48.332   4.720  16.637  0.00  0.00    +0.000 C 
BRANCH  11  12
ATOM     12  C   UNL     1      49.621   4.547  17.430  0.00  0.00    +0.000 A 
ATOM     13  C   UNL     1      50.160   5.542  18.234  0.00  0.00    +0.000 A 
ATOM     14  S   UNL     1      51.651   5.117  18.941  0.00  0.00    +0.000 S 
ATOM     15  C   UNL     1      51.625   3.583  18.207  0.00  0.00    +0.000 A 
ATOM     16  N   UNL     1      52.660   2.714  18.372  0.00  0.00    +0.000 NA
ATOM     17  C   UNL     1      52.503   1.583  17.763  0.00  0.00    +0.000 A 
ATOM     18  N   UNL     1      51.400   1.239  17.024  0.00  0.00    +0.000 N 
ATOM     19  C   UNL     1      50.313   2.070  16.858  0.00  0.00    +0.000 A 
ATOM     20  O   UNL     1      49.310   1.700  16.259  0.00  0.00    +0.000 OA
ATOM     21  C   UNL     1      50.471   3.377  17.472  0.00  0.00    +0.000 A 
ATOM     22  H   UNL     1      51.330   0.321  16.609  0.00  0.00    +0.000 HD
ENDBRANCH  11  12
ENDBRANCH   8  11
ENDBRANCH   7   8
ENDBRANCH   1   7
BRANCH   4  23
ATOM     23  C   UNL     1      44.380   4.631  11.212  0.00  0.00    +0.000 C 
BRANCH  23  24
ATOM     24  C   UNL     1      44.884   4.464   9.772  0.00  0.00    +0.000 C 
BRANCH  24  25
ATOM     25  C   UNL     1      44.539   3.084   9.201  0.00  0.00    +0.000 C 
BRANCH  25  26
ATOM     26  C   UNL     1      45.609   2.599   8.237  0.00  0.00    +0.000 A 
ATOM     27  C   UNL     1      46.082   3.429   7.220  0.00  0.00    +0.000 A 
ATOM     28  C   UNL     1      47.045   2.935   6.344  0.00  0.00    +0.000 A 
ATOM     29  C   UNL     1      47.508   1.634   6.503  0.00  0.00    +0.000 A 
ATOM     30  C   UNL     1      46.983   0.874   7.534  0.00  0.00    +0.000 A 
ATOM     31  N   UNL     1      46.041   1.318   8.393  0.00  0.00    +0.000 NA
ENDBRANCH  25  26
BRANCH  25  32
ATOM     32  O   UNL     1      44.440   2.155  10.287  0.00  0.00    +0.000 OA
ATOM     33  H   UNL     1      43.657   2.448  10.794  0.00  0.00    +0.000 HD
ENDBRANCH  25  32
ENDBRANCH  24  25
ENDBRANCH  23  24
ENDBRANCH   4  23
TORSDOF 9
ENDMDL
MODEL 3
REMARK VINA RESULT:    -7.720      2.572      3.322
REMARK INTER + INTRA:         -12.410
REMARK INTER:                 -11.492
REMARK INTRA:                  -0.918
REMARK UNBOUND:                -0.854
REMARK  Name = 
REMARK  10 active torsions:
REMARK  status: ('A' for Active; 'I' for Inactive)
REMARK    1  A    between atoms: C_1  and  C_2
REMARK    2  A    between atoms: C_2  and  N_3
REMARK    3  A    between atoms: C_2  and  C_21
REMARK    4  A    between atoms: N_3  and  C_4
REMARK    5  A    between atoms: C_4  and  C_5
REMARK    6  A    between atoms: C_8  and  C_9
REMARK    7  A    between atoms: C_9  and  C_10
REMARK    8  A    between atoms: C_10  and  C_11
REMARK    9  A    between atoms: C_11  and  O_12
REMARK   10  A    between atoms: C_11  and  C_13
REMARK                            x       y       z     vdW  Elec       q    Type
REMARK                         _______ _______ _______ _____ _____    ______ ____
ROOT
ATOM      1  C   UNL     1      47.204   6.199  13.182  0.00  0.00    +0.000 A 
ATOM      2  C   UNL     1      46.473   5.142  13.721  0.00  0.00    +0.000 A 
ATOM      3  C   UNL     1      45.409   4.612  12.993  0.00  0.00    +0.000 A 
ATOM      4  C   UNL     1      45.074   5.157  11.753  0.00  0.00    +0.000 A 
ATOM      5  C   UNL     1      45.858   6.209  11.292  0.00  0.00    +0.000 A 
ATOM      6  N   UNL     1      46.902   6.738  11.975  0.00  0.00    +0.000 NA
ENDROOT
BRANCH   1   7
ATOM      7  C   UNL     1      48.348   6.828  13.965  0.00  0.00    +0.000 C 
BRANCH   7   8
ATOM      8  N   UNL     1      48.261   6.600  15.413  0.00  0.00    +0.000 NA
ATOM      9  H   UNL     1      47.373   6.960  15.754  0.00  0.00    +0.000 HD
BRANCH   8  11
ATOM     10  C   UNL     1      50.585   7.527  15.334  0.00  0.00    +0.000 C 
ATOM     11  C   UNL     1      49.342   7.238  16.184  0.00  0.00    +0.000 C 
BRANCH  11  12
ATOM     12  C   UNL     1      49.674   6.271  17.312  0.00  0.00    +0.000 A 
ATOM     13  C   UNL     1      50.676   5.314  17.225  0.00  0.00    +0.000 A 
ATOM     14  S   UNL     1      50.781   4.307  18.596  0.00  0.00    +0.000 S 
ATOM     15  C   UNL     1      49.497   5.120  19.361  0.00  0.00    +0.000 A 
ATOM     16  N   UNL     1      49.043   4.715  20.578  0.00  0.00    +0.000 NA
ATOM     17  C   UNL     1      48.069   5.429  21.043  0.00  0.00    +0.000 A 
ATOM     18  N   UNL     1      47.525   6.517  20.410  0.00  0.00    +0.000 N 
ATOM     19  C   UNL     1      47.975   6.987  19.194  0.00  0.00    +0.000 A 
ATOM     20  O   UNL     1      47.520   8.010  18.695  0.00  0.00    +0.000 OA
ATOM     21  C   UNL     1      49.027   6.178  18.603  0.00  0.00    +0.000 A 
ATOM     22  H   UNL     1      46.791   7.051  20.853  0.00  0.00    +0.000 HD
ENDBRANCH  11  12
ENDBRANCH   8  11
ENDBRANCH   7   8
ENDBRANCH   1   7
BRANCH   4  23
ATOM     23  C   UNL     1      43.915   4.632  10.949  0.00  0.00    +0.000 C 
BRANCH  23  24
ATOM     24  C   UNL     1      44.307   4.328   9.496  0.00  0.00    +0.000 C 
BRANCH  24  25
ATOM     25  C   UNL     1      44.361   2.821   9.221  0.00  0.00    +0.000 C 
BRANCH  25  26
ATOM     26  C   UNL     1      45.535   2.463   8.325  0.00  0.00    +0.000 A 
ATOM     27  C   UNL     1      46.084   3.407   7.458  0.00  0.00    +0.000 A 
ATOM     28  C   UNL     1      47.144   3.028   6.636  0.00  0.00    +0.000 A 
ATOM     29  C   UNL     1      47.622   1.725   6.699  0.00  0.00    +0.000 A 
ATOM     30  C   UNL     1      47.018   0.848   7.583  0.00  0.00    +0.000 A 
ATOM     31  N   UNL     1      45.983   1.179   8.385  0.00  0.00    +0.000 NA
ENDBRANCH  25  26
BRANCH  25  32
ATOM     32  O   UNL     1      44.508   2.137  10.470  0.00  0.00    +0.000 OA
ATOM     33  H   UNL     1      44.282   1.206  10.272  0.00  0.00    +0.000 HD
ENDBRANCH  25  32
ENDBRANCH  24  25
ENDBRANCH  23  24
ENDBRANCH   4  23
TORSDOF 9
ENDMDL
MODEL 4
REMARK VINA RESULT:    -7.510      2.463      3.597
REMARK INTER + INTRA:         -12.095
REMARK INTER:                 -10.877
REMARK INTRA:                  -1.218
REMARK UNBOUND:                -0.854
REMARK  Name = 
REMARK  10 active torsions:
REMARK  status: ('A' for Active; 'I' for Inactive)
REMARK    1  A    between atoms: C_1  and  C_2
REMARK    2  A    between atoms: C_2  and  N_3
REMARK    3  A    between atoms: C_2  and  C_21
REMARK    4  A    between atoms: N_3  and  C_4
REMARK    5  A    between atoms: C_4  and  C_5
REMARK    6  A    between atoms: C_8  and  C_9
REMARK    7  A    between atoms: C_9  and  C_10
REMARK    8  A    between atoms: C_10  and  C_11
REMARK    9  A    between atoms: C_11  and  O_12
REMARK   10  A    between atoms: C_11  and  C_13
REMARK                            x       y       z     vdW  Elec       q    Type
REMARK                         _______ _______ _______ _____ _____    ______ ____
ROOT
ATOM      1  C   UNL     1      47.999   6.756  13.446  0.00  0.00    +0.000 A 
ATOM      2  C   UNL     1      47.030   7.436  12.712  0.00  0.00    +0.000 A 
ATOM      3  C   UNL     1      45.762   6.873  12.578  0.00  0.00    +0.000 A 
ATOM      4  C   UNL     1      45.486   5.633  13.156  0.00  0.00    +0.000 A 
ATOM      5  C   UNL     1      46.513   5.027  13.872  0.00  0.00    +0.000 A 
ATOM      6  N   UNL     1      47.751   5.555  14.024  0.00  0.00    +0.000 NA
ENDROOT
BRANCH   1   7
ATOM      7  C   UNL     1      49.406   7.322  13.581  0.00  0.00    +0.000 C 
BRANCH   7   8
ATOM      8  N   UNL     1      50.112   6.854  14.781  0.00  0.00    +0.000 NA
ATOM      9  H   UNL     1      49.529   6.179  15.269  0.00  0.00    +0.000 HD
BRANCH   8  11
ATOM     10  C   UNL     1      51.892   7.802  16.265  0.00  0.00    +0.000 C 
ATOM     11  C   UNL     1      50.462   7.928  15.726  0.00  0.00    +0.000 C 
BRANCH  11  12
ATOM     12  C   UNL     1      49.449   7.830  16.858  0.00  0.00    +0.000 A 
ATOM     13  C   UNL     1      48.636   8.886  17.247  0.00  0.00    +0.000 A 
ATOM     14  S   UNL     1      47.655   8.534  18.595  0.00  0.00    +0.000 S 
ATOM     15  C   UNL     1      48.272   6.953  18.701  0.00  0.00    +0.000 A 
ATOM     16  N   UNL     1      47.871   6.114  19.695  0.00  0.00    +0.000 NA
ATOM     17  C   UNL     1      48.416   4.941  19.649  0.00  0.00    +0.000 A 
ATOM     18  N   UNL     1      49.308   4.530  18.692  0.00  0.00    +0.000 N 
ATOM     19  C   UNL     1      49.716   5.330  17.647  0.00  0.00    +0.000 A 
ATOM     20  O   UNL     1      50.452   4.904  16.764  0.00  0.00    +0.000 OA
ATOM     21  C   UNL     1      49.179   6.679  17.693  0.00  0.00    +0.000 A 
ATOM     22  H   UNL     1      49.663   3.584  18.698  0.00  0.00    +0.000 HD
ENDBRANCH  11  12
ENDBRANCH   8  11
ENDBRANCH   7   8
ENDBRANCH   1   7
BRANCH   4  23
ATOM     23  C   UNL     1      44.138   4.978  13.012  0.00  0.00    +0.000 C 
BRANCH  23  24
ATOM     24  C   UNL     1      44.250   3.502  12.607  0.00  0.00    +0.000 C 
BRANCH  24  25
ATOM     25  C   UNL     1      43.455   3.196  11.332  0.00  0.00    +0.000 C 
BRANCH  25  26
ATOM     26  C   UNL     1      44.354   3.197  10.107  0.00  0.00    +0.000 A 
ATOM     27  C   UNL     1      44.781   4.396   9.536  0.00  0.00    +0.000 A 
ATOM     28  C   UNL     1      45.583   4.350   8.397  0.00  0.00    +0.000 A 
ATOM     29  C   UNL     1      45.934   3.117   7.861  0.00  0.00    +0.000 A 
ATOM     30  C   UNL     1      45.463   1.974   8.484  0.00  0.00    +0.000 A 
ATOM     31  N   UNL     1      44.676   1.984   9.581  0.00  0.00    +0.000 NA
ENDBRANCH  25  26
BRANCH  25  32
ATOM     32  O   UNL     1      42.860   1.901  11.467  0.00  0.00    +0.000 OA
ATOM     33  H   UNL     1      43.265   1.365  10.756  0.00  0.00    +0.000 HD
ENDBRANCH  25  32
ENDBRANCH  24  25
ENDBRANCH  23  24
ENDBRANCH   4  23
TORSDOF 9
ENDMDL
MODEL 5
REMARK VINA RESULT:    -7.373      2.409      3.075
REMARK INTER + INTRA:         -11.891
REMARK INTER:                 -11.090
REMARK INTRA:                  -0.801
REMARK UNBOUND:                -0.854
REMARK  Name = 
REMARK  10 active torsions:
REMARK  status: ('A' for Active; 'I' for Inactive)
REMARK    1  A    between atoms: C_1  and  C_2
REMARK    2  A    between atoms: C_2  and  N_3
REMARK    3  A    between atoms: C_2  and  C_21
REMARK    4  A    between atoms: N_3  and  C_4
REMARK    5  A    between atoms: C_4  and  C_5
REMARK    6  A    between atoms: C_8  and  C_9
REMARK    7  A    between atoms: C_9  and  C_10
REMARK    8  A    between atoms: C_10  and  C_11
REMARK    9  A    between atoms: C_11  and  O_12
REMARK   10  A    between atoms: C_11  and  C_13
REMARK                            x       y       z     vdW  Elec       q    Type
REMARK                         _______ _______ _______ _____ _____    ______ ____
ROOT
ATOM      1  C   UNL     1      46.725   7.431  12.878  0.00  0.00    +0.000 A 
ATOM      2  C   UNL     1      45.468   7.950  12.573  0.00  0.00    +0.000 A 
ATOM      3  C   UNL     1      44.541   7.141  11.918  0.00  0.00    +0.000 A 
ATOM      4  C   UNL     1      44.886   5.839  11.556  0.00  0.00    +0.000 A 
ATOM      5  C   UNL     1      46.161   5.404  11.901  0.00  0.00    +0.000 A 
ATOM      6  N   UNL     1      47.079   6.165  12.543  0.00  0.00    +0.000 NA
ENDROOT
BRANCH   1   7
ATOM      7  C   UNL     1      47.776   8.296  13.558  0.00  0.00    +0.000 C 
BRANCH   7   8
ATOM      8  N   UNL     1      47.802   8.146  15.019  0.00  0.00    +0.000 NA
ATOM      9  H   UNL     1      47.191   8.843  15.436  0.00  0.00    +0.000 HD
BRANCH   8  11
ATOM     10  C   UNL     1      50.225   7.548  14.825  0.00  0.00    +0.000 C 
ATOM     11  C   UNL     1      49.142   8.296  15.611  0.00  0.00    +0.000 C 
BRANCH  11  12
ATOM     12  C   UNL     1      49.033   7.752  17.028  0.00  0.00    +0.000 A 
ATOM     13  C   UNL     1      49.236   8.528  18.161  0.00  0.00    +0.000 A 
ATOM     14  S   UNL     1      49.137   7.651  19.619  0.00  0.00    +0.000 S 
ATOM     15  C   UNL     1      48.806   6.203  18.790  0.00  0.00    +0.000 A 
ATOM     16  N   UNL     1      48.654   5.032  19.467  0.00  0.00    +0.000 NA
ATOM     17  C   UNL     1      48.399   4.013  18.710  0.00  0.00    +0.000 A 
ATOM     18  N   UNL     1      48.265   4.066  17.347  0.00  0.00    +0.000 N 
ATOM     19  C   UNL     1      48.374   5.233  16.621  0.00  0.00    +0.000 A 
ATOM     20  O   UNL     1      48.169   5.257  15.413  0.00  0.00    +0.000 OA
ATOM     21  C   UNL     1      48.724   6.394  17.422  0.00  0.00    +0.000 A 
ATOM     22  H   UNL     1      48.027   3.235  16.825  0.00  0.00    +0.000 HD
ENDBRANCH  11  12
ENDBRANCH   8  11
ENDBRANCH   7   8
ENDBRANCH   1   7
BRANCH   4  23
ATOM     23  C   UNL     1      43.923   4.943  10.823  0.00  0.00    +0.000 C 
BRANCH  23  24
ATOM     24  C   UNL     1      44.432   4.563   9.425  0.00  0.00    +0.000 C 
BRANCH  24  25
ATOM     25  C   UNL     1      44.548   3.044   9.252  0.00  0.00    +0.000 C 
BRANCH  25  26
ATOM     26  C   UNL     1      45.558   2.686   8.176  0.00  0.00    +0.000 A 
ATOM     27  C   UNL     1      46.213   1.454   8.193  0.00  0.00    +0.000 A 
ATOM     28  C   UNL     1      47.151   1.177   7.201  0.00  0.00    +0.000 A 
ATOM     29  C   UNL     1      47.412   2.131   6.225  0.00  0.00    +0.000 A 
ATOM     30  C   UNL     1      46.724   3.331   6.282  0.00  0.00    +0.000 A 
ATOM     31  N   UNL     1      45.817   3.635   7.236  0.00  0.00    +0.000 NA
ENDBRANCH  25  26
BRANCH  25  32
ATOM     32  O   UNL     1      44.976   2.477  10.495  0.00  0.00    +0.000 OA
ATOM     33  H   UNL     1      44.156   2.148  10.914  0.00  0.00    +0.000 HD
ENDBRANCH  25  32
ENDBRANCH  24  25
ENDBRANCH  23  24
ENDBRANCH   4  23
TORSDOF 9
ENDMDL
MODEL 6
REMARK VINA RESULT:    -6.954      3.709      8.932
REMARK INTER + INTRA:         -11.263
REMARK INTER:                 -10.034
REMARK INTRA:                  -1.229
REMARK UNBOUND:                -0.854
REMARK  Name = 
REMARK  10 active torsions:
REMARK  status: ('A' for Active; 'I' for Inactive)
REMARK    1  A    between atoms: C_1  and  C_2
REMARK    2  A    between atoms: C_2  and  N_3
REMARK    3  A    between atoms: C_2  and  C_21
REMARK    4  A    between atoms: N_3  and  C_4
REMARK    5  A    between atoms: C_4  and  C_5
REMARK    6  A    between atoms: C_8  and  C_9
REMARK    7  A    between atoms: C_9  and  C_10
REMARK    8  A    between atoms: C_10  and  C_11
REMARK    9  A    between atoms: C_11  and  O_12
REMARK   10  A    between atoms: C_11  and  C_13
REMARK                            x       y       z     vdW  Elec       q    Type
REMARK                         _______ _______ _______ _____ _____    ______ ____
ROOT
ATOM      1  C   UNL     1      48.559   7.579  13.952  0.00  0.00    +0.000 A 
ATOM      2  C   UNL     1      48.052   8.724  14.562  0.00  0.00    +0.000 A 
ATOM      3  C   UNL     1      48.277   8.924  15.923  0.00  0.00    +0.000 A 
ATOM      4  C   UNL     1      48.981   7.971  16.659  0.00  0.00    +0.000 A 
ATOM      5  C   UNL     1      49.452   6.860  15.968  0.00  0.00    +0.000 A 
ATOM      6  N   UNL     1      49.254   6.644  14.646  0.00  0.00    +0.000 NA
ENDROOT
BRANCH   1   7
ATOM      7  C   UNL     1      48.300   7.309  12.476  0.00  0.00    +0.000 C 
BRANCH   7   8
ATOM      8  N   UNL     1      47.170   6.402  12.237  0.00  0.00    +0.000 NA
ATOM      9  H   UNL     1      47.526   5.492  11.957  0.00  0.00    +0.000 HD
BRANCH   8  11
ATOM     10  C   UNL     1      45.132   7.774  11.755  0.00  0.00    +0.000 C 
ATOM     11  C   UNL     1      46.238   6.870  11.197  0.00  0.00    +0.000 C 
BRANCH  11  12
ATOM     12  C   UNL     1      45.643   5.613  10.577  0.00  0.00    +0.000 A 
ATOM     13  C   UNL     1      45.716   5.325   9.220  0.00  0.00    +0.000 A 
ATOM     14  S   UNL     1      44.895   3.899   8.779  0.00  0.00    +0.000 S 
ATOM     15  C   UNL     1      44.422   3.607  10.387  0.00  0.00    +0.000 A 
ATOM     16  N   UNL     1      43.638   2.539  10.699  0.00  0.00    +0.000 NA
ATOM     17  C   UNL     1      43.362   2.437  11.960  0.00  0.00    +0.000 A 
ATOM     18  N   UNL     1      43.815   3.292  12.932  0.00  0.00    +0.000 N 
ATOM     19  C   UNL     1      44.639   4.366  12.669  0.00  0.00    +0.000 A 
ATOM     20  O   UNL     1      45.090   5.062  13.571  0.00  0.00    +0.000 OA
ATOM     21  C   UNL     1      44.924   4.558  11.257  0.00  0.00    +0.000 A 
ATOM     22  H   UNL     1      43.590   3.127  13.902  0.00  0.00    +0.000 HD
ENDBRANCH  11  12
ENDBRANCH   8  11
ENDBRANCH   7   8
ENDBRANCH   1   7
BRANCH   4  23
ATOM     23  C   UNL     1      49.222   8.136  18.136  0.00  0.00    +0.000 C 
BRANCH  23  24
ATOM     24  C   UNL     1      48.198   7.365  18.981  0.00  0.00    +0.000 C 
BRANCH  24  25
ATOM     25  C   UNL     1      48.786   6.070  19.553  0.00  0.00    +0.000 C 
BRANCH  25  26
ATOM     26  C   UNL     1      48.562   4.898  18.613  0.00  0.00    +0.000 A 
ATOM     27  C   UNL     1      49.590   3.997  18.338  0.00  0.00    +0.000 A 
ATOM     28  C   UNL     1      49.348   2.952  17.450  0.00  0.00    +0.000 A 
ATOM     29  C   UNL     1      48.094   2.834  16.862  0.00  0.00    +0.000 A 
ATOM     30  C   UNL     1      47.129   3.773  17.184  0.00  0.00    +0.000 A 
ATOM     31  N   UNL     1      47.335   4.804  18.032  0.00  0.00    +0.000 NA
ENDBRANCH  25  26
BRANCH  25  32
ATOM     32  O   UNL     1      50.195   6.254  19.735  0.00  0.00    +0.000 OA
ATOM     33  H   UNL     1      50.530   6.500  18.850  0.00  0.00    +0.000 HD
ENDBRANCH  25  32
ENDBRANCH  24  25
ENDBRANCH  23  24
ENDBRANCH   4  23
TORSDOF 9
ENDMDL
MODEL 7
REMARK VINA RESULT:    -6.902      3.227      9.019
REMARK INTER + INTRA:         -11.185
REMARK INTER:                  -9.846
REMARK INTRA:                  -1.339
REMARK UNBOUND:                -0.854
REMARK  Name = 
REMARK  10 active torsions:
REMARK  status: ('A' for Active; 'I' for Inactive)
REMARK    1  A    between atoms: C_1  and  C_2
REMARK    2  A    between atoms: C_2  and  N_3
REMARK    3  A    between atoms: C_2  and  C_21
REMARK    4  A    between atoms: N_3  and  C_4
REMARK    5  A    between atoms: C_4  and  C_5
REMARK    6  A    between atoms: C_8  and  C_9
REMARK    7  A    between atoms: C_9  and  C_10
REMARK    8  A    between atoms: C_10  and  C_11
REMARK    9  A    between atoms: C_11  and  O_12
REMARK   10  A    between atoms: C_11  and  C_13
REMARK                            x       y       z     vdW  Elec       q    Type
REMARK                         _______ _______ _______ _____ _____    ______ ____
ROOT
ATOM      1  C   UNL     1      48.436   7.922  14.338  0.00  0.00    +0.000 A 
ATOM      2  C   UNL     1      48.071   8.901  15.259  0.00  0.00    +0.000 A 
ATOM      3  C   UNL     1      48.513   8.792  16.577  0.00  0.00    +0.000 A 
ATOM      4  C   UNL     1      49.289   7.698  16.962  0.00  0.00    +0.000 A 
ATOM      5  C   UNL     1      49.607   6.770  15.976  0.00  0.00    +0.000 A 
ATOM      6  N   UNL     1      49.198   6.856  14.688  0.00  0.00    +0.000 NA
ENDROOT
BRANCH   1   7
ATOM      7  C   UNL     1      47.941   7.988  12.900  0.00  0.00    +0.000 C 
BRANCH   7   8
ATOM      8  N   UNL     1      47.232   6.776  12.469  0.00  0.00    +0.000 NA
ATOM      9  H   UNL     1      47.886   6.157  11.998  0.00  0.00    +0.000 HD
BRANCH   8  11
ATOM     10  C   UNL     1      45.358   8.332  11.890  0.00  0.00    +0.000 C 
ATOM     11  C   UNL     1      46.106   7.036  11.556  0.00  0.00    +0.000 C 
BRANCH  11  12
ATOM     12  C   UNL     1      45.182   5.833  11.683  0.00  0.00    +0.000 A 
ATOM     13  C   UNL     1      44.405   5.584  12.806  0.00  0.00    +0.000 A 
ATOM     14  S   UNL     1      43.528   4.125  12.722  0.00  0.00    +0.000 S 
ATOM     15  C   UNL     1      44.145   3.778  11.176  0.00  0.00    +0.000 A 
ATOM     16  N   UNL     1      43.817   2.621  10.539  0.00  0.00    +0.000 NA
ATOM     17  C   UNL     1      44.353   2.492   9.367  0.00  0.00    +0.000 A 
ATOM     18  N   UNL     1      45.168   3.422   8.774  0.00  0.00    +0.000 N 
ATOM     19  C   UNL     1      45.499   4.623   9.364  0.00  0.00    +0.000 A 
ATOM     20  O   UNL     1      46.164   5.465   8.771  0.00  0.00    +0.000 OA
ATOM     21  C   UNL     1      44.972   4.784  10.708  0.00  0.00    +0.000 A 
ATOM     22  H   UNL     1      45.519   3.270   7.839  0.00  0.00    +0.000 HD
ENDBRANCH  11  12
ENDBRANCH   8  11
ENDBRANCH   7   8
ENDBRANCH   1   7
BRANCH   4  23
ATOM     23  C   UNL     1      49.763   7.529  18.381  0.00  0.00    +0.000 C 
BRANCH  23  24
ATOM     24  C   UNL     1      48.658   6.993  19.302  0.00  0.00    +0.000 C 
BRANCH  24  25
ATOM     25  C   UNL     1      48.930   5.550  19.742  0.00  0.00    +0.000 C 
BRANCH  25  26
ATOM     26  C   UNL     1      48.649   4.566  18.618  0.00  0.00    +0.000 A 
ATOM     27  C   UNL     1      49.612   3.636  18.227  0.00  0.00    +0.000 A 
ATOM     28  C   UNL     1      49.321   2.771  17.174  0.00  0.00    +0.000 A 
ATOM     29  C   UNL     1      48.086   2.857  16.543  0.00  0.00    +0.000 A 
ATOM     30  C   UNL     1      47.189   3.812  16.988  0.00  0.00    +0.000 A 
ATOM     31  N   UNL     1      47.443   4.673  17.997  0.00  0.00    +0.000 NA
ENDBRANCH  25  26
BRANCH  25  32
ATOM     32  O   UNL     1      50.308   5.441  20.117  0.00  0.00    +0.000 OA
ATOM     33  H   UNL     1      50.779   6.044  19.508  0.00  0.00    +0.000 HD
ENDBRANCH  25  32
ENDBRANCH  24  25
ENDBRANCH  23  24
ENDBRANCH   4  23
TORSDOF 9
ENDMDL
MODEL 8
REMARK VINA RESULT:    -6.559      3.411      9.722
REMARK INTER + INTRA:         -10.672
REMARK INTER:                  -9.409
REMARK INTRA:                  -1.263
REMARK UNBOUND:                -0.854
REMARK  Name = 
REMARK  10 active torsions:
REMARK  status: ('A' for Active; 'I' for Inactive)
REMARK    1  A    between atoms: C_1  and  C_2
REMARK    2  A    between atoms: C_2  and  N_3
REMARK    3  A    between atoms: C_2  and  C_21
REMARK    4  A    between atoms: N_3  and  C_4
REMARK    5  A    between atoms: C_4  and  C_5
REMARK    6  A    between atoms: C_8  and  C_9
REMARK    7  A    between atoms: C_9  and  C_10
REMARK    8  A    between atoms: C_10  and  C_11
REMARK    9  A    between atoms: C_11  and  O_12
REMARK   10  A    between atoms: C_11  and  C_13
REMARK                            x       y       z     vdW  Elec       q    Type
REMARK                         _______ _______ _______ _____ _____    ______ ____
ROOT
ATOM      1  C   UNL     1      47.753   6.431  13.861  0.00  0.00    +0.000 A 
ATOM      2  C   UNL     1      48.560   6.878  14.904  0.00  0.00    +0.000 A 
ATOM      3  C   UNL     1      48.681   6.096  16.052  0.00  0.00    +0.000 A 
ATOM      4  C   UNL     1      47.979   4.895  16.153  0.00  0.00    +0.000 A 
ATOM      5  C   UNL     1      47.198   4.526  15.063  0.00  0.00    +0.000 A 
ATOM      6  N   UNL     1      47.069   5.262  13.934  0.00  0.00    +0.000 NA
ENDROOT
BRANCH   1   7
ATOM      7  C   UNL     1      47.566   7.276  12.609  0.00  0.00    +0.000 C 
BRANCH   7   8
ATOM      8  N   UNL     1      46.989   6.532  11.481  0.00  0.00    +0.000 NA
ATOM      9  H   UNL     1      47.545   6.705  10.648  0.00  0.00    +0.000 HD
BRANCH   8  11
ATOM     10  C   UNL     1      45.005   7.884  12.193  0.00  0.00    +0.000 C 
ATOM     11  C   UNL     1      45.592   6.890  11.183  0.00  0.00    +0.000 C 
BRANCH  11  12
ATOM     12  C   UNL     1      44.815   5.581  11.203  0.00  0.00    +0.000 A 
ATOM     13  C   UNL     1      43.940   5.230  12.222  0.00  0.00    +0.000 A 
ATOM     14  S   UNL     1      43.268   3.674  12.041  0.00  0.00    +0.000 S 
ATOM     15  C   UNL     1      44.113   3.417  10.587  0.00  0.00    +0.000 A 
ATOM     16  N   UNL     1      44.013   2.233   9.923  0.00  0.00    +0.000 NA
ATOM     17  C   UNL     1      44.703   2.181   8.829  0.00  0.00    +0.000 A 
ATOM     18  N   UNL     1      45.464   3.208   8.335  0.00  0.00    +0.000 N 
ATOM     19  C   UNL     1      45.568   4.437   8.952  0.00  0.00    +0.000 A 
ATOM     20  O   UNL     1      46.192   5.359   8.441  0.00  0.00    +0.000 OA
ATOM     21  C   UNL     1      44.860   4.522  10.218  0.00  0.00    +0.000 A 
ATOM     22  H   UNL     1      45.946   3.108   7.453  0.00  0.00    +0.000 HD
ENDBRANCH  11  12
ENDBRANCH   8  11
ENDBRANCH   7   8
ENDBRANCH   1   7
BRANCH   4  23
ATOM     23  C   UNL     1      48.061   4.035  17.386  0.00  0.00    +0.000 C 
BRANCH  23  24
ATOM     24  C   UNL     1      49.081   4.570  18.401  0.00  0.00    +0.000 C 
BRANCH  24  25
ATOM     25  C   UNL     1      48.400   5.156  19.643  0.00  0.00    +0.000 C 
BRANCH  25  26
ATOM     26  C   UNL     1      48.864   6.577  19.911  0.00  0.00    +0.000 A 
ATOM     27  C   UNL     1      50.222   6.877  20.015  0.00  0.00    +0.000 A 
ATOM     28  C   UNL     1      50.602   8.189  20.287  0.00  0.00    +0.000 A 
ATOM     29  C   UNL     1      49.623   9.162  20.449  0.00  0.00    +0.000 A 
ATOM     30  C   UNL     1      48.297   8.782  20.335  0.00  0.00    +0.000 A 
ATOM     31  N   UNL     1      47.894   7.517  20.084  0.00  0.00    +0.000 NA
ENDBRANCH  25  26
BRANCH  25  32
ATOM     32  O   UNL     1      46.985   5.166  19.422  0.00  0.00    +0.000 OA
ATOM     33  H   UNL     1      46.827   4.436  18.790  0.00  0.00    +0.000 HD
ENDBRANCH  25  32
ENDBRANCH  24  25
ENDBRANCH  23  24
ENDBRANCH   4  23
TORSDOF 9
ENDMDL
MODEL 9
REMARK VINA RESULT:    -6.218      5.381      8.609
REMARK INTER + INTRA:         -10.162
REMARK INTER:                  -9.047
REMARK INTRA:                  -1.115
REMARK UNBOUND:                -0.854
REMARK  Name = 
REMARK  10 active torsions:
REMARK  status: ('A' for Active; 'I' for Inactive)
REMARK    1  A    between atoms: C_1  and  C_2
REMARK    2  A    between atoms: C_2  and  N_3
REMARK    3  A    between atoms: C_2  and  C_21
REMARK    4  A    between atoms: N_3  and  C_4
REMARK    5  A    between atoms: C_4  and  C_5
REMARK    6  A    between atoms: C_8  and  C_9
REMARK    7  A    between atoms: C_9  and  C_10
REMARK    8  A    between atoms: C_10  and  C_11
REMARK    9  A    between atoms: C_11  and  O_12
REMARK   10  A    between atoms: C_11  and  C_13
REMARK                            x       y       z     vdW  Elec       q    Type
REMARK                         _______ _______ _______ _____ _____    ______ ____
ROOT
ATOM      1  C   UNL     1      48.608   6.757  13.104  0.00  0.00    +0.000 A 
ATOM      2  C   UNL     1      48.908   7.339  11.875  0.00  0.00    +0.000 A 
ATOM      3  C   UNL     1      50.037   8.149  11.764  0.00  0.00    +0.000 A 
ATOM      4  C   UNL     1      50.836   8.386  12.883  0.00  0.00    +0.000 A 
ATOM      5  C   UNL     1      50.463   7.763  14.069  0.00  0.00    +0.000 A 
ATOM      6  N   UNL     1      49.376   6.966  14.203  0.00  0.00    +0.000 NA
ENDROOT
BRANCH   1   7
ATOM      7  C   UNL     1      47.363   5.899  13.272  0.00  0.00    +0.000 C 
BRANCH   7   8
ATOM      8  N   UNL     1      46.109   6.651  13.126  0.00  0.00    +0.000 NA
ATOM      9  H   UNL     1      45.406   6.249  13.741  0.00  0.00    +0.000 HD
BRANCH   8  11
ATOM     10  C   UNL     1      44.625   7.833  11.493  0.00  0.00    +0.000 C 
ATOM     11  C   UNL     1      45.572   6.655  11.755  0.00  0.00    +0.000 C 
BRANCH  11  12
ATOM     12  C   UNL     1      44.841   5.330  11.592  0.00  0.00    +0.000 A 
ATOM     13  C   UNL     1      44.021   4.786  12.572  0.00  0.00    +0.000 A 
ATOM     14  S   UNL     1      43.394   3.254  12.166  0.00  0.00    +0.000 S 
ATOM     15  C   UNL     1      44.185   3.267  10.660  0.00  0.00    +0.000 A 
ATOM     16  N   UNL     1      44.097   2.202   9.818  0.00  0.00    +0.000 NA
ATOM     17  C   UNL     1      44.743   2.352   8.706  0.00  0.00    +0.000 A 
ATOM     18  N   UNL     1      45.448   3.475   8.357  0.00  0.00    +0.000 N 
ATOM     19  C   UNL     1      45.537   4.592   9.160  0.00  0.00    +0.000 A 
ATOM     20  O   UNL     1      46.108   5.608   8.783  0.00  0.00    +0.000 OA
ATOM     21  C   UNL     1      44.880   4.445  10.448  0.00  0.00    +0.000 A 
ATOM     22  H   UNL     1      45.896   3.536   7.454  0.00  0.00    +0.000 HD
ENDBRANCH  11  12
ENDBRANCH   8  11
ENDBRANCH   7   8
ENDBRANCH   1   7
BRANCH   4  23
ATOM     23  C   UNL     1      52.048   9.276  12.812  0.00  0.00    +0.000 C 
BRANCH  23  24
ATOM     24  C   UNL     1      53.276   8.542  12.253  0.00  0.00    +0.000 C 
BRANCH  24  25
ATOM     25  C   UNL     1      53.738   9.137  10.918  0.00  0.00    +0.000 C 
BRANCH  25  26
ATOM     26  C   UNL     1      53.774   8.082   9.824  0.00  0.00    +0.000 A 
ATOM     27  C   UNL     1      52.597   7.643   9.218  0.00  0.00    +0.000 A 
ATOM     28  C   UNL     1      52.674   6.655   8.239  0.00  0.00    +0.000 A 
ATOM     29  C   UNL     1      53.915   6.134   7.893  0.00  0.00    +0.000 A 
ATOM     30  C   UNL     1      55.035   6.620   8.546  0.00  0.00    +0.000 A 
ATOM     31  N   UNL     1      54.994   7.568   9.507  0.00  0.00    +0.000 NA
ENDBRANCH  25  26
BRANCH  25  32
ATOM     32  O   UNL     1      52.819  10.166  10.536  0.00  0.00    +0.000 OA
ATOM     33  H   UNL     1      51.943   9.833  10.815  0.00  0.00    +0.000 HD
ENDBRANCH  25  32
ENDBRANCH  24  25
ENDBRANCH  23  24
ENDBRANCH   4  23
TORSDOF 9
ENDMDL
