MODEL 1
REMARK VINA RESULT:    -8.016      0.000      0.000
REMARK INTER + INTRA:         -10.385
REMARK INTER:                  -9.890
REMARK INTRA:                  -0.495
REMARK UNBOUND:                -0.495
REMARK  Name = 
REMARK  4 active torsions:
REMARK  status: ('A' for Active; 'I' for Inactive)
REMARK    1  A    between atoms: C_2  and  C_5
REMARK    2  A    between atoms: N_10  and  C_11
REMARK    3  A    between atoms: C_11  and  C_12
REMARK    4  A    between atoms: C_14  and  C_15
REMARK                            x       y       z     vdW  Elec       q    Type
REMARK                         _______ _______ _______ _____ _____    ______ ____
ROOT
ATOM      1  C   UNL     1      44.498   6.386  10.840  0.00  0.00    +0.000 C 
ENDROOT
BRANCH   1   7
ATOM      2  C   UNL     1      45.791   3.164   8.236  0.00  0.00    +0.000 A 
ATOM      3  C   UNL     1      45.323   1.906   8.619  0.00  0.00    +0.000 A 
ATOM      4  C   UNL     1      44.377   1.844   9.620  0.00  0.00    +0.000 A 
ATOM      5  N   UNL     1      43.875   2.932  10.252  0.00  0.00    +0.000 NA
ATOM      6  C   UNL     1      44.318   4.147   9.881  0.00  0.00    +0.000 A 
ATOM      7  N   UNL     1      43.694   5.225  10.487  0.00  0.00    +0.000 N 
ATOM      8  C   UNL     1      45.274   4.292   8.884  0.00  0.00    +0.000 A 
ATOM      9  H   UNL     1      43.159   4.855  11.273  0.00  0.00    +0.000 HD
BRANCH   2  11
ATOM     10  F   UNL     1      46.299   3.169   5.892  0.00  0.00    +0.000 F 
ATOM     11  C   UNL     1      46.807   3.338   7.144  0.00  0.00    +0.000 C 
ATOM     12  F   UNL     1      47.840   2.457   7.252  0.00  0.00    +0.000 F 
ATOM     13  F   UNL     1      47.372   4.576   7.155  0.00  0.00    +0.000 F 
ENDBRANCH   2  11
ENDBRANCH   1   7
BRANCH   1  14
ATOM     14  C   UNL     1      45.483   6.040  11.941  0.00  0.00    +0.000 A 
ATOM     15  C   UNL     1      46.706   6.714  12.031  0.00  0.00    +0.000 A 
ATOM     16  C   UNL     1      47.618   6.392  13.048  0.00  0.00    +0.000 A 
ATOM     17  C   UNL     1      47.227   5.394  13.951  0.00  0.00    +0.000 A 
ATOM     18  C   UNL     1      45.993   4.781  13.802  0.00  0.00    +0.000 A 
ATOM     19  N   UNL     1      45.117   5.081  12.825  0.00  0.00    +0.000 NA
BRANCH  16  20
ATOM     20  C   UNL     1      48.927   7.074  13.169  0.00  0.00    +0.000 A 
ATOM     21  C   UNL     1      49.538   7.294  14.410  0.00  0.00    +0.000 A 
ATOM     22  N   UNL     1      50.723   7.929  14.602  0.00  0.00    +0.000 NA
ATOM     23  C   UNL     1      51.357   8.370  13.495  0.00  0.00    +0.000 A 
ATOM     24  C   UNL     1      50.860   8.197  12.215  0.00  0.00    +0.000 A 
ATOM     25 BR   UNL     1      51.815   8.829  10.718  0.00  0.00    +0.000 Br
ATOM     26  C   UNL     1      49.636   7.547  12.053  0.00  0.00    +0.000 A 
ENDBRANCH  16  20
ENDBRANCH   1  14
TORSDOF 4
ENDMDL
MODEL 2
REMARK VINA RESULT:    -7.490      4.389      7.781
REMARK INTER + INTRA:          -9.736
REMARK INTER:                  -9.078
REMARK INTRA:                  -0.658
REMARK UNBOUND:                -0.495
REMARK  Name = 
REMARK  4 active torsions:
REMARK  status: ('A' for Active; 'I' for Inactive)
REMARK    1  A    between atoms: C_2  and  C_5
REMARK    2  A    between atoms: N_10  and  C_11
REMARK    3  A    between atoms: C_11  and  C_12
REMARK    4  A    between atoms: C_14  and  C_15
REMARK                            x       y       z     vdW  Elec       q    Type
REMARK                         _______ _______ _______ _____ _____    ______ ____
ROOT
ATOM      1  C   UNL     1      48.523   7.344  13.951  0.00  0.00    +0.000 C 
ENDROOT
BRANCH   1   7
ATOM      2  C   UNL     1      48.519   4.368  17.110  0.00  0.00    +0.000 A 
ATOM      3  C   UNL     1      49.018   4.835  18.326  0.00  0.00    +0.000 A 
ATOM      4  C   UNL     1      49.262   6.186  18.451  0.00  0.00    +0.000 A 
ATOM      5  N   UNL     1      49.043   7.086  17.462  0.00  0.00    +0.000 NA
ATOM      6  C   UNL     1      48.555   6.641  16.290  0.00  0.00    +0.000 A 
ATOM      7  N   UNL     1      48.254   7.618  15.355  0.00  0.00    +0.000 N 
ATOM      8  C   UNL     1      48.289   5.294  16.085  0.00  0.00    +0.000 A 
ATOM      9  H   UNL     1      48.682   8.486  15.683  0.00  0.00    +0.000 HD
BRANCH   2  11
ATOM     10  F   UNL     1      47.151   2.465  17.616  0.00  0.00    +0.000 F 
ATOM     11  C   UNL     1      48.204   2.918  16.881  0.00  0.00    +0.000 C 
ATOM     12  F   UNL     1      49.253   2.105  17.188  0.00  0.00    +0.000 F 
ATOM     13  F   UNL     1      47.896   2.653  15.582  0.00  0.00    +0.000 F 
ENDBRANCH   2  11
ENDBRANCH   1   7
BRANCH   1  14
ATOM     14  C   UNL     1      47.242   7.407  13.139  0.00  0.00    +0.000 A 
ATOM     15  C   UNL     1      46.833   6.304  12.382  0.00  0.00    +0.000 A 
ATOM     16  C   UNL     1      45.650   6.362  11.628  0.00  0.00    +0.000 A 
ATOM     17  C   UNL     1      44.918   7.555  11.699  0.00  0.00    +0.000 A 
ATOM     18  C   UNL     1      45.384   8.598  12.482  0.00  0.00    +0.000 A 
ATOM     19  N   UNL     1      46.521   8.551  13.201  0.00  0.00    +0.000 NA
BRANCH  16  20
ATOM     20  C   UNL     1      45.191   5.221  10.804  0.00  0.00    +0.000 A 
ATOM     21  C   UNL     1      44.172   4.360  11.230  0.00  0.00    +0.000 A 
ATOM     22  N   UNL     1      43.712   3.283  10.542  0.00  0.00    +0.000 NA
ATOM     23  C   UNL     1      44.290   3.041   9.346  0.00  0.00    +0.000 A 
ATOM     24  C   UNL     1      45.294   3.830   8.814  0.00  0.00    +0.000 A 
ATOM     25 BR   UNL     1      46.037   3.433   7.127  0.00  0.00    +0.000 Br
ATOM     26  C   UNL     1      45.748   4.925   9.550  0.00  0.00    +0.000 A 
ENDBRANCH  16  20
ENDBRANCH   1  14
TORSDOF 4
ENDMDL
MODEL 3
REMARK VINA RESULT:    -7.447      5.428      8.091
REMARK INTER + INTRA:          -9.684
REMARK INTER:                  -9.218
REMARK INTRA:                  -0.466
REMARK UNBOUND:                -0.495
REMARK  Name = 
REMARK  4 active torsions:
REMARK  status: ('A' for Active; 'I' for Inactive)
REMARK    1  A    between atoms: C_2  and  C_5
REMARK    2  A    between atoms: N_10  and  C_11
REMARK    3  A    between atoms: C_11  and  C_12
REMARK    4  A    between atoms: C_14  and  C_15
REMARK                            x       y       z     vdW  Elec       q    Type
REMARK                         _______ _______ _______ _____ _____    ______ ____
ROOT
ATOM      1  C   UNL     1      45.435   4.772  14.098  0.00  0.00    +0.000 C 
ENDROOT
BRANCH   1   7
ATOM      2  C   UNL     1      48.341   4.621  17.318  0.00  0.00    +0.000 A 
ATOM      3  C   UNL     1      48.952   3.376  17.469  0.00  0.00    +0.000 A 
ATOM      4  C   UNL     1      48.729   2.422  16.498  0.00  0.00    +0.000 A 
ATOM      5  N   UNL     1      47.954   2.625  15.406  0.00  0.00    +0.000 NA
ATOM      6  C   UNL     1      47.369   3.827  15.253  0.00  0.00    +0.000 A 
ATOM      7  N   UNL     1      46.675   4.011  14.068  0.00  0.00    +0.000 N 
ATOM      8  C   UNL     1      47.540   4.837  16.190  0.00  0.00    +0.000 A 
ATOM      9  H   UNL     1      46.569   3.090  13.640  0.00  0.00    +0.000 HD
BRANCH   2  11
ATOM     10  F   UNL     1      49.701   5.640  19.009  0.00  0.00    +0.000 F 
ATOM     11  C   UNL     1      48.535   5.730  18.312  0.00  0.00    +0.000 C 
ATOM     12  F   UNL     1      47.543   5.772  19.243  0.00  0.00    +0.000 F 
ATOM     13  F   UNL     1      48.544   6.957  17.723  0.00  0.00    +0.000 F 
ENDBRANCH   2  11
ENDBRANCH   1   7
BRANCH   1  14
ATOM     14  C   UNL     1      44.736   4.709  12.752  0.00  0.00    +0.000 A 
ATOM     15  C   UNL     1      45.409   4.213  11.631  0.00  0.00    +0.000 A 
ATOM     16  C   UNL     1      44.765   4.158  10.385  0.00  0.00    +0.000 A 
ATOM     17  C   UNL     1      43.436   4.601  10.345  0.00  0.00    +0.000 A 
ATOM     18  C   UNL     1      42.835   5.068  11.503  0.00  0.00    +0.000 A 
ATOM     19  N   UNL     1      43.450   5.130  12.698  0.00  0.00    +0.000 NA
BRANCH  16  20
ATOM     20  C   UNL     1      45.448   3.651   9.173  0.00  0.00    +0.000 A 
ATOM     21  C   UNL     1      45.855   4.503   8.139  0.00  0.00    +0.000 A 
ATOM     22  N   UNL     1      46.466   4.112   6.991  0.00  0.00    +0.000 NA
ATOM     23  C   UNL     1      46.702   2.790   6.855  0.00  0.00    +0.000 A 
ATOM     24  C   UNL     1      46.360   1.854   7.815  0.00  0.00    +0.000 A 
ATOM     25 BR   UNL     1      46.740   0.026   7.554  0.00  0.00    +0.000 Br
ATOM     26  C   UNL     1      45.727   2.288   8.980  0.00  0.00    +0.000 A 
ENDBRANCH  16  20
ENDBRANCH   1  14
TORSDOF 4
ENDMDL
MODEL 4
REMARK VINA RESULT:    -7.341      4.216      5.074
REMARK INTER + INTRA:          -9.553
REMARK INTER:                  -9.065
REMARK INTRA:                  -0.488
REMARK UNBOUND:                -0.495
REMARK  Name = 
REMARK  4 active torsions:
REMARK  status: ('A' for Active; 'I' for Inactive)
REMARK    1  A    between atoms: C_2  and  C_5
REMARK    2  A    between atoms: N_10  and  C_11
REMARK    3  A    between atoms: C_11  and  C_12
REMARK    4  A    between atoms: C_14  and  C_15
REMARK                            x       y       z     vdW  Elec       q    Type
REMARK                         _______ _______ _______ _____ _____    ______ ____
ROOT
ATOM      1  C   UNL     1      46.924   5.010  13.981  0.00  0.00    +0.000 C 
ENDROOT
BRANCH   1   7
ATOM      2  C   UNL     1      44.816   3.832  10.375  0.00  0.00    +0.000 A 
ATOM      3  C   UNL     1      43.764   2.943  10.601  0.00  0.00    +0.000 A 
ATOM      4  C   UNL     1      43.391   2.698  11.905  0.00  0.00    +0.000 A 
ATOM      5  N   UNL     1      43.984   3.272  12.979  0.00  0.00    +0.000 NA
ATOM      6  C   UNL     1      44.994   4.135  12.766  0.00  0.00    +0.000 A 
ATOM      7  N   UNL     1      45.491   4.769  13.893  0.00  0.00    +0.000 N 
ATOM      8  C   UNL     1      45.432   4.429  11.482  0.00  0.00    +0.000 A 
ATOM      9  H   UNL     1      45.119   4.270  14.703  0.00  0.00    +0.000 HD
BRANCH   2  11
ATOM     10  F   UNL     1      44.271   4.347   8.097  0.00  0.00    +0.000 F 
ATOM     11  C   UNL     1      45.285   4.177   8.991  0.00  0.00    +0.000 C 
ATOM     12  F   UNL     1      46.093   3.217   8.463  0.00  0.00    +0.000 F 
ATOM     13  F   UNL     1      46.007   5.330   8.962  0.00  0.00    +0.000 F 
ENDBRANCH   2  11
ENDBRANCH   1   7
BRANCH   1  14
ATOM     14  C   UNL     1      47.500   4.359  15.225  0.00  0.00    +0.000 A 
ATOM     15  C   UNL     1      47.714   5.116  16.382  0.00  0.00    +0.000 A 
ATOM     16  C   UNL     1      48.250   4.515  17.532  0.00  0.00    +0.000 A 
ATOM     17  C   UNL     1      48.530   3.144  17.453  0.00  0.00    +0.000 A 
ATOM     18  C   UNL     1      48.279   2.462  16.273  0.00  0.00    +0.000 A 
ATOM     19  N   UNL     1      47.772   3.034  15.165  0.00  0.00    +0.000 NA
BRANCH  16  20
ATOM     20  C   UNL     1      48.502   5.285  18.771  0.00  0.00    +0.000 A 
ATOM     21  C   UNL     1      49.308   4.789  19.803  0.00  0.00    +0.000 A 
ATOM     22  N   UNL     1      49.568   5.425  20.975  0.00  0.00    +0.000 NA
ATOM     23  C   UNL     1      49.003   6.640  21.139  0.00  0.00    +0.000 A 
ATOM     24  C   UNL     1      48.201   7.240  20.184  0.00  0.00    +0.000 A 
ATOM     25 BR   UNL     1      47.462   8.948  20.484  0.00  0.00    +0.000 Br
ATOM     26  C   UNL     1      47.948   6.556  18.994  0.00  0.00    +0.000 A 
ENDBRANCH  16  20
ENDBRANCH   1  14
TORSDOF 4
ENDMDL
MODEL 5
REMARK VINA RESULT:    -7.331      3.266      4.472
REMARK INTER + INTRA:          -9.540
REMARK INTER:                  -8.963
REMARK INTRA:                  -0.578
REMARK UNBOUND:                -0.495
REMARK  Name = 
REMARK  4 active torsions:
REMARK  status: ('A' for Active; 'I' for Inactive)
REMARK    1  A    between atoms: C_2  and  C_5
REMARK    2  A    between atoms: N_10  and  C_11
REMARK    3  A    between atoms: C_11  and  C_12
REMARK    4  A    between atoms: C_14  and  C_15
REMARK                            x       y       z     vdW  Elec       q    Type
REMARK                         _______ _______ _______ _____ _____    ______ ____
ROOT
ATOM      1  C   UNL     1      46.807   6.794  11.441  0.00  0.00    +0.000 C 
ENDROOT
BRANCH   1   7
ATOM      2  C   UNL     1      44.489   3.283  10.376  0.00  0.00    +0.000 A 
ATOM      3  C   UNL     1      43.597   2.873  11.368  0.00  0.00    +0.000 A 
ATOM      4  C   UNL     1      43.407   3.703  12.452  0.00  0.00    +0.000 A 
ATOM      5  N   UNL     1      44.034   4.894  12.609  0.00  0.00    +0.000 NA
ATOM      6  C   UNL     1      44.889   5.297  11.652  0.00  0.00    +0.000 A 
ATOM      7  N   UNL     1      45.419   6.566  11.814  0.00  0.00    +0.000 N 
ATOM      8  C   UNL     1      45.138   4.514  10.532  0.00  0.00    +0.000 A 
ATOM      9  H   UNL     1      45.208   6.856  12.771  0.00  0.00    +0.000 HD
BRANCH   2  11
ATOM     10  F   UNL     1      44.132   1.245   9.164  0.00  0.00    +0.000 F 
ATOM     11  C   UNL     1      44.751   2.458   9.149  0.00  0.00    +0.000 C 
ATOM     12  F   UNL     1      46.076   2.202   8.970  0.00  0.00    +0.000 F 
ATOM     13  F   UNL     1      44.335   3.077   8.011  0.00  0.00    +0.000 F 
ENDBRANCH   2  11
ENDBRANCH   1   7
BRANCH   1  14
ATOM     14  C   UNL     1      47.685   6.884  12.677  0.00  0.00    +0.000 A 
ATOM     15  C   UNL     1      47.464   6.028  13.761  0.00  0.00    +0.000 A 
ATOM     16  C   UNL     1      48.274   6.112  14.905  0.00  0.00    +0.000 A 
ATOM     17  C   UNL     1      49.298   7.068  14.881  0.00  0.00    +0.000 A 
ATOM     18  C   UNL     1      49.459   7.871  13.763  0.00  0.00    +0.000 A 
ATOM     19  N   UNL     1      48.682   7.799  12.667  0.00  0.00    +0.000 NA
BRANCH  16  20
ATOM     20  C   UNL     1      48.064   5.233  16.077  0.00  0.00    +0.000 A 
ATOM     21  C   UNL     1      47.179   4.147  16.043  0.00  0.00    +0.000 A 
ATOM     22  N   UNL     1      46.919   3.311  17.081  0.00  0.00    +0.000 NA
ATOM     23  C   UNL     1      47.583   3.553  18.231  0.00  0.00    +0.000 A 
ATOM     24  C   UNL     1      48.493   4.584  18.380  0.00  0.00    +0.000 A 
ATOM     25 BR   UNL     1      49.391   4.845  20.017  0.00  0.00    +0.000 Br
ATOM     26  C   UNL     1      48.732   5.430  17.297  0.00  0.00    +0.000 A 
ENDBRANCH  16  20
ENDBRANCH   1  14
TORSDOF 4
ENDMDL
MODEL 6
REMARK VINA RESULT:    -6.685      3.126      4.130
REMARK INTER + INTRA:          -8.743
REMARK INTER:                  -8.127
REMARK INTRA:                  -0.615
REMARK UNBOUND:                -0.495
REMARK  Name = 
REMARK  4 active torsions:
REMARK  status: ('A' for Active; 'I' for Inactive)
REMARK    1  A    between atoms: C_2  and  C_5
REMARK    2  A    between atoms: N_10  and  C_11
REMARK    3  A    between atoms: C_11  and  C_12
REMARK    4  A    between atoms: C_14  and  C_15
REMARK                            x       y       z     vdW  Elec       q    Type
REMARK                         _______ _______ _______ _____ _____    ______ ____
ROOT
ATOM      1  C   UNL     1      46.872   6.861  11.370  0.00  0.00    +0.000 C 
ENDROOT
BRANCH   1   7
ATOM      2  C   UNL     1      44.544   3.378  10.239  0.00  0.00    +0.000 A 
ATOM      3  C   UNL     1      43.636   2.964  11.215  0.00  0.00    +0.000 A 
ATOM      4  C   UNL     1      43.437   3.785  12.304  0.00  0.00    +0.000 A 
ATOM      5  N   UNL     1      44.070   4.970  12.481  0.00  0.00    +0.000 NA
ATOM      6  C   UNL     1      44.941   5.376  11.539  0.00  0.00    +0.000 A 
ATOM      7  N   UNL     1      45.478   6.640  11.722  0.00  0.00    +0.000 N 
ATOM      8  C   UNL     1      45.200   4.602  10.416  0.00  0.00    +0.000 A 
ATOM      9  H   UNL     1      45.256   6.921  12.678  0.00  0.00    +0.000 HD
BRANCH   2  11
ATOM     10  F   UNL     1      44.375   1.277   9.094  0.00  0.00    +0.000 F 
ATOM     11  C   UNL     1      44.817   2.563   9.008  0.00  0.00    +0.000 C 
ATOM     12  F   UNL     1      46.146   2.484   8.721  0.00  0.00    +0.000 F 
ATOM     13  F   UNL     1      44.228   3.087   7.899  0.00  0.00    +0.000 F 
ENDBRANCH   2  11
ENDBRANCH   1   7
BRANCH   1  14
ATOM     14  C   UNL     1      47.643   7.409  12.557  0.00  0.00    +0.000 A 
ATOM     15  C   UNL     1      47.892   6.599  13.670  0.00  0.00    +0.000 A 
ATOM     16  C   UNL     1      48.602   7.105  14.770  0.00  0.00    +0.000 A 
ATOM     17  C   UNL     1      49.048   8.431  14.674  0.00  0.00    +0.000 A 
ATOM     18  C   UNL     1      48.770   9.165  13.532  0.00  0.00    +0.000 A 
ATOM     19  N   UNL     1      48.084   8.686  12.477  0.00  0.00    +0.000 NA
BRANCH  16  20
ATOM     20  C   UNL     1      48.875   6.283  15.970  0.00  0.00    +0.000 A 
ATOM     21  C   UNL     1      49.880   6.618  16.888  0.00  0.00    +0.000 A 
ATOM     22  N   UNL     1      50.203   5.904  17.997  0.00  0.00    +0.000 NA
ATOM     23  C   UNL     1      49.480   4.788  18.226  0.00  0.00    +0.000 A 
ATOM     24  C   UNL     1      48.453   4.365  17.401  0.00  0.00    +0.000 A 
ATOM     25 BR   UNL     1      47.480   2.800  17.802  0.00  0.00    +0.000 Br
ATOM     26  C   UNL     1      48.151   5.116  16.265  0.00  0.00    +0.000 A 
ENDBRANCH  16  20
ENDBRANCH   1  14
TORSDOF 4
ENDMDL
MODEL 7
REMARK VINA RESULT:    -6.556      3.708      4.849
REMARK INTER + INTRA:          -8.584
REMARK INTER:                  -8.111
REMARK INTRA:                  -0.472
REMARK UNBOUND:                -0.495
REMARK  Name = 
REMARK  4 active torsions:
REMARK  status: ('A' for Active; 'I' for Inactive)
REMARK    1  A    between atoms: C_2  and  C_5
REMARK    2  A    between atoms: N_10  and  C_11
REMARK    3  A    between atoms: C_11  and  C_12
REMARK    4  A    between atoms: C_14  and  C_15
REMARK                            x       y       z     vdW  Elec       q    Type
REMARK                         _______ _______ _______ _____ _____    ______ ____
ROOT
ATOM      1  C   UNL     1      46.919   4.065  14.240  0.00  0.00    +0.000 C 
ENDROOT
BRANCH   1   7
ATOM      2  C   UNL     1      44.662   4.766  10.600  0.00  0.00    +0.000 A 
ATOM      3  C   UNL     1      43.354   5.198  10.821  0.00  0.00    +0.000 A 
ATOM      4  C   UNL     1      42.992   5.537  12.108  0.00  0.00    +0.000 A 
ATOM      5  N   UNL     1      43.833   5.476  13.168  0.00  0.00    +0.000 NA
ATOM      6  C   UNL     1      45.097   5.067  12.958  0.00  0.00    +0.000 A 
ATOM      7  N   UNL     1      45.938   5.124  14.058  0.00  0.00    +0.000 N 
ATOM      8  C   UNL     1      45.536   4.703  11.692  0.00  0.00    +0.000 A 
ATOM      9  H   UNL     1      45.346   5.267  14.877  0.00  0.00    +0.000 HD
BRANCH   2  11
ATOM     10  F   UNL     1      46.172   5.182   8.784  0.00  0.00    +0.000 F 
ATOM     11  C   UNL     1      45.157   4.391   9.233  0.00  0.00    +0.000 C 
ATOM     12  F   UNL     1      44.179   4.464   8.289  0.00  0.00    +0.000 F 
ATOM     13  F   UNL     1      45.627   3.115   9.184  0.00  0.00    +0.000 F 
ENDBRANCH   2  11
ENDBRANCH   1   7
BRANCH   1  14
ATOM     14  C   UNL     1      47.556   4.157  15.615  0.00  0.00    +0.000 A 
ATOM     15  C   UNL     1      48.006   5.388  16.102  0.00  0.00    +0.000 A 
ATOM     16  C   UNL     1      48.597   5.473  17.373  0.00  0.00    +0.000 A 
ATOM     17  C   UNL     1      48.687   4.282  18.105  0.00  0.00    +0.000 A 
ATOM     18  C   UNL     1      48.207   3.104  17.557  0.00  0.00    +0.000 A 
ATOM     19  N   UNL     1      47.646   3.015  16.337  0.00  0.00    +0.000 NA
BRANCH  16  20
ATOM     20  C   UNL     1      49.097   6.756  17.918  0.00  0.00    +0.000 A 
ATOM     21  C   UNL     1      48.753   7.989  17.349  0.00  0.00    +0.000 A 
ATOM     22  N   UNL     1      49.187   9.202  17.779  0.00  0.00    +0.000 NA
ATOM     23  C   UNL     1      50.009   9.204  18.849  0.00  0.00    +0.000 A 
ATOM     24  C   UNL     1      50.404   8.052  19.505  0.00  0.00    +0.000 A 
ATOM     25 BR   UNL     1      51.543   8.141  21.005  0.00  0.00    +0.000 Br
ATOM     26  C   UNL     1      49.947   6.820  19.034  0.00  0.00    +0.000 A 
ENDBRANCH  16  20
ENDBRANCH   1  14
TORSDOF 4
ENDMDL
MODEL 8
REMARK VINA RESULT:    -6.412      2.044      2.958
REMARK INTER + INTRA:          -8.406
REMARK INTER:                  -7.740
REMARK INTRA:                  -0.666
REMARK UNBOUND:                -0.495
REMARK  Name = 
REMARK  4 active torsions:
REMARK  status: ('A' for Active; 'I' for Inactive)
REMARK    1  A    between atoms: C_2  and  C_5
REMARK    2  A    between atoms: N_10  and  C_11
REMARK    3  A    between atoms: C_11  and  C_12
REMARK    4  A    between atoms: C_14  and  C_15
REMARK                            x       y       z     vdW  Elec       q    Type
REMARK                         _______ _______ _______ _____ _____    ______ ____
ROOT
ATOM      1  C   UNL     1      45.950   7.901  11.791  0.00  0.00    +0.000 C 
ENDROOT
BRANCH   1   7
ATOM      2  C   UNL     1      45.171   4.043   9.963  0.00  0.00    +0.000 A 
ATOM      3  C   UNL     1      44.923   3.023  10.882  0.00  0.00    +0.000 A 
ATOM      4  C   UNL     1      44.760   3.369  12.207  0.00  0.00    +0.000 A 
ATOM      5  N   UNL     1      44.823   4.641  12.667  0.00  0.00    +0.000 NA
ATOM      6  C   UNL     1      45.054   5.629  11.783  0.00  0.00    +0.000 A 
ATOM      7  N   UNL     1      45.004   6.916  12.293  0.00  0.00    +0.000 N 
ATOM      8  C   UNL     1      45.235   5.361  10.433  0.00  0.00    +0.000 A 
ATOM      9  H   UNL     1      45.015   6.833  13.311  0.00  0.00    +0.000 HD
BRANCH   2  11
ATOM     10  F   UNL     1      46.224   4.613   7.886  0.00  0.00    +0.000 F 
ATOM     11  C   UNL     1      45.346   3.770   8.497  0.00  0.00    +0.000 C 
ATOM     12  F   UNL     1      44.178   3.880   7.806  0.00  0.00    +0.000 F 
ATOM     13  F   UNL     1      45.803   2.512   8.256  0.00  0.00    +0.000 F 
ENDBRANCH   2  11
ENDBRANCH   1   7
BRANCH   1  14
ATOM     14  C   UNL     1      47.302   7.734  12.459  0.00  0.00    +0.000 A 
ATOM     15  C   UNL     1      48.478   7.987  11.745  0.00  0.00    +0.000 A 
ATOM     16  C   UNL     1      49.729   7.830  12.361  0.00  0.00    +0.000 A 
ATOM     17  C   UNL     1      49.722   7.432  13.705  0.00  0.00    +0.000 A 
ATOM     18  C   UNL     1      48.514   7.211  14.347  0.00  0.00    +0.000 A 
ATOM     19  N   UNL     1      47.312   7.354  13.759  0.00  0.00    +0.000 NA
BRANCH  16  20
ATOM     20  C   UNL     1      50.995   8.077  11.635  0.00  0.00    +0.000 A 
ATOM     21  C   UNL     1      51.914   9.048  12.053  0.00  0.00    +0.000 A 
ATOM     22  N   UNL     1      53.083   9.346  11.429  0.00  0.00    +0.000 NA
ATOM     23  C   UNL     1      53.373   8.632  10.321  0.00  0.00    +0.000 A 
ATOM     24  C   UNL     1      52.552   7.637   9.821  0.00  0.00    +0.000 A 
ATOM     25 BR   UNL     1      53.039   6.674   8.275  0.00  0.00    +0.000 Br
ATOM     26  C   UNL     1      51.354   7.360  10.482  0.00  0.00    +0.000 A 
ENDBRANCH  16  20
ENDBRANCH   1  14
TORSDOF 4
ENDMDL
MODEL 9
REMARK VINA RESULT:    -6.348      3.426      7.261
REMARK INTER + INTRA:          -8.328
REMARK INTER:                  -7.680
REMARK INTRA:                  -0.648
REMARK UNBOUND:                -0.495
REMARK  Name = 
REMARK  4 active torsions:
REMARK  status: ('A' for Active; 'I' for Inactive)
REMARK    1  A    between atoms: C_2  and  C_5
REMARK    2  A    between atoms: N_10  and  C_11
REMARK    3  A    between atoms: C_11  and  C_12
REMARK    4  A    between atoms: C_14  and  C_15
REMARK                            x       y       z     vdW  Elec       q    Type
REMARK                         _______ _______ _______ _____ _____    ______ ____
ROOT
ATOM      1  C   UNL     1      48.064   7.399  13.809  0.00  0.00    +0.000 C 
ENDROOT
BRANCH   1   7
ATOM      2  C   UNL     1      51.149   8.951  11.181  0.00  0.00    +0.000 A 
ATOM      3  C   UNL     1      50.980  10.294  10.843  0.00  0.00    +0.000 A 
ATOM      4  C   UNL     1      50.009  11.013  11.508  0.00  0.00    +0.000 A 
ATOM      5  N   UNL     1      49.212  10.491  12.471  0.00  0.00    +0.000 NA
ATOM      6  C   UNL     1      49.377   9.198  12.805  0.00  0.00    +0.000 A 
ATOM      7  N   UNL     1      48.607   8.748  13.865  0.00  0.00    +0.000 N 
ATOM      8  C   UNL     1      50.329   8.407  12.177  0.00  0.00    +0.000 A 
ATOM      9  H   UNL     1      47.895   9.460  14.038  0.00  0.00    +0.000 HD
BRANCH   2  11
ATOM     10  F   UNL     1      51.776   6.814  10.291  0.00  0.00    +0.000 F 
ATOM     11  C   UNL     1      52.191   8.090  10.527  0.00  0.00    +0.000 C 
ATOM     12  F   UNL     1      53.322   7.983  11.277  0.00  0.00    +0.000 F 
ATOM     13  F   UNL     1      52.589   8.583   9.322  0.00  0.00    +0.000 F 
ENDBRANCH   2  11
ENDBRANCH   1   7
BRANCH   1  14
ATOM     14  C   UNL     1      46.848   7.350  12.901  0.00  0.00    +0.000 A 
ATOM     15  C   UNL     1      46.593   6.214  12.125  0.00  0.00    +0.000 A 
ATOM     16  C   UNL     1      45.470   6.169  11.284  0.00  0.00    +0.000 A 
ATOM     17  C   UNL     1      44.637   7.296  11.287  0.00  0.00    +0.000 A 
ATOM     18  C   UNL     1      44.952   8.378  12.093  0.00  0.00    +0.000 A 
ATOM     19  N   UNL     1      46.031   8.429  12.897  0.00  0.00    +0.000 NA
BRANCH  16  20
ATOM     20  C   UNL     1      45.174   4.990  10.439  0.00  0.00    +0.000 A 
ATOM     21  C   UNL     1      44.257   4.006  10.832  0.00  0.00    +0.000 A 
ATOM     22  N   UNL     1      43.949   2.890  10.123  0.00  0.00    +0.000 NA
ATOM     23  C   UNL     1      44.579   2.734   8.940  0.00  0.00    +0.000 A 
ATOM     24  C   UNL     1      45.491   3.646   8.439  0.00  0.00    +0.000 A 
ATOM     25 BR   UNL     1      46.317   3.362   6.768  0.00  0.00    +0.000 Br
ATOM     26  C   UNL     1      45.792   4.779   9.196  0.00  0.00    +0.000 A 
ENDBRANCH  16  20
ENDBRANCH   1  14
TORSDOF 4
ENDMDL
