MODEL 1
REMARK VINA RESULT:    -7.858      0.000      0.000
REMARK INTER + INTRA:         -13.208
REMARK INTER:                 -12.222
REMARK INTRA:                  -0.986
REMARK UNBOUND:                -0.986
REMARK  Name = 
REMARK  10 active torsions:
REMARK  status: ('A' for Active; 'I' for Inactive)
REMARK    1  A    between atoms: N_1  and  C_2
REMARK    2  A    between atoms: C_2  and  C_3
REMARK    3  A    between atoms: C_3  and  N_4
REMARK    4  A    between atoms: N_4  and  C_5
REMARK    5  A    between atoms: N_4  and  C_26
REMARK    6  A    between atoms: C_5  and  C_6
REMARK    7  A    between atoms: C_9  and  C_10
REMARK    8  A    between atoms: C_10  and  N_11
REMARK    9  A    between atoms: C_12  and  C_14
REMARK   10  A    between atoms: C_26  and  C_27
REMARK                            x       y       z     vdW  Elec       q    Type
REMARK                         _______ _______ _______ _____ _____    ______ ____
ROOT
ATOM      1  C   UNL     1      46.057   4.250  12.832  0.00  0.00    +0.000 A 
ATOM      2  C   UNL     1      46.207   5.553  12.353  0.00  0.00    +0.000 A 
ATOM      3  C   UNL     1      46.988   6.464  13.062  0.00  0.00    +0.000 A 
ATOM      4  C   UNL     1      47.599   6.054  14.244  0.00  0.00    +0.000 A 
ATOM      5  N   UNL     1      47.434   4.807  14.754  0.00  0.00    +0.000 NA
ATOM      6  C   UNL     1      46.672   3.947  14.043  0.00  0.00    +0.000 A 
ENDROOT
BRANCH   1   7
ATOM      7  C   UNL     1      45.331   3.192  12.035  0.00  0.00    +0.000 C 
BRANCH   7   8
ATOM      8  N   UNL     1      44.441   3.734  10.978  0.00  0.00    +0.000 NA
BRANCH   8   9
ATOM      9  C   UNL     1      43.049   3.878  11.462  0.00  0.00    +0.000 C 
BRANCH   9  10
ATOM     10  C   UNL     1      42.622   5.297  11.894  0.00  0.00    +0.000 C 
BRANCH  10  11
ATOM     11  N   UNL     1      42.645   5.432  13.354  0.00  0.00    +0.000 NA
ATOM     12  H   UNL     1      41.689   5.524  13.696  0.00  0.00    +0.000 HD
ATOM     13  H   UNL     1      43.123   6.294  13.612  0.00  0.00    +0.000 HD
ENDBRANCH  10  11
ENDBRANCH   9  10
ENDBRANCH   8   9
BRANCH   8  14
ATOM     14  C   UNL     1      44.472   2.843   9.781  0.00  0.00    +0.000 C 
BRANCH  14  15
ATOM     15  C   UNL     1      45.794   2.745   8.987  0.00  0.00    +0.000 C 
ATOM     16  C   UNL     1      45.720   3.559   7.697  0.00  0.00    +0.000 C 
ATOM     17  C   UNL     1      46.830   2.958   6.860  0.00  0.00    +0.000 C 
ATOM     18  C   UNL     1      46.873   1.496   7.282  0.00  0.00    +0.000 C 
ATOM     19  N   UNL     1      46.061   1.390   8.490  0.00  0.00    +0.000 NA
ATOM     20  H   UNL     1      46.501   0.823   9.215  0.00  0.00    +0.000 HD
ENDBRANCH  14  15
ENDBRANCH   8  14
ENDBRANCH   7   8
ENDBRANCH   1   7
BRANCH   4  21
ATOM     21  C   UNL     1      48.541   6.977  14.977  0.00  0.00    +0.000 C 
BRANCH  21  22
ATOM     22  N   UNL     1      49.641   6.260  15.589  0.00  0.00    +0.000 N 
ATOM     23  C   UNL     1      49.642   5.904  16.910  0.00  0.00    +0.000 C 
ATOM     24  O   UNL     1      48.703   6.175  17.657  0.00  0.00    +0.000 OA
ATOM     25  H   UNL     1      50.505   6.235  15.055  0.00  0.00    +0.000 HD
BRANCH  23  26
ATOM     26  C   UNL     1      50.785   5.108  17.383  0.00  0.00    +0.000 A 
ATOM     27  C   UNL     1      51.897   5.757  17.905  0.00  0.00    +0.000 A 
ATOM     28  S   UNL     1      53.115   4.700  18.458  0.00  0.00    +0.000 S 
ATOM     29  C   UNL     1      52.224   3.335  17.974  0.00  0.00    +0.000 A 
ATOM     30  N   UNL     1      52.724   2.083  18.144  0.00  0.00    +0.000 NA
ATOM     31  C   UNL     1      51.963   1.139  17.698  0.00  0.00    +0.000 A 
ATOM     32  N   UNL     1      50.744   1.337  17.108  0.00  0.00    +0.000 N 
ATOM     33  C   UNL     1      50.168   2.579  16.979  0.00  0.00    +0.000 A 
ATOM     34  O   UNL     1      49.023   2.706  16.557  0.00  0.00    +0.000 OA
ATOM     35  C   UNL     1      51.002   3.678  17.423  0.00  0.00    +0.000 A 
ATOM     36  H   UNL     1      50.181   0.554  16.805  0.00  0.00    +0.000 HD
ENDBRANCH  23  26
ENDBRANCH  21  22
ENDBRANCH   4  21
TORSDOF 10
ENDMDL
MODEL 2
REMARK VINA RESULT:    -7.121      2.321      2.732
REMARK INTER + INTRA:         -12.061
REMARK INTER:                 -10.765
REMARK INTRA:                  -1.296
REMARK UNBOUND:                -0.986
REMARK  Name = 
REMARK  10 active torsions:
REMARK  status: ('A' for Active; 'I' for Inactive)
REMARK    1  A    between atoms: N_1  and  C_2
REMARK    2  A    between atoms: C_2  and  C_3
REMARK    3  A    between atoms: C_3  and  N_4
REMARK    4  A    between atoms: N_4  and  C_5
REMARK    5  A    between atoms: N_4  and  C_26
REMARK    6  A    between atoms: C_5  and  C_6
REMARK    7  A    between atoms: C_9  and  C_10
REMARK    8  A    between atoms: C_10  and  N_11
REMARK    9  A    between atoms: C_12  and  C_14
REMARK   10  A    between atoms: C_26  and  C_27
REMARK                            x       y       z     vdW  Elec       q    Type
REMARK                         _______ _______ _______ _____ _____    ______ ____
ROOT
ATOM      1  C   UNL     1      46.084   4.913  12.218  0.00  0.00    +0.000 A 
ATOM      2  C   UNL     1      46.336   6.163  11.651  0.00  0.00    +0.000 A 
ATOM      3  C   UNL     1      47.046   7.120  12.374  0.00  0.00    +0.000 A 
ATOM      4  C   UNL     1      47.485   6.807  13.658  0.00  0.00    +0.000 A 
ATOM      5  N   UNL     1      47.216   5.615  14.250  0.00  0.00    +0.000 NA
ATOM      6  C   UNL     1      46.526   4.709  13.522  0.00  0.00    +0.000 A 
ENDROOT
BRANCH   1   7
ATOM      7  C   UNL     1      45.434   3.801  11.429  0.00  0.00    +0.000 C 
BRANCH   7   8
ATOM      8  N   UNL     1      44.356   4.256  10.516  0.00  0.00    +0.000 NA
BRANCH   8   9
ATOM      9  C   UNL     1      43.025   4.166  11.159  0.00  0.00    +0.000 C 
BRANCH   9  10
ATOM     10  C   UNL     1      42.483   5.469  11.785  0.00  0.00    +0.000 C 
BRANCH  10  11
ATOM     11  N   UNL     1      42.638   5.456  13.244  0.00  0.00    +0.000 NA
ATOM     12  H   UNL     1      42.506   4.504  13.585  0.00  0.00    +0.000 HD
ATOM     13  H   UNL     1      41.903   6.016  13.672  0.00  0.00    +0.000 HD
ENDBRANCH  10  11
ENDBRANCH   9  10
ENDBRANCH   8   9
BRANCH   8  14
ATOM     14  C   UNL     1      44.371   3.442   9.266  0.00  0.00    +0.000 C 
BRANCH  14  15
ATOM     15  C   UNL     1      45.725   2.864   8.796  0.00  0.00    +0.000 C 
ATOM     16  C   UNL     1      46.050   3.315   7.374  0.00  0.00    +0.000 C 
ATOM     17  C   UNL     1      47.079   2.296   6.928  0.00  0.00    +0.000 C 
ATOM     18  C   UNL     1      46.685   1.018   7.654  0.00  0.00    +0.000 C 
ATOM     19  N   UNL     1      45.706   1.402   8.666  0.00  0.00    +0.000 NA
ATOM     20  H   UNL     1      45.875   0.960   9.569  0.00  0.00    +0.000 HD
ENDBRANCH  14  15
ENDBRANCH   8  14
ENDBRANCH   7   8
ENDBRANCH   1   7
BRANCH   4  21
ATOM     21  C   UNL     1      48.354   7.774  14.425  0.00  0.00    +0.000 C 
BRANCH  21  22
ATOM     22  N   UNL     1      48.353   7.498  15.847  0.00  0.00    +0.000 N 
ATOM     23  C   UNL     1      49.294   8.014  16.697  0.00  0.00    +0.000 C 
ATOM     24  O   UNL     1      50.199   8.745  16.298  0.00  0.00    +0.000 OA
ATOM     25  H   UNL     1      47.764   6.727  16.148  0.00  0.00    +0.000 HD
BRANCH  23  26
ATOM     26  C   UNL     1      49.128   7.719  18.129  0.00  0.00    +0.000 A 
ATOM     27  C   UNL     1      49.042   8.770  19.033  0.00  0.00    +0.000 A 
ATOM     28  S   UNL     1      48.799   8.271  20.646  0.00  0.00    +0.000 S 
ATOM     29  C   UNL     1      48.851   6.631  20.202  0.00  0.00    +0.000 A 
ATOM     30  N   UNL     1      48.729   5.654  21.139  0.00  0.00    +0.000 NA
ATOM     31  C   UNL     1      48.824   4.452  20.674  0.00  0.00    +0.000 A 
ATOM     32  N   UNL     1      49.021   4.143  19.355  0.00  0.00    +0.000 N 
ATOM     33  C   UNL     1      49.080   5.096  18.364  0.00  0.00    +0.000 A 
ATOM     34  O   UNL     1      49.135   4.777  17.180  0.00  0.00    +0.000 OA
ATOM     35  C   UNL     1      49.023   6.464  18.840  0.00  0.00    +0.000 A 
ATOM     36  H   UNL     1      49.059   3.182  19.047  0.00  0.00    +0.000 HD
ENDBRANCH  23  26
ENDBRANCH  21  22
ENDBRANCH   4  21
TORSDOF 10
ENDMDL
MODEL 3
REMARK VINA RESULT:    -6.918      3.521      8.732
REMARK INTER + INTRA:         -11.745
REMARK INTER:                 -10.101
REMARK INTRA:                  -1.645
REMARK UNBOUND:                -0.986
REMARK  Name = 
REMARK  10 active torsions:
REMARK  status: ('A' for Active; 'I' for Inactive)
REMARK    1  A    between atoms: N_1  and  C_2
REMARK    2  A    between atoms: C_2  and  C_3
REMARK    3  A    between atoms: C_3  and  N_4
REMARK    4  A    between atoms: N_4  and  C_5
REMARK    5  A    between atoms: N_4  and  C_26
REMARK    6  A    between atoms: C_5  and  C_6
REMARK    7  A    between atoms: C_9  and  C_10
REMARK    8  A    between atoms: C_10  and  N_11
REMARK    9  A    between atoms: C_12  and  C_14
REMARK   10  A    between atoms: C_26  and  C_27
REMARK                            x       y       z     vdW  Elec       q    Type
REMARK                         _______ _______ _______ _____ _____    ______ ____
ROOT
ATOM      1  C   UNL     1      49.340   7.809  16.003  0.00  0.00    +0.000 A 
ATOM      2  C   UNL     1      48.882   9.002  15.440  0.00  0.00    +0.000 A 
ATOM      3  C   UNL     1      48.374   9.003  14.142  0.00  0.00    +0.000 A 
ATOM      4  C   UNL     1      48.341   7.807  13.429  0.00  0.00    +0.000 A 
ATOM      5  N   UNL     1      48.820   6.643  13.937  0.00  0.00    +0.000 NA
ATOM      6  C   UNL     1      49.305   6.675  15.197  0.00  0.00    +0.000 A 
ENDROOT
BRANCH   1   7
ATOM      7  C   UNL     1      49.776   7.732  17.447  0.00  0.00    +0.000 C 
BRANCH   7   8
ATOM      8  N   UNL     1      49.100   6.666  18.228  0.00  0.00    +0.000 NA
BRANCH   8   9
ATOM      9  C   UNL     1      48.072   7.227  19.136  0.00  0.00    +0.000 C 
BRANCH   9  10
ATOM     10  C   UNL     1      47.139   6.205  19.821  0.00  0.00    +0.000 C 
BRANCH  10  11
ATOM     11  N   UNL     1      46.422   5.399  18.827  0.00  0.00    +0.000 NA
ATOM     12  H   UNL     1      46.380   4.432  19.149  0.00  0.00    +0.000 HD
ATOM     13  H   UNL     1      46.946   5.385  17.953  0.00  0.00    +0.000 HD
ENDBRANCH  10  11
ENDBRANCH   9  10
ENDBRANCH   8   9
BRANCH   8  14
ATOM     14  C   UNL     1      50.106   5.896  19.016  0.00  0.00    +0.000 C 
BRANCH  14  15
ATOM     15  C   UNL     1      50.198   4.372  18.778  0.00  0.00    +0.000 C 
ATOM     16  C   UNL     1      51.340   4.035  17.823  0.00  0.00    +0.000 C 
ATOM     17  C   UNL     1      50.967   2.651  17.333  0.00  0.00    +0.000 C 
ATOM     18  C   UNL     1      49.445   2.647  17.334  0.00  0.00    +0.000 C 
ATOM     19  N   UNL     1      49.029   3.833  18.075  0.00  0.00    +0.000 NA
ATOM     20  H   UNL     1      48.271   3.645  18.731  0.00  0.00    +0.000 HD
ENDBRANCH  14  15
ENDBRANCH   8  14
ENDBRANCH   7   8
ENDBRANCH   1   7
BRANCH   4  21
ATOM     21  C   UNL     1      47.695   7.749  12.066  0.00  0.00    +0.000 C 
BRANCH  21  22
ATOM     22  N   UNL     1      46.972   6.511  11.859  0.00  0.00    +0.000 N 
ATOM     23  C   UNL     1      45.611   6.424  11.981  0.00  0.00    +0.000 C 
ATOM     24  O   UNL     1      44.922   7.400  12.275  0.00  0.00    +0.000 OA
ATOM     25  H   UNL     1      47.535   5.665  11.845  0.00  0.00    +0.000 HD
BRANCH  23  26
ATOM     26  C   UNL     1      44.997   5.126  11.664  0.00  0.00    +0.000 A 
ATOM     27  C   UNL     1      44.275   4.457  12.645  0.00  0.00    +0.000 A 
ATOM     28  S   UNL     1      43.581   2.994  12.112  0.00  0.00    +0.000 S 
ATOM     29  C   UNL     1      44.261   3.174  10.564  0.00  0.00    +0.000 A 
ATOM     30  N   UNL     1      44.068   2.229   9.607  0.00  0.00    +0.000 NA
ATOM     31  C   UNL     1      44.671   2.469   8.490  0.00  0.00    +0.000 A 
ATOM     32  N   UNL     1      45.440   3.575   8.244  0.00  0.00    +0.000 N 
ATOM     33  C   UNL     1      45.605   4.590   9.158  0.00  0.00    +0.000 A 
ATOM     34  O   UNL     1      46.199   5.621   8.860  0.00  0.00    +0.000 OA
ATOM     35  C   UNL     1      44.985   4.347  10.445  0.00  0.00    +0.000 A 
ATOM     36  H   UNL     1      45.863   3.721   7.338  0.00  0.00    +0.000 HD
ENDBRANCH  23  26
ENDBRANCH  21  22
ENDBRANCH   4  21
TORSDOF 10
ENDMDL
MODEL 4
REMARK VINA RESULT:    -6.459      2.053      3.695
REMARK INTER + INTRA:         -11.032
REMARK INTER:                  -9.696
REMARK INTRA:                  -1.336
REMARK UNBOUND:                -0.986
REMARK  Name = 
REMARK  10 active torsions:
REMARK  status: ('A' for Active; 'I' for Inactive)
REMARK    1  A    between atoms: N_1  and  C_2
REMARK    2  A    between atoms: C_2  and  C_3
REMARK    3  A    between atoms: C_3  and  N_4
REMARK    4  A    between atoms: N_4  and  C_5
REMARK    5  A    between atoms: N_4  and  C_26
REMARK    6  A    between atoms: C_5  and  C_6
REMARK    7  A    between atoms: C_9  and  C_10
REMARK    8  A    between atoms: C_10  and  N_11
REMARK    9  A    between atoms: C_12  and  C_14
REMARK   10  A    between atoms: C_26  and  C_27
REMARK                            x       y       z     vdW  Elec       q    Type
REMARK                         _______ _______ _______ _____ _____    ______ ____
ROOT
ATOM      1  C   UNL     1      47.578   6.001  13.230  0.00  0.00    +0.000 A 
ATOM      2  C   UNL     1      48.508   6.951  12.802  0.00  0.00    +0.000 A 
ATOM      3  C   UNL     1      49.452   7.446  13.699  0.00  0.00    +0.000 A 
ATOM      4  C   UNL     1      49.443   6.984  15.013  0.00  0.00    +0.000 A 
ATOM      5  N   UNL     1      48.523   6.094  15.465  0.00  0.00    +0.000 NA
ATOM      6  C   UNL     1      47.621   5.633  14.571  0.00  0.00    +0.000 A 
ENDROOT
BRANCH   1   7
ATOM      7  C   UNL     1      46.620   5.340  12.266  0.00  0.00    +0.000 C 
BRANCH   7   8
ATOM      8  N   UNL     1      45.273   5.081  12.833  0.00  0.00    +0.000 NA
BRANCH   8   9
ATOM      9  C   UNL     1      44.534   4.074  12.036  0.00  0.00    +0.000 C 
BRANCH   9  10
ATOM     10  C   UNL     1      44.708   4.158  10.505  0.00  0.00    +0.000 C 
BRANCH  10  11
ATOM     11  N   UNL     1      43.640   4.959   9.897  0.00  0.00    +0.000 NA
ATOM     12  H   UNL     1      43.942   5.272   8.974  0.00  0.00    +0.000 HD
ATOM     13  H   UNL     1      43.487   5.802  10.447  0.00  0.00    +0.000 HD
ENDBRANCH  10  11
ENDBRANCH   9  10
ENDBRANCH   8   9
BRANCH   8  14
ATOM     14  C   UNL     1      44.494   6.351  12.893  0.00  0.00    +0.000 C 
BRANCH  14  15
ATOM     15  C   UNL     1      44.924   7.507  11.962  0.00  0.00    +0.000 C 
ATOM     16  C   UNL     1      45.327   8.740  12.768  0.00  0.00    +0.000 C 
ATOM     17  C   UNL     1      45.218   9.855  11.748  0.00  0.00    +0.000 C 
ATOM     18  C   UNL     1      44.088   9.417  10.828  0.00  0.00    +0.000 C 
ATOM     19  N   UNL     1      43.821   8.016  11.138  0.00  0.00    +0.000 NA
ATOM     20  H   UNL     1      43.701   7.441  10.305  0.00  0.00    +0.000 HD
ENDBRANCH  14  15
ENDBRANCH   8  14
ENDBRANCH   7   8
ENDBRANCH   1   7
BRANCH   4  21
ATOM     21  C   UNL     1      50.520   7.411  15.980  0.00  0.00    +0.000 C 
BRANCH  21  22
ATOM     22  N   UNL     1      51.314   6.291  16.442  0.00  0.00    +0.000 N 
ATOM     23  C   UNL     1      51.515   6.030  17.770  0.00  0.00    +0.000 C 
ATOM     24  O   UNL     1      51.029   6.737  18.652  0.00  0.00    +0.000 OA
ATOM     25  H   UNL     1      51.899   5.845  15.742  0.00  0.00    +0.000 HD
BRANCH  23  26
ATOM     26  C   UNL     1      52.274   4.814  18.101  0.00  0.00    +0.000 A 
ATOM     27  C   UNL     1      53.510   4.932  18.722  0.00  0.00    +0.000 A 
ATOM     28  S   UNL     1      54.242   3.436  19.088  0.00  0.00    +0.000 S 
ATOM     29  C   UNL     1      52.956   2.574  18.384  0.00  0.00    +0.000 A 
ATOM     30  N   UNL     1      52.972   1.216  18.341  0.00  0.00    +0.000 NA
ATOM     31  C   UNL     1      51.954   0.689  17.745  0.00  0.00    +0.000 A 
ATOM     32  N   UNL     1      50.920   1.400  17.198  0.00  0.00    +0.000 N 
ATOM     33  C   UNL     1      50.828   2.771  17.280  0.00  0.00    +0.000 A 
ATOM     34  O   UNL     1      49.829   3.363  16.887  0.00  0.00    +0.000 OA
ATOM     35  C   UNL     1      51.969   3.414  17.901  0.00  0.00    +0.000 A 
ATOM     36  H   UNL     1      50.136   0.929  16.770  0.00  0.00    +0.000 HD
ENDBRANCH  23  26
ENDBRANCH  21  22
ENDBRANCH   4  21
TORSDOF 10
ENDMDL
MODEL 5
REMARK VINA RESULT:    -6.351      3.999      4.837
REMARK INTER + INTRA:         -10.864
REMARK INTER:                  -9.469
REMARK INTRA:                  -1.395
REMARK UNBOUND:                -0.986
REMARK  Name = 
REMARK  10 active torsions:
REMARK  status: ('A' for Active; 'I' for Inactive)
REMARK    1  A    between atoms: N_1  and  C_2
REMARK    2  A    between atoms: C_2  and  C_3
REMARK    3  A    between atoms: C_3  and  N_4
REMARK    4  A    between atoms: N_4  and  C_5
REMARK    5  A    between atoms: N_4  and  C_26
REMARK    6  A    between atoms: C_5  and  C_6
REMARK    7  A    between atoms: C_9  and  C_10
REMARK    8  A    between atoms: C_10  and  N_11
REMARK    9  A    between atoms: C_12  and  C_14
REMARK   10  A    between atoms: C_26  and  C_27
REMARK                            x       y       z     vdW  Elec       q    Type
REMARK                         _______ _______ _______ _____ _____    ______ ____
ROOT
ATOM      1  C   UNL     1      45.840   6.376  11.782  0.00  0.00    +0.000 A 
ATOM      2  C   UNL     1      44.970   7.415  12.118  0.00  0.00    +0.000 A 
ATOM      3  C   UNL     1      45.478   8.689  12.365  0.00  0.00    +0.000 A 
ATOM      4  C   UNL     1      46.852   8.896  12.278  0.00  0.00    +0.000 A 
ATOM      5  N   UNL     1      47.724   7.895  11.995  0.00  0.00    +0.000 NA
ATOM      6  C   UNL     1      47.200   6.671  11.760  0.00  0.00    +0.000 A 
ENDROOT
BRANCH   1   7
ATOM      7  C   UNL     1      45.328   5.013  11.379  0.00  0.00    +0.000 C 
BRANCH   7   8
ATOM      8  N   UNL     1      44.010   5.038  10.697  0.00  0.00    +0.000 NA
BRANCH   8   9
ATOM      9  C   UNL     1      42.973   4.344  11.495  0.00  0.00    +0.000 C 
BRANCH   9  10
ATOM     10  C   UNL     1      43.452   3.138  12.331  0.00  0.00    +0.000 C 
BRANCH  10  11
ATOM     11  N   UNL     1      43.020   1.874  11.727  0.00  0.00    +0.000 NA
ATOM     12  H   UNL     1      43.068   1.956  10.711  0.00  0.00    +0.000 HD
ATOM     13  H   UNL     1      42.040   1.703  11.951  0.00  0.00    +0.000 HD
ENDBRANCH  10  11
ENDBRANCH   9  10
ENDBRANCH   8   9
BRANCH   8  14
ATOM     14  C   UNL     1      44.122   4.404   9.351  0.00  0.00    +0.000 C 
BRANCH  14  15
ATOM     15  C   UNL     1      45.343   3.497   9.078  0.00  0.00    +0.000 C 
ATOM     16  C   UNL     1      45.783   3.593   7.619  0.00  0.00    +0.000 C 
ATOM     17  C   UNL     1      46.597   2.330   7.433  0.00  0.00    +0.000 C 
ATOM     18  C   UNL     1      45.940   1.316   8.359  0.00  0.00    +0.000 C 
ATOM     19  N   UNL     1      45.035   2.069   9.222  0.00  0.00    +0.000 NA
ATOM     20  H   UNL     1      45.094   1.787  10.200  0.00  0.00    +0.000 HD
ENDBRANCH  14  15
ENDBRANCH   8  14
ENDBRANCH   7   8
ENDBRANCH   1   7
BRANCH   4  21
ATOM     21  C   UNL     1      47.425  10.285  12.426  0.00  0.00    +0.000 C 
BRANCH  21  22
ATOM     22  N   UNL     1      48.874  10.277  12.450  0.00  0.00    +0.000 N 
ATOM     23  C   UNL     1      49.592  10.546  13.584  0.00  0.00    +0.000 C 
ATOM     24  O   UNL     1      49.044  10.812  14.652  0.00  0.00    +0.000 OA
ATOM     25  H   UNL     1      49.332  10.289  11.543  0.00  0.00    +0.000 HD
BRANCH  23  26
ATOM     26  C   UNL     1      51.055  10.424  13.488  0.00  0.00    +0.000 A 
ATOM     27  C   UNL     1      51.783  11.436  12.876  0.00  0.00    +0.000 A 
ATOM     28  S   UNL     1      53.468  11.177  12.889  0.00  0.00    +0.000 S 
ATOM     29  C   UNL     1      53.284   9.678  13.669  0.00  0.00    +0.000 A 
ATOM     30  N   UNL     1      54.366   8.908  13.959  0.00  0.00    +0.000 NA
ATOM     31  C   UNL     1      54.084   7.777  14.516  0.00  0.00    +0.000 A 
ATOM     32  N   UNL     1      52.818   7.354  14.817  0.00  0.00    +0.000 N 
ATOM     33  C   UNL     1      51.700   8.129  14.607  0.00  0.00    +0.000 A 
ATOM     34  O   UNL     1      50.596   7.768  15.001  0.00  0.00    +0.000 OA
ATOM     35  C   UNL     1      51.959   9.390  13.941  0.00  0.00    +0.000 A 
ATOM     36  H   UNL     1      52.663   6.470  15.281  0.00  0.00    +0.000 HD
ENDBRANCH  23  26
ENDBRANCH  21  22
ENDBRANCH   4  21
TORSDOF 10
ENDMDL
MODEL 6
REMARK VINA RESULT:    -6.115      2.393      3.206
REMARK INTER + INTRA:         -10.496
REMARK INTER:                  -9.319
REMARK INTRA:                  -1.178
REMARK UNBOUND:                -0.986
REMARK  Name = 
REMARK  10 active torsions:
REMARK  status: ('A' for Active; 'I' for Inactive)
REMARK    1  A    between atoms: N_1  and  C_2
REMARK    2  A    between atoms: C_2  and  C_3
REMARK    3  A    between atoms: C_3  and  N_4
REMARK    4  A    between atoms: N_4  and  C_5
REMARK    5  A    between atoms: N_4  and  C_26
REMARK    6  A    between atoms: C_5  and  C_6
REMARK    7  A    between atoms: C_9  and  C_10
REMARK    8  A    between atoms: C_10  and  N_11
REMARK    9  A    between atoms: C_12  and  C_14
REMARK   10  A    between atoms: C_26  and  C_27
REMARK                            x       y       z     vdW  Elec       q    Type
REMARK                         _______ _______ _______ _____ _____    ______ ____
ROOT
ATOM      1  C   UNL     1      46.528   7.547  12.023  0.00  0.00    +0.000 A 
ATOM      2  C   UNL     1      47.845   7.375  11.592  0.00  0.00    +0.000 A 
ATOM      3  C   UNL     1      48.894   7.891  12.351  0.00  0.00    +0.000 A 
ATOM      4  C   UNL     1      48.602   8.578  13.527  0.00  0.00    +0.000 A 
ATOM      5  N   UNL     1      47.330   8.797  13.946  0.00  0.00    +0.000 NA
ATOM      6  C   UNL     1      46.335   8.283  13.189  0.00  0.00    +0.000 A 
ENDROOT
BRANCH   1   7
ATOM      7  C   UNL     1      45.368   6.896  11.306  0.00  0.00    +0.000 C 
BRANCH   7   8
ATOM      8  N   UNL     1      44.916   5.622  11.919  0.00  0.00    +0.000 NA
BRANCH   8   9
ATOM      9  C   UNL     1      46.047   4.878  12.521  0.00  0.00    +0.000 C 
BRANCH   9  10
ATOM     10  C   UNL     1      45.992   4.680  14.051  0.00  0.00    +0.000 C 
BRANCH  10  11
ATOM     11  N   UNL     1      47.108   5.368  14.710  0.00  0.00    +0.000 NA
ATOM     12  H   UNL     1      46.750   5.895  15.507  0.00  0.00    +0.000 HD
ATOM     13  H   UNL     1      47.512   6.054  14.075  0.00  0.00    +0.000 HD
ENDBRANCH  10  11
ENDBRANCH   9  10
ENDBRANCH   8   9
BRANCH   8  14
ATOM     14  C   UNL     1      44.242   4.776  10.892  0.00  0.00    +0.000 C 
BRANCH  14  15
ATOM     15  C   UNL     1      45.108   3.765  10.107  0.00  0.00    +0.000 C 
ATOM     16  C   UNL     1      45.223   4.165   8.638  0.00  0.00    +0.000 C 
ATOM     17  C   UNL     1      45.636   2.869   7.971  0.00  0.00    +0.000 C 
ATOM     18  C   UNL     1      44.971   1.785   8.806  0.00  0.00    +0.000 C 
ATOM     19  N   UNL     1      44.496   2.433  10.025  0.00  0.00    +0.000 NA
ATOM     20  H   UNL     1      44.697   1.893  10.865  0.00  0.00    +0.000 HD
ENDBRANCH  14  15
ENDBRANCH   8  14
ENDBRANCH   7   8
ENDBRANCH   1   7
BRANCH   4  21
ATOM     21  C   UNL     1      49.715   9.050  14.431  0.00  0.00    +0.000 C 
BRANCH  21  22
ATOM     22  N   UNL     1      49.541   8.592  15.794  0.00  0.00    +0.000 N 
ATOM     23  C   UNL     1      50.057   7.407  16.243  0.00  0.00    +0.000 C 
ATOM     24  O   UNL     1      50.703   6.660  15.510  0.00  0.00    +0.000 OA
ATOM     25  H   UNL     1      48.829   9.074  16.336  0.00  0.00    +0.000 HD
BRANCH  23  26
ATOM     26  C   UNL     1      49.876   7.102  17.671  0.00  0.00    +0.000 A 
ATOM     27  C   UNL     1      50.103   8.096  18.613  0.00  0.00    +0.000 A 
ATOM     28  S   UNL     1      49.801   7.606  20.218  0.00  0.00    +0.000 S 
ATOM     29  C   UNL     1      49.402   6.031  19.718  0.00  0.00    +0.000 A 
ATOM     30  N   UNL     1      49.064   5.078  20.626  0.00  0.00    +0.000 NA
ATOM     31  C   UNL     1      48.823   3.916  20.117  0.00  0.00    +0.000 A 
ATOM     32  N   UNL     1      48.880   3.626  18.780  0.00  0.00    +0.000 N 
ATOM     33  C   UNL     1      49.149   4.574  17.820  0.00  0.00    +0.000 A 
ATOM     34  O   UNL     1      49.073   4.306  16.625  0.00  0.00    +0.000 OA
ATOM     35  C   UNL     1      49.472   5.886  18.344  0.00  0.00    +0.000 A 
ATOM     36  H   UNL     1      48.652   2.703  18.439  0.00  0.00    +0.000 HD
ENDBRANCH  23  26
ENDBRANCH  21  22
ENDBRANCH   4  21
TORSDOF 10
ENDMDL
MODEL 7
REMARK VINA RESULT:    -5.883      2.749      4.036
REMARK INTER + INTRA:         -10.135
REMARK INTER:                  -8.923
REMARK INTRA:                  -1.212
REMARK UNBOUND:                -0.986
REMARK  Name = 
REMARK  10 active torsions:
REMARK  status: ('A' for Active; 'I' for Inactive)
REMARK    1  A    between atoms: N_1  and  C_2
REMARK    2  A    between atoms: C_2  and  C_3
REMARK    3  A    between atoms: C_3  and  N_4
REMARK    4  A    between atoms: N_4  and  C_5
REMARK    5  A    between atoms: N_4  and  C_26
REMARK    6  A    between atoms: C_5  and  C_6
REMARK    7  A    between atoms: C_9  and  C_10
REMARK    8  A    between atoms: C_10  and  N_11
REMARK    9  A    between atoms: C_12  and  C_14
REMARK   10  A    between atoms: C_26  and  C_27
REMARK                            x       y       z     vdW  Elec       q    Type
REMARK                         _______ _______ _______ _____ _____    ______ ____
ROOT
ATOM      1  C   UNL     1      47.229   4.421  15.042  0.00  0.00    +0.000 A 
ATOM      2  C   UNL     1      47.910   5.623  15.244  0.00  0.00    +0.000 A 
ATOM      3  C   UNL     1      48.469   5.899  16.490  0.00  0.00    +0.000 A 
ATOM      4  C   UNL     1      48.329   4.966  17.515  0.00  0.00    +0.000 A 
ATOM      5  N   UNL     1      47.635   3.810  17.357  0.00  0.00    +0.000 NA
ATOM      6  C   UNL     1      47.105   3.572  16.137  0.00  0.00    +0.000 A 
ENDROOT
BRANCH   1   7
ATOM      7  C   UNL     1      46.719   4.019  13.678  0.00  0.00    +0.000 C 
BRANCH   7   8
ATOM      8  N   UNL     1      45.637   4.891  13.155  0.00  0.00    +0.000 NA
BRANCH   8   9
ATOM      9  C   UNL     1      44.663   4.121  12.347  0.00  0.00    +0.000 C 
BRANCH   9  10
ATOM     10  C   UNL     1      43.232   4.697  12.276  0.00  0.00    +0.000 C 
BRANCH  10  11
ATOM     11  N   UNL     1      42.914   5.466  13.483  0.00  0.00    +0.000 NA
ATOM     12  H   UNL     1      42.420   4.864  14.142  0.00  0.00    +0.000 HD
ATOM     13  H   UNL     1      42.270   6.221  13.250  0.00  0.00    +0.000 HD
ENDBRANCH  10  11
ENDBRANCH   9  10
ENDBRANCH   8   9
BRANCH   8  14
ATOM     14  C   UNL     1      46.221   5.989  12.331  0.00  0.00    +0.000 C 
BRANCH  14  15
ATOM     15  C   UNL     1      45.826   7.442  12.678  0.00  0.00    +0.000 C 
ATOM     16  C   UNL     1      44.823   7.993  11.668  0.00  0.00    +0.000 C 
ATOM     17  C   UNL     1      44.950   9.491  11.856  0.00  0.00    +0.000 C 
ATOM     18  C   UNL     1      46.406   9.701  12.246  0.00  0.00    +0.000 C 
ATOM     19  N   UNL     1      46.946   8.382  12.557  0.00  0.00    +0.000 NA
ATOM     20  H   UNL     1      47.512   8.376  13.404  0.00  0.00    +0.000 HD
ENDBRANCH  14  15
ENDBRANCH   8  14
ENDBRANCH   7   8
ENDBRANCH   1   7
BRANCH   4  21
ATOM     21  C   UNL     1      49.018   5.179  18.841  0.00  0.00    +0.000 C 
BRANCH  21  22
ATOM     22  N   UNL     1      50.184   4.332  18.992  0.00  0.00    +0.000 N 
ATOM     23  C   UNL     1      51.439   4.736  18.626  0.00  0.00    +0.000 C 
ATOM     24  O   UNL     1      51.649   5.849  18.146  0.00  0.00    +0.000 OA
ATOM     25  H   UNL     1      49.997   3.348  19.165  0.00  0.00    +0.000 HD
BRANCH  23  26
ATOM     26  C   UNL     1      52.544   3.808  18.909  0.00  0.00    +0.000 A 
ATOM     27  C   UNL     1      53.583   4.218  19.735  0.00  0.00    +0.000 A 
ATOM     28  S   UNL     1      54.760   3.016  20.010  0.00  0.00    +0.000 S 
ATOM     29  C   UNL     1      53.952   1.918  18.994  0.00  0.00    +0.000 A 
ATOM     30  N   UNL     1      54.460   0.677  18.768  0.00  0.00    +0.000 NA
ATOM     31  C   UNL     1      53.769  -0.042  17.947  0.00  0.00    +0.000 A 
ATOM     32  N   UNL     1      52.612   0.368  17.340  0.00  0.00    +0.000 N 
ATOM     33  C   UNL     1      52.026   1.587  17.591  0.00  0.00    +0.000 A 
ATOM     34  O   UNL     1      50.928   1.870  17.123  0.00  0.00    +0.000 OA
ATOM     35  C   UNL     1      52.786   2.450  18.473  0.00  0.00    +0.000 A 
ATOM     36  H   UNL     1      52.100  -0.252  16.728  0.00  0.00    +0.000 HD
ENDBRANCH  23  26
ENDBRANCH  21  22
ENDBRANCH   4  21
TORSDOF 10
ENDMDL
MODEL 8
REMARK VINA RESULT:    -5.855      3.793      9.058
REMARK INTER + INTRA:         -10.092
REMARK INTER:                  -8.895
REMARK INTRA:                  -1.197
REMARK UNBOUND:                -0.986
REMARK  Name = 
REMARK  10 active torsions:
REMARK  status: ('A' for Active; 'I' for Inactive)
REMARK    1  A    between atoms: N_1  and  C_2
REMARK    2  A    between atoms: C_2  and  C_3
REMARK    3  A    between atoms: C_3  and  N_4
REMARK    4  A    between atoms: N_4  and  C_5
REMARK    5  A    between atoms: N_4  and  C_26
REMARK    6  A    between atoms: C_5  and  C_6
REMARK    7  A    between atoms: C_9  and  C_10
REMARK    8  A    between atoms: C_10  and  N_11
REMARK    9  A    between atoms: C_12  and  C_14
REMARK   10  A    between atoms: C_26  and  C_27
REMARK                            x       y       z     vdW  Elec       q    Type
REMARK                         _______ _______ _______ _____ _____    ______ ____
ROOT
ATOM      1  C   UNL     1      49.717   8.358  15.334  0.00  0.00    +0.000 A 
ATOM      2  C   UNL     1      50.242   7.716  14.211  0.00  0.00    +0.000 A 
ATOM      3  C   UNL     1      49.451   7.553  13.075  0.00  0.00    +0.000 A 
ATOM      4  C   UNL     1      48.143   8.032  13.088  0.00  0.00    +0.000 A 
ATOM      5  N   UNL     1      47.595   8.621  14.181  0.00  0.00    +0.000 NA
ATOM      6  C   UNL     1      48.387   8.764  15.266  0.00  0.00    +0.000 A 
ENDROOT
BRANCH   1   7
ATOM      7  C   UNL     1      50.572   8.673  16.539  0.00  0.00    +0.000 C 
BRANCH   7   8
ATOM      8  N   UNL     1      50.237   7.875  17.744  0.00  0.00    +0.000 NA
BRANCH   8   9
ATOM      9  C   UNL     1      51.127   8.208  18.880  0.00  0.00    +0.000 C 
BRANCH   9  10
ATOM     10  C   UNL     1      51.165   9.693  19.302  0.00  0.00    +0.000 C 
BRANCH  10  11
ATOM     11  N   UNL     1      49.840  10.151  19.732  0.00  0.00    +0.000 NA
ATOM     12  H   UNL     1      49.890  11.142  19.967  0.00  0.00    +0.000 HD
ATOM     13  H   UNL     1      49.572   9.670  20.589  0.00  0.00    +0.000 HD
ENDBRANCH  10  11
ENDBRANCH   9  10
ENDBRANCH   8   9
BRANCH   8  14
ATOM     14  C   UNL     1      50.335   6.419  17.434  0.00  0.00    +0.000 C 
BRANCH  14  15
ATOM     15  C   UNL     1      49.058   5.561  17.578  0.00  0.00    +0.000 C 
ATOM     16  C   UNL     1      49.318   4.330  18.443  0.00  0.00    +0.000 C 
ATOM     17  C   UNL     1      48.179   3.408  18.062  0.00  0.00    +0.000 C 
ATOM     18  C   UNL     1      47.901   3.734  16.601  0.00  0.00    +0.000 C 
ATOM     19  N   UNL     1      48.623   4.968  16.308  0.00  0.00    +0.000 NA
ATOM     20  H   UNL     1      48.068   5.635  15.773  0.00  0.00    +0.000 HD
ENDBRANCH  14  15
ENDBRANCH   8  14
ENDBRANCH   7   8
ENDBRANCH   1   7
BRANCH   4  21
ATOM     21  C   UNL     1      47.297   7.977  11.839  0.00  0.00    +0.000 C 
BRANCH  21  22
ATOM     22  N   UNL     1      46.637   6.696  11.685  0.00  0.00    +0.000 N 
ATOM     23  C   UNL     1      45.277   6.579  11.578  0.00  0.00    +0.000 C 
ATOM     24  O   UNL     1      44.536   7.560  11.605  0.00  0.00    +0.000 OA
ATOM     25  H   UNL     1      47.203   5.878  11.890  0.00  0.00    +0.000 HD
BRANCH  23  26
ATOM     26  C   UNL     1      44.744   5.227  11.345  0.00  0.00    +0.000 A 
ATOM     27  C   UNL     1      43.949   4.633  12.317  0.00  0.00    +0.000 A 
ATOM     28  S   UNL     1      43.364   3.093  11.881  0.00  0.00    +0.000 S 
ATOM     29  C   UNL     1      44.193   3.140  10.397  0.00  0.00    +0.000 A 
ATOM     30  N   UNL     1      44.133   2.092   9.533  0.00  0.00    +0.000 NA
ATOM     31  C   UNL     1      44.838   2.241   8.462  0.00  0.00    +0.000 A 
ATOM     32  N   UNL     1      45.590   3.349   8.174  0.00  0.00    +0.000 N 
ATOM     33  C   UNL     1      45.624   4.460   8.984  0.00  0.00    +0.000 A 
ATOM     34  O   UNL     1      46.211   5.480   8.636  0.00  0.00    +0.000 OA
ATOM     35  C   UNL     1      44.884   4.326  10.223  0.00  0.00    +0.000 A 
ATOM     36  H   UNL     1      46.098   3.419   7.304  0.00  0.00    +0.000 HD
ENDBRANCH  23  26
ENDBRANCH  21  22
ENDBRANCH   4  21
TORSDOF 10
ENDMDL
MODEL 9
REMARK VINA RESULT:    -5.744      3.631      8.772
REMARK INTER + INTRA:          -9.919
REMARK INTER:                  -8.593
REMARK INTRA:                  -1.326
REMARK UNBOUND:                -0.986
REMARK  Name = 
REMARK  10 active torsions:
REMARK  status: ('A' for Active; 'I' for Inactive)
REMARK    1  A    between atoms: N_1  and  C_2
REMARK    2  A    between atoms: C_2  and  C_3
REMARK    3  A    between atoms: C_3  and  N_4
REMARK    4  A    between atoms: N_4  and  C_5
REMARK    5  A    between atoms: N_4  and  C_26
REMARK    6  A    between atoms: C_5  and  C_6
REMARK    7  A    between atoms: C_9  and  C_10
REMARK    8  A    between atoms: C_10  and  N_11
REMARK    9  A    between atoms: C_12  and  C_14
REMARK   10  A    between atoms: C_26  and  C_27
REMARK                            x       y       z     vdW  Elec       q    Type
REMARK                         _______ _______ _______ _____ _____    ______ ____
ROOT
ATOM      1  C   UNL     1      50.039   7.834  15.767  0.00  0.00    +0.000 A 
ATOM      2  C   UNL     1      50.827   7.763  14.616  0.00  0.00    +0.000 A 
ATOM      3  C   UNL     1      50.232   7.884  13.362  0.00  0.00    +0.000 A 
ATOM      4  C   UNL     1      48.853   8.068  13.284  0.00  0.00    +0.000 A 
ATOM      5  N   UNL     1      48.059   8.098  14.384  0.00  0.00    +0.000 NA
ATOM      6  C   UNL     1      48.666   7.978  15.585  0.00  0.00    +0.000 A 
ENDROOT
BRANCH   1   7
ATOM      7  C   UNL     1      50.651   7.839  17.148  0.00  0.00    +0.000 C 
BRANCH   7   8
ATOM      8  N   UNL     1      50.000   6.907  18.102  0.00  0.00    +0.000 NA
BRANCH   8   9
ATOM      9  C   UNL     1      50.466   7.138  19.489  0.00  0.00    +0.000 C 
BRANCH   9  10
ATOM     10  C   UNL     1      51.972   7.433  19.660  0.00  0.00    +0.000 C 
BRANCH  10  11
ATOM     11  N   UNL     1      52.621   6.401  20.475  0.00  0.00    +0.000 NA
ATOM     12  H   UNL     1      53.608   6.350  20.224  0.00  0.00    +0.000 HD
ATOM     13  H   UNL     1      52.224   5.489  20.253  0.00  0.00    +0.000 HD
ENDBRANCH  10  11
ENDBRANCH   9  10
ENDBRANCH   8   9
BRANCH   8  14
ATOM     14  C   UNL     1      50.275   5.497  17.703  0.00  0.00    +0.000 C 
BRANCH  14  15
ATOM     15  C   UNL     1      49.160   4.451  17.930  0.00  0.00    +0.000 C 
ATOM     16  C   UNL     1      49.485   3.139  17.219  0.00  0.00    +0.000 C 
ATOM     17  C   UNL     1      48.131   2.467  17.125  0.00  0.00    +0.000 C 
ATOM     18  C   UNL     1      47.145   3.619  16.994  0.00  0.00    +0.000 C 
ATOM     19  N   UNL     1      47.884   4.835  17.316  0.00  0.00    +0.000 NA
ATOM     20  H   UNL     1      47.366   5.463  17.930  0.00  0.00    +0.000 HD
ENDBRANCH  14  15
ENDBRANCH   8  14
ENDBRANCH   7   8
ENDBRANCH   1   7
BRANCH   4  21
ATOM     21  C   UNL     1      48.191   8.318  11.950  0.00  0.00    +0.000 C 
BRANCH  21  22
ATOM     22  N   UNL     1      47.518   7.138  11.447  0.00  0.00    +0.000 N 
ATOM     23  C   UNL     1      46.155   7.019  11.432  0.00  0.00    +0.000 C 
ATOM     24  O   UNL     1      45.420   7.915  11.847  0.00  0.00    +0.000 OA
ATOM     25  H   UNL     1      48.101   6.315  11.321  0.00  0.00    +0.000 HD
BRANCH  23  26
ATOM     26  C   UNL     1      45.600   5.802  10.820  0.00  0.00    +0.000 A 
ATOM     27  C   UNL     1      45.816   5.562   9.469  0.00  0.00    +0.000 A 
ATOM     28  S   UNL     1      45.158   4.089   8.918  0.00  0.00    +0.000 S 
ATOM     29  C   UNL     1      44.517   3.740  10.454  0.00  0.00    +0.000 A 
ATOM     30  N   UNL     1      43.797   2.607  10.665  0.00  0.00    +0.000 NA
ATOM     31  C   UNL     1      43.335   2.483  11.865  0.00  0.00    +0.000 A 
ATOM     32  N   UNL     1      43.539   3.387  12.873  0.00  0.00    +0.000 N 
ATOM     33  C   UNL     1      44.318   4.511  12.724  0.00  0.00    +0.000 A 
ATOM     34  O   UNL     1      44.577   5.233  13.681  0.00  0.00    +0.000 OA
ATOM     35  C   UNL     1      44.823   4.719  11.382  0.00  0.00    +0.000 A 
ATOM     36  H   UNL     1      43.175   3.219  13.801  0.00  0.00    +0.000 HD
ENDBRANCH  23  26
ENDBRANCH  21  22
ENDBRANCH   4  21
TORSDOF 10
ENDMDL
