MODEL 1
REMARK VINA RESULT:    -7.560      0.000      0.000
REMARK INTER + INTRA:         -11.581
REMARK INTER:                 -10.875
REMARK INTRA:                  -0.706
REMARK UNBOUND:                -0.706
REMARK  Name = 
REMARK  8 active torsions:
REMARK  status: ('A' for Active; 'I' for Inactive)
REMARK    1  A    between atoms: N_1  and  C_2
REMARK    2  A    between atoms: C_2  and  C_3
REMARK    3  A    between atoms: C_6  and  N_7
REMARK    4  A    between atoms: N_7  and  C_8
REMARK    5  A    between atoms: C_8  and  C_9
REMARK    6  A    between atoms: N_13  and  C_14
REMARK    7  A    between atoms: C_14  and  C_15
REMARK    8  A    between atoms: C_15  and  C_16
REMARK                            x       y       z     vdW  Elec       q    Type
REMARK                         _______ _______ _______ _____ _____    ______ ____
ROOT
ATOM      1  C   UNL     1      44.022   5.019  11.243  0.00  0.00    +0.000 C 
ENDROOT
BRANCH   1   2
ATOM      2  C   UNL     1      45.442   5.396  11.679  0.00  0.00    +0.000 C 
ATOM      3  C   UNL     1      45.649   6.814  12.208  0.00  0.00    +0.000 C 
ATOM      4  C   UNL     1      47.040   6.924  12.851  0.00  0.00    +0.000 C 
ATOM      5  C   UNL     1      47.276   5.852  13.929  0.00  0.00    +0.000 C 
ATOM      6  N   UNL     1      47.063   4.489  13.411  0.00  0.00    +0.000 NA
ATOM      7  C   UNL     1      45.737   4.390  12.805  0.00  0.00    +0.000 C 
BRANCH   6   8
ATOM      8  C   UNL     1      47.199   3.482  14.494  0.00  0.00    +0.000 C 
BRANCH   8   9
ATOM      9  C   UNL     1      47.393   4.106  15.885  0.00  0.00    +0.000 C 
BRANCH   9  10
ATOM     10  C   UNL     1      47.988   3.140  16.883  0.00  0.00    +0.000 C 
ATOM     11  F   UNL     1      47.059   2.544  17.657  0.00  0.00    +0.000 F 
ATOM     12  F   UNL     1      48.667   2.160  16.240  0.00  0.00    +0.000 F 
ATOM     13  F   UNL     1      48.866   3.768  17.695  0.00  0.00    +0.000 F 
ENDBRANCH   9  10
ENDBRANCH   8   9
ENDBRANCH   6   8
ENDBRANCH   1   2
BRANCH   1  14
ATOM     14  N   UNL     1      43.773   4.872   9.814  0.00  0.00    +0.000 N 
ATOM     15  H   UNL     1      42.804   4.647   9.603  0.00  0.00    +0.000 HD
BRANCH  14  19
ATOM     16  C   UNL     1      46.286   2.013   7.987  0.00  0.00    +0.000 A 
ATOM     17  C   UNL     1      46.377   3.333   7.575  0.00  0.00    +0.000 A 
ATOM     18  C   UNL     1      45.545   4.283   8.170  0.00  0.00    +0.000 A 
ATOM     19  C   UNL     1      44.660   3.940   9.197  0.00  0.00    +0.000 A 
ATOM     20  C   UNL     1      44.614   2.580   9.500  0.00  0.00    +0.000 A 
ATOM     21  N   UNL     1      45.407   1.620   8.943  0.00  0.00    +0.000 NA
BRANCH  16  22
ATOM     22  C   UNL     1      47.152   0.961   7.324  0.00  0.00    +0.000 C 
BRANCH  22  23
ATOM     23  N   UNL     1      46.804  -0.409   7.724  0.00  0.00    +0.000 NA
ATOM     24  H   UNL     1      46.633  -0.954   6.882  0.00  0.00    +0.000 HD
ATOM     25  H   UNL     1      45.915  -0.373   8.223  0.00  0.00    +0.000 HD
ENDBRANCH  22  23
ENDBRANCH  16  22
ENDBRANCH  14  19
ENDBRANCH   1  14
TORSDOF 8
ENDMDL
MODEL 2
REMARK VINA RESULT:    -7.054      3.150      4.115
REMARK INTER + INTRA:         -10.853
REMARK INTER:                 -10.039
REMARK INTRA:                  -0.814
REMARK UNBOUND:                -0.706
REMARK  Name = 
REMARK  8 active torsions:
REMARK  status: ('A' for Active; 'I' for Inactive)
REMARK    1  A    between atoms: N_1  and  C_2
REMARK    2  A    between atoms: C_2  and  C_3
REMARK    3  A    between atoms: C_6  and  N_7
REMARK    4  A    between atoms: N_7  and  C_8
REMARK    5  A    between atoms: C_8  and  C_9
REMARK    6  A    between atoms: N_13  and  C_14
REMARK    7  A    between atoms: C_14  and  C_15
REMARK    8  A    between atoms: C_15  and  C_16
REMARK                            x       y       z     vdW  Elec       q    Type
REMARK                         _______ _______ _______ _____ _____    ______ ____
ROOT
ATOM      1  C   UNL     1      43.514   4.069  11.188  0.00  0.00    +0.000 C 
ENDROOT
BRANCH   1   2
ATOM      2  C   UNL     1      44.433   4.287  12.395  0.00  0.00    +0.000 C 
ATOM      3  C   UNL     1      45.597   3.313  12.562  0.00  0.00    +0.000 C 
ATOM      4  C   UNL     1      46.558   3.842  13.639  0.00  0.00    +0.000 C 
ATOM      5  C   UNL     1      47.027   5.279  13.354  0.00  0.00    +0.000 C 
ATOM      6  N   UNL     1      45.896   6.208  13.183  0.00  0.00    +0.000 NA
ATOM      7  C   UNL     1      44.989   5.702  12.156  0.00  0.00    +0.000 C 
BRANCH   6   8
ATOM      8  C   UNL     1      46.373   7.564  12.812  0.00  0.00    +0.000 C 
BRANCH   8   9
ATOM      9  C   UNL     1      47.304   7.568  11.589  0.00  0.00    +0.000 C 
BRANCH   9  10
ATOM     10  C   UNL     1      48.597   8.307  11.839  0.00  0.00    +0.000 C 
ATOM     11  F   UNL     1      49.664   7.708  11.271  0.00  0.00    +0.000 F 
ATOM     12  F   UNL     1      48.526   9.564  11.338  0.00  0.00    +0.000 F 
ATOM     13  F   UNL     1      48.840   8.418  13.163  0.00  0.00    +0.000 F 
ENDBRANCH   9  10
ENDBRANCH   8   9
ENDBRANCH   6   8
ENDBRANCH   1   2
BRANCH   1  14
ATOM     14  N   UNL     1      43.869   4.737   9.942  0.00  0.00    +0.000 N 
ATOM     15  H   UNL     1      43.057   5.033   9.406  0.00  0.00    +0.000 HD
BRANCH  14  19
ATOM     16  C   UNL     1      46.597   2.535   7.589  0.00  0.00    +0.000 A 
ATOM     17  C   UNL     1      45.734   1.842   8.422  0.00  0.00    +0.000 A 
ATOM     18  C   UNL     1      44.833   2.563   9.208  0.00  0.00    +0.000 A 
ATOM     19  C   UNL     1      44.755   3.958   9.138  0.00  0.00    +0.000 A 
ATOM     20  C   UNL     1      45.699   4.557   8.306  0.00  0.00    +0.000 A 
ATOM     21  N   UNL     1      46.596   3.890   7.523  0.00  0.00    +0.000 NA
BRANCH  16  22
ATOM     22  C   UNL     1      47.609   1.771   6.758  0.00  0.00    +0.000 C 
BRANCH  22  23
ATOM     23  N   UNL     1      48.684   2.622   6.231  0.00  0.00    +0.000 NA
ATOM     24  H   UNL     1      48.269   3.311   5.608  0.00  0.00    +0.000 HD
ATOM     25  H   UNL     1      49.286   2.041   5.648  0.00  0.00    +0.000 HD
ENDBRANCH  22  23
ENDBRANCH  16  22
ENDBRANCH  14  19
ENDBRANCH   1  14
TORSDOF 8
ENDMDL
MODEL 3
REMARK VINA RESULT:    -6.930      4.049      8.116
REMARK INTER + INTRA:         -10.674
REMARK INTER:                 -10.125
REMARK INTRA:                  -0.549
REMARK UNBOUND:                -0.706
REMARK  Name = 
REMARK  8 active torsions:
REMARK  status: ('A' for Active; 'I' for Inactive)
REMARK    1  A    between atoms: N_1  and  C_2
REMARK    2  A    between atoms: C_2  and  C_3
REMARK    3  A    between atoms: C_6  and  N_7
REMARK    4  A    between atoms: N_7  and  C_8
REMARK    5  A    between atoms: C_8  and  C_9
REMARK    6  A    between atoms: N_13  and  C_14
REMARK    7  A    between atoms: C_14  and  C_15
REMARK    8  A    between atoms: C_15  and  C_16
REMARK                            x       y       z     vdW  Elec       q    Type
REMARK                         _______ _______ _______ _____ _____    ______ ____
ROOT
ATOM      1  C   UNL     1      46.576   4.439  13.616  0.00  0.00    +0.000 C 
ENDROOT
BRANCH   1   2
ATOM      2  C   UNL     1      45.149   4.346  13.064  0.00  0.00    +0.000 C 
ATOM      3  C   UNL     1      44.390   5.659  12.885  0.00  0.00    +0.000 C 
ATOM      4  C   UNL     1      43.111   5.406  12.072  0.00  0.00    +0.000 C 
ATOM      5  C   UNL     1      43.394   4.702  10.734  0.00  0.00    +0.000 C 
ATOM      6  N   UNL     1      44.136   3.442  10.917  0.00  0.00    +0.000 NA
ATOM      7  C   UNL     1      45.353   3.691  11.686  0.00  0.00    +0.000 C 
BRANCH   6   8
ATOM      8  C   UNL     1      44.483   2.835   9.607  0.00  0.00    +0.000 C 
BRANCH   8   9
ATOM      9  C   UNL     1      44.911   3.867   8.552  0.00  0.00    +0.000 C 
BRANCH   9  10
ATOM     10  C   UNL     1      46.022   3.366   7.659  0.00  0.00    +0.000 C 
ATOM     11  F   UNL     1      45.623   3.157   6.387  0.00  0.00    +0.000 F 
ATOM     12  F   UNL     1      47.036   4.265   7.621  0.00  0.00    +0.000 F 
ATOM     13  F   UNL     1      46.533   2.208   8.129  0.00  0.00    +0.000 F 
ENDBRANCH   9  10
ENDBRANCH   8   9
ENDBRANCH   6   8
ENDBRANCH   1   2
BRANCH   1  14
ATOM     14  N   UNL     1      47.127   3.254  14.261  0.00  0.00    +0.000 N 
ATOM     15  H   UNL     1      46.466   2.482  14.300  0.00  0.00    +0.000 HD
BRANCH  14  19
ATOM     16  C   UNL     1      48.580   4.156  18.121  0.00  0.00    +0.000 A 
ATOM     17  C   UNL     1      48.820   2.894  17.603  0.00  0.00    +0.000 A 
ATOM     18  C   UNL     1      48.337   2.586  16.330  0.00  0.00    +0.000 A 
ATOM     19  C   UNL     1      47.660   3.534  15.555  0.00  0.00    +0.000 A 
ATOM     20  C   UNL     1      47.432   4.753  16.189  0.00  0.00    +0.000 A 
ATOM     21  N   UNL     1      47.884   5.094  17.431  0.00  0.00    +0.000 NA
BRANCH  16  22
ATOM     22  C   UNL     1      49.062   4.495  19.518  0.00  0.00    +0.000 C 
BRANCH  22  23
ATOM     23  N   UNL     1      48.395   3.708  20.564  0.00  0.00    +0.000 NA
ATOM     24  H   UNL     1      47.416   3.601  20.308  0.00  0.00    +0.000 HD
ATOM     25  H   UNL     1      48.403   4.260  21.423  0.00  0.00    +0.000 HD
ENDBRANCH  22  23
ENDBRANCH  16  22
ENDBRANCH  14  19
ENDBRANCH   1  14
TORSDOF 8
ENDMDL
MODEL 4
REMARK VINA RESULT:    -6.481      1.821      2.313
REMARK INTER + INTRA:         -10.029
REMARK INTER:                  -9.478
REMARK INTRA:                  -0.551
REMARK UNBOUND:                -0.706
REMARK  Name = 
REMARK  8 active torsions:
REMARK  status: ('A' for Active; 'I' for Inactive)
REMARK    1  A    between atoms: N_1  and  C_2
REMARK    2  A    between atoms: C_2  and  C_3
REMARK    3  A    between atoms: C_6  and  N_7
REMARK    4  A    between atoms: N_7  and  C_8
REMARK    5  A    between atoms: C_8  and  C_9
REMARK    6  A    between atoms: N_13  and  C_14
REMARK    7  A    between atoms: C_14  and  C_15
REMARK    8  A    between atoms: C_15  and  C_16
REMARK                            x       y       z     vdW  Elec       q    Type
REMARK                         _______ _______ _______ _____ _____    ______ ____
ROOT
ATOM      1  C   UNL     1      44.042   4.468  11.200  0.00  0.00    +0.000 C 
ENDROOT
BRANCH   1   2
ATOM      2  C   UNL     1      44.976   5.678  11.309  0.00  0.00    +0.000 C 
ATOM      3  C   UNL     1      44.319   7.044  11.494  0.00  0.00    +0.000 C 
ATOM      4  C   UNL     1      45.390   8.083  11.862  0.00  0.00    +0.000 C 
ATOM      5  C   UNL     1      46.225   7.660  13.083  0.00  0.00    +0.000 C 
ATOM      6  N   UNL     1      46.845   6.336  12.898  0.00  0.00    +0.000 NA
ATOM      7  C   UNL     1      45.821   5.353  12.553  0.00  0.00    +0.000 C 
BRANCH   6   8
ATOM      8  C   UNL     1      47.561   5.909  14.127  0.00  0.00    +0.000 C 
BRANCH   8   9
ATOM      9  C   UNL     1      48.683   6.873  14.544  0.00  0.00    +0.000 C 
BRANCH   9  10
ATOM     10  C   UNL     1      49.226   6.579  15.922  0.00  0.00    +0.000 C 
ATOM     11  F   UNL     1      48.854   5.369  16.388  0.00  0.00    +0.000 F 
ATOM     12  F   UNL     1      50.581   6.608  15.909  0.00  0.00    +0.000 F 
ATOM     13  F   UNL     1      48.815   7.510  16.810  0.00  0.00    +0.000 F 
ENDBRANCH   9  10
ENDBRANCH   8   9
ENDBRANCH   6   8
ENDBRANCH   1   2
BRANCH   1  14
ATOM     14  N   UNL     1      43.617   4.063   9.866  0.00  0.00    +0.000 N 
ATOM     15  H   UNL     1      42.798   3.460   9.878  0.00  0.00    +0.000 HD
BRANCH  14  19
ATOM     16  C   UNL     1      46.662   2.192   7.618  0.00  0.00    +0.000 A 
ATOM     17  C   UNL     1      46.408   3.536   7.396  0.00  0.00    +0.000 A 
ATOM     18  C   UNL     1      45.398   4.160   8.131  0.00  0.00    +0.000 A 
ATOM     19  C   UNL     1      44.675   3.472   9.111  0.00  0.00    +0.000 A 
ATOM     20  C   UNL     1      44.977   2.116   9.219  0.00  0.00    +0.000 A 
ATOM     21  N   UNL     1      45.953   1.468   8.520  0.00  0.00    +0.000 NA
BRANCH  16  22
ATOM     22  C   UNL     1      47.727   1.488   6.800  0.00  0.00    +0.000 C 
BRANCH  22  23
ATOM     23  N   UNL     1      48.577   2.414   6.040  0.00  0.00    +0.000 NA
ATOM     24  H   UNL     1      48.420   3.355   6.393  0.00  0.00    +0.000 HD
ATOM     25  H   UNL     1      48.250   2.418   5.073  0.00  0.00    +0.000 HD
ENDBRANCH  22  23
ENDBRANCH  16  22
ENDBRANCH  14  19
ENDBRANCH   1  14
TORSDOF 8
ENDMDL
MODEL 5
REMARK VINA RESULT:    -6.368      4.135      7.244
REMARK INTER + INTRA:          -9.866
REMARK INTER:                  -9.039
REMARK INTRA:                  -0.827
REMARK UNBOUND:                -0.706
REMARK  Name = 
REMARK  8 active torsions:
REMARK  status: ('A' for Active; 'I' for Inactive)
REMARK    1  A    between atoms: N_1  and  C_2
REMARK    2  A    between atoms: C_2  and  C_3
REMARK    3  A    between atoms: C_6  and  N_7
REMARK    4  A    between atoms: N_7  and  C_8
REMARK    5  A    between atoms: C_8  and  C_9
REMARK    6  A    between atoms: N_13  and  C_14
REMARK    7  A    between atoms: C_14  and  C_15
REMARK    8  A    between atoms: C_15  and  C_16
REMARK                            x       y       z     vdW  Elec       q    Type
REMARK                         _______ _______ _______ _____ _____    ______ ____
ROOT
ATOM      1  C   UNL     1      46.449   4.358  13.641  0.00  0.00    +0.000 C 
ENDROOT
BRANCH   1   2
ATOM      2  C   UNL     1      45.042   4.292  13.038  0.00  0.00    +0.000 C 
ATOM      3  C   UNL     1      44.291   5.613  12.885  0.00  0.00    +0.000 C 
ATOM      4  C   UNL     1      43.040   5.395  12.020  0.00  0.00    +0.000 C 
ATOM      5  C   UNL     1      43.367   4.743  10.666  0.00  0.00    +0.000 C 
ATOM      6  N   UNL     1      44.101   3.475  10.824  0.00  0.00    +0.000 NA
ATOM      7  C   UNL     1      45.291   3.690  11.643  0.00  0.00    +0.000 C 
BRANCH   6   8
ATOM      8  C   UNL     1      44.491   2.918   9.504  0.00  0.00    +0.000 C 
BRANCH   8   9
ATOM      9  C   UNL     1      45.021   3.980   8.528  0.00  0.00    +0.000 C 
BRANCH   9  10
ATOM     10  C   UNL     1      46.121   3.458   7.634  0.00  0.00    +0.000 C 
ATOM     11  F   UNL     1      46.681   2.322   8.097  0.00  0.00    +0.000 F 
ATOM     12  F   UNL     1      45.635   3.193   6.397  0.00  0.00    +0.000 F 
ATOM     13  F   UNL     1      47.101   4.376   7.490  0.00  0.00    +0.000 F 
ENDBRANCH   9  10
ENDBRANCH   8   9
ENDBRANCH   6   8
ENDBRANCH   1   2
BRANCH   1  14
ATOM     14  N   UNL     1      46.775   5.518  14.461  0.00  0.00    +0.000 N 
ATOM     15  H   UNL     1      45.955   6.055  14.731  0.00  0.00    +0.000 HD
BRANCH  14  19
ATOM     16  C   UNL     1      49.785   7.942  12.759  0.00  0.00    +0.000 A 
ATOM     17  C   UNL     1      48.833   7.384  11.922  0.00  0.00    +0.000 A 
ATOM     18  C   UNL     1      47.838   6.577  12.475  0.00  0.00    +0.000 A 
ATOM     19  C   UNL     1      47.758   6.357  13.855  0.00  0.00    +0.000 A 
ATOM     20  C   UNL     1      48.791   6.924  14.599  0.00  0.00    +0.000 A 
ATOM     21  N   UNL     1      49.781   7.717  14.097  0.00  0.00    +0.000 NA
BRANCH  16  22
ATOM     22  C   UNL     1      50.896   8.788  12.170  0.00  0.00    +0.000 C 
BRANCH  22  23
ATOM     23  N   UNL     1      50.406   9.823  11.250  0.00  0.00    +0.000 NA
ATOM     24  H   UNL     1      50.042   9.366  10.418  0.00  0.00    +0.000 HD
ATOM     25  H   UNL     1      51.209  10.373  10.941  0.00  0.00    +0.000 HD
ENDBRANCH  22  23
ENDBRANCH  16  22
ENDBRANCH  14  19
ENDBRANCH   1  14
TORSDOF 8
ENDMDL
MODEL 6
REMARK VINA RESULT:    -6.266      3.338      3.842
REMARK INTER + INTRA:          -9.720
REMARK INTER:                  -9.114
REMARK INTRA:                  -0.605
REMARK UNBOUND:                -0.706
REMARK  Name = 
REMARK  8 active torsions:
REMARK  status: ('A' for Active; 'I' for Inactive)
REMARK    1  A    between atoms: N_1  and  C_2
REMARK    2  A    between atoms: C_2  and  C_3
REMARK    3  A    between atoms: C_6  and  N_7
REMARK    4  A    between atoms: N_7  and  C_8
REMARK    5  A    between atoms: C_8  and  C_9
REMARK    6  A    between atoms: N_13  and  C_14
REMARK    7  A    between atoms: C_14  and  C_15
REMARK    8  A    between atoms: C_15  and  C_16
REMARK                            x       y       z     vdW  Elec       q    Type
REMARK                         _______ _______ _______ _____ _____    ______ ____
ROOT
ATOM      1  C   UNL     1      44.384   4.081  11.205  0.00  0.00    +0.000 C 
ENDROOT
BRANCH   1   2
ATOM      2  C   UNL     1      44.866   5.533  11.102  0.00  0.00    +0.000 C 
ATOM      3  C   UNL     1      43.831   6.626  11.360  0.00  0.00    +0.000 C 
ATOM      4  C   UNL     1      44.540   7.983  11.492  0.00  0.00    +0.000 C 
ATOM      5  C   UNL     1      45.653   7.964  12.553  0.00  0.00    +0.000 C 
ATOM      6  N   UNL     1      46.640   6.899  12.302  0.00  0.00    +0.000 NA
ATOM      7  C   UNL     1      45.961   5.611  12.182  0.00  0.00    +0.000 C 
BRANCH   6   8
ATOM      8  C   UNL     1      47.646   6.838  13.393  0.00  0.00    +0.000 C 
BRANCH   8   9
ATOM      9  C   UNL     1      49.084   6.651  12.884  0.00  0.00    +0.000 C 
BRANCH   9  10
ATOM     10  C   UNL     1      49.670   7.916  12.303  0.00  0.00    +0.000 C 
ATOM     11  F   UNL     1      48.881   8.995  12.488  0.00  0.00    +0.000 F 
ATOM     12  F   UNL     1      50.866   8.188  12.879  0.00  0.00    +0.000 F 
ATOM     13  F   UNL     1      49.886   7.782  10.977  0.00  0.00    +0.000 F 
ENDBRANCH   9  10
ENDBRANCH   8   9
ENDBRANCH   6   8
ENDBRANCH   1   2
BRANCH   1  14
ATOM     14  N   UNL     1      43.873   3.454   9.993  0.00  0.00    +0.000 N 
ATOM     15  H   UNL     1      43.266   2.661  10.184  0.00  0.00    +0.000 HD
BRANCH  14  19
ATOM     16  C   UNL     1      46.880   2.257   7.282  0.00  0.00    +0.000 A 
ATOM     17  C   UNL     1      46.439   3.569   7.242  0.00  0.00    +0.000 A 
ATOM     18  C   UNL     1      45.441   3.972   8.131  0.00  0.00    +0.000 A 
ATOM     19  C   UNL     1      44.912   3.094   9.084  0.00  0.00    +0.000 A 
ATOM     20  C   UNL     1      45.390   1.787   9.005  0.00  0.00    +0.000 A 
ATOM     21  N   UNL     1      46.363   1.353   8.152  0.00  0.00    +0.000 NA
BRANCH  16  22
ATOM     22  C   UNL     1      47.934   1.792   6.297  0.00  0.00    +0.000 C 
BRANCH  22  23
ATOM     23  N   UNL     1      48.183   2.758   5.219  0.00  0.00    +0.000 NA
ATOM     24  H   UNL     1      47.294   3.173   4.950  0.00  0.00    +0.000 HD
ATOM     25  H   UNL     1      48.511   2.241   4.403  0.00  0.00    +0.000 HD
ENDBRANCH  22  23
ENDBRANCH  16  22
ENDBRANCH  14  19
ENDBRANCH   1  14
TORSDOF 8
ENDMDL
MODEL 7
REMARK VINA RESULT:    -6.231      4.021      7.815
REMARK INTER + INTRA:          -9.669
REMARK INTER:                  -9.151
REMARK INTRA:                  -0.517
REMARK UNBOUND:                -0.706
REMARK  Name = 
REMARK  8 active torsions:
REMARK  status: ('A' for Active; 'I' for Inactive)
REMARK    1  A    between atoms: N_1  and  C_2
REMARK    2  A    between atoms: C_2  and  C_3
REMARK    3  A    between atoms: C_6  and  N_7
REMARK    4  A    between atoms: N_7  and  C_8
REMARK    5  A    between atoms: C_8  and  C_9
REMARK    6  A    between atoms: N_13  and  C_14
REMARK    7  A    between atoms: C_14  and  C_15
REMARK    8  A    between atoms: C_15  and  C_16
REMARK                            x       y       z     vdW  Elec       q    Type
REMARK                         _______ _______ _______ _____ _____    ______ ____
ROOT
ATOM      1  C   UNL     1      46.860   4.096  14.264  0.00  0.00    +0.000 C 
ENDROOT
BRANCH   1   2
ATOM      2  C   UNL     1      45.992   5.156  13.578  0.00  0.00    +0.000 C 
ATOM      3  C   UNL     1      46.698   6.421  13.094  0.00  0.00    +0.000 C 
ATOM      4  C   UNL     1      45.747   7.229  12.197  0.00  0.00    +0.000 C 
ATOM      5  C   UNL     1      45.179   6.392  11.038  0.00  0.00    +0.000 C 
ATOM      6  N   UNL     1      44.510   5.169  11.515  0.00  0.00    +0.000 NA
ATOM      7  C   UNL     1      45.420   4.403  12.364  0.00  0.00    +0.000 C 
BRANCH   6   8
ATOM      8  C   UNL     1      44.058   4.331  10.375  0.00  0.00    +0.000 C 
BRANCH   8   9
ATOM      9  C   UNL     1      44.665   2.919  10.380  0.00  0.00    +0.000 C 
BRANCH   9  10
ATOM     10  C   UNL     1      44.928   2.389   8.990  0.00  0.00    +0.000 C 
ATOM     11  F   UNL     1      46.240   2.363   8.675  0.00  0.00    +0.000 F 
ATOM     12  F   UNL     1      44.461   1.123   8.873  0.00  0.00    +0.000 F 
ATOM     13  F   UNL     1      44.294   3.137   8.061  0.00  0.00    +0.000 F 
ENDBRANCH   9  10
ENDBRANCH   8   9
ENDBRANCH   6   8
ENDBRANCH   1   2
BRANCH   1  14
ATOM     14  N   UNL     1      46.798   4.012  15.718  0.00  0.00    +0.000 N 
ATOM     15  H   UNL     1      46.318   4.804  16.139  0.00  0.00    +0.000 HD
BRANCH  14  19
ATOM     16  C   UNL     1      50.572   3.565  17.556  0.00  0.00    +0.000 A 
ATOM     17  C   UNL     1      49.830   2.427  17.284  0.00  0.00    +0.000 A 
ATOM     18  C   UNL     1      48.579   2.567  16.682  0.00  0.00    +0.000 A 
ATOM     19  C   UNL     1      48.082   3.821  16.310  0.00  0.00    +0.000 A 
ATOM     20  C   UNL     1      48.886   4.900  16.672  0.00  0.00    +0.000 A 
ATOM     21  N   UNL     1      50.112   4.807  17.262  0.00  0.00    +0.000 NA
BRANCH  16  22
ATOM     22  C   UNL     1      51.915   3.435  18.246  0.00  0.00    +0.000 C 
BRANCH  22  23
ATOM     23  N   UNL     1      52.365   2.042  18.376  0.00  0.00    +0.000 NA
ATOM     24  H   UNL     1      51.613   1.433  18.063  0.00  0.00    +0.000 HD
ATOM     25  H   UNL     1      52.492   1.845  19.369  0.00  0.00    +0.000 HD
ENDBRANCH  22  23
ENDBRANCH  16  22
ENDBRANCH  14  19
ENDBRANCH   1  14
TORSDOF 8
ENDMDL
MODEL 8
REMARK VINA RESULT:    -6.168      4.341      7.161
REMARK INTER + INTRA:          -9.578
REMARK INTER:                  -8.886
REMARK INTRA:                  -0.693
REMARK UNBOUND:                -0.706
REMARK  Name = 
REMARK  8 active torsions:
REMARK  status: ('A' for Active; 'I' for Inactive)
REMARK    1  A    between atoms: N_1  and  C_2
REMARK    2  A    between atoms: C_2  and  C_3
REMARK    3  A    between atoms: C_6  and  N_7
REMARK    4  A    between atoms: N_7  and  C_8
REMARK    5  A    between atoms: C_8  and  C_9
REMARK    6  A    between atoms: N_13  and  C_14
REMARK    7  A    between atoms: C_14  and  C_15
REMARK    8  A    between atoms: C_15  and  C_16
REMARK                            x       y       z     vdW  Elec       q    Type
REMARK                         _______ _______ _______ _____ _____    ______ ____
ROOT
ATOM      1  C   UNL     1      44.954   6.846  11.646  0.00  0.00    +0.000 C 
ENDROOT
BRANCH   1   2
ATOM      2  C   UNL     1      44.815   5.365  12.016  0.00  0.00    +0.000 C 
ATOM      3  C   UNL     1      43.600   4.972  12.853  0.00  0.00    +0.000 C 
ATOM      4  C   UNL     1      43.473   3.441  12.886  0.00  0.00    +0.000 C 
ATOM      5  C   UNL     1      43.444   2.822  11.479  0.00  0.00    +0.000 C 
ATOM      6  N   UNL     1      44.615   3.216  10.676  0.00  0.00    +0.000 NA
ATOM      7  C   UNL     1      44.728   4.672  10.644  0.00  0.00    +0.000 C 
BRANCH   6   8
ATOM      8  C   UNL     1      44.513   2.688   9.292  0.00  0.00    +0.000 C 
BRANCH   8   9
ATOM      9  C   UNL     1      44.888   3.720   8.217  0.00  0.00    +0.000 C 
BRANCH   9  10
ATOM     10  C   UNL     1      46.173   3.378   7.499  0.00  0.00    +0.000 C 
ATOM     11  F   UNL     1      46.784   2.286   8.004  0.00  0.00    +0.000 F 
ATOM     12  F   UNL     1      45.928   3.134   6.189  0.00  0.00    +0.000 F 
ATOM     13  F   UNL     1      47.046   4.406   7.558  0.00  0.00    +0.000 F 
ENDBRANCH   9  10
ENDBRANCH   8   9
ENDBRANCH   6   8
ENDBRANCH   1   2
BRANCH   1  14
ATOM     14  N   UNL     1      45.591   7.725  12.618  0.00  0.00    +0.000 N 
ATOM     15  H   UNL     1      45.089   8.601  12.747  0.00  0.00    +0.000 HD
BRANCH  14  19
ATOM     16  C   UNL     1      49.650   8.562  11.814  0.00  0.00    +0.000 A 
ATOM     17  C   UNL     1      49.296   7.265  12.146  0.00  0.00    +0.000 A 
ATOM     18  C   UNL     1      47.957   6.981  12.419  0.00  0.00    +0.000 A 
ATOM     19  C   UNL     1      46.966   7.964  12.321  0.00  0.00    +0.000 A 
ATOM     20  C   UNL     1      47.437   9.242  12.028  0.00  0.00    +0.000 A 
ATOM     21  N   UNL     1      48.735   9.562  11.756  0.00  0.00    +0.000 NA
BRANCH  16  22
ATOM     22  C   UNL     1      51.106   8.897  11.553  0.00  0.00    +0.000 C 
BRANCH  22  23
ATOM     23  N   UNL     1      51.959   7.707  11.439  0.00  0.00    +0.000 NA
ATOM     24  H   UNL     1      51.665   7.032  12.141  0.00  0.00    +0.000 HD
ATOM     25  H   UNL     1      52.910   7.978  11.690  0.00  0.00    +0.000 HD
ENDBRANCH  22  23
ENDBRANCH  16  22
ENDBRANCH  14  19
ENDBRANCH   1  14
TORSDOF 8
ENDMDL
MODEL 9
REMARK VINA RESULT:    -6.126      2.661      4.197
REMARK INTER + INTRA:          -9.518
REMARK INTER:                  -8.729
REMARK INTRA:                  -0.789
REMARK UNBOUND:                -0.706
REMARK  Name = 
REMARK  8 active torsions:
REMARK  status: ('A' for Active; 'I' for Inactive)
REMARK    1  A    between atoms: N_1  and  C_2
REMARK    2  A    between atoms: C_2  and  C_3
REMARK    3  A    between atoms: C_6  and  N_7
REMARK    4  A    between atoms: N_7  and  C_8
REMARK    5  A    between atoms: C_8  and  C_9
REMARK    6  A    between atoms: N_13  and  C_14
REMARK    7  A    between atoms: C_14  and  C_15
REMARK    8  A    between atoms: C_15  and  C_16
REMARK                            x       y       z     vdW  Elec       q    Type
REMARK                         _______ _______ _______ _____ _____    ______ ____
ROOT
ATOM      1  C   UNL     1      47.949   7.469  13.084  0.00  0.00    +0.000 C 
ENDROOT
BRANCH   1   2
ATOM      2  C   UNL     1      49.211   7.062  13.852  0.00  0.00    +0.000 C 
ATOM      3  C   UNL     1      50.214   8.169  14.170  0.00  0.00    +0.000 C 
ATOM      4  C   UNL     1      51.258   7.645  15.169  0.00  0.00    +0.000 C 
ATOM      5  C   UNL     1      50.615   7.051  16.434  0.00  0.00    +0.000 C 
ATOM      6  N   UNL     1      49.640   5.992  16.115  0.00  0.00    +0.000 NA
ATOM      7  C   UNL     1      48.649   6.498  15.169  0.00  0.00    +0.000 C 
BRANCH   6   8
ATOM      8  C   UNL     1      48.963   5.506  17.344  0.00  0.00    +0.000 C 
BRANCH   8   9
ATOM      9  C   UNL     1      48.909   3.973  17.443  0.00  0.00    +0.000 C 
BRANCH   9  10
ATOM     10  C   UNL     1      47.645   3.392  16.854  0.00  0.00    +0.000 C 
ATOM     11  F   UNL     1      47.843   2.809  15.654  0.00  0.00    +0.000 F 
ATOM     12  F   UNL     1      47.132   2.449  17.681  0.00  0.00    +0.000 F 
ATOM     13  F   UNL     1      46.701   4.346  16.702  0.00  0.00    +0.000 F 
ENDBRANCH   9  10
ENDBRANCH   8   9
ENDBRANCH   6   8
ENDBRANCH   1   2
BRANCH   1  14
ATOM     14  N   UNL     1      46.663   7.072  13.644  0.00  0.00    +0.000 N 
ATOM     15  H   UNL     1      46.721   6.819  14.628  0.00  0.00    +0.000 HD
BRANCH  14  19
ATOM     16  C   UNL     1      44.726   3.972  11.531  0.00  0.00    +0.000 A 
ATOM     17  C   UNL     1      44.903   5.192  10.900  0.00  0.00    +0.000 A 
ATOM     18  C   UNL     1      45.537   6.224  11.593  0.00  0.00    +0.000 A 
ATOM     19  C   UNL     1      46.033   6.038  12.888  0.00  0.00    +0.000 A 
ATOM     20  C   UNL     1      45.759   4.791  13.447  0.00  0.00    +0.000 A 
ATOM     21  N   UNL     1      45.142   3.757  12.805  0.00  0.00    +0.000 NA
BRANCH  16  22
ATOM     22  C   UNL     1      44.003   2.853  10.808  0.00  0.00    +0.000 C 
BRANCH  22  23
ATOM     23  N   UNL     1      43.050   2.134  11.663  0.00  0.00    +0.000 NA
ATOM     24  H   UNL     1      42.317   2.783  11.942  0.00  0.00    +0.000 HD
ATOM     25  H   UNL     1      43.535   1.872  12.521  0.00  0.00    +0.000 HD
ENDBRANCH  22  23
ENDBRANCH  16  22
ENDBRANCH  14  19
ENDBRANCH   1  14
TORSDOF 8
ENDMDL
