MODEL 1
REMARK VINA RESULT:    -7.400      0.000      0.000
REMARK INTER + INTRA:         -12.134
REMARK INTER:                 -10.860
REMARK INTRA:                  -1.274
REMARK UNBOUND:                -1.274
REMARK  Name = 
REMARK  10 active torsions:
REMARK  status: ('A' for Active; 'I' for Inactive)
REMARK    1  A    between atoms: C_1  and  C_2
REMARK    2  A    between atoms: C_2  and  N_3
REMARK    3  A    between atoms: C_2  and  C_25
REMARK    4  A    between atoms: N_3  and  C_4
REMARK    5  A    between atoms: C_6  and  C_7
REMARK    6  A    between atoms: C_12  and  C_13
REMARK    7  A    between atoms: C_13  and  C_14
REMARK    8  A    between atoms: C_14  and  N_15
REMARK    9  A    between atoms: N_15  and  C_16
REMARK   10  A    between atoms: C_20  and  C_21
REMARK                            x       y       z     vdW  Elec       q    Type
REMARK                         _______ _______ _______ _____ _____    ______ ____
ROOT
ATOM      1  C   UNL     1      46.094   6.089  12.939  0.00  0.00    +0.000 A 
ATOM      2  C   UNL     1      46.668   5.571  14.114  0.00  0.00    +0.000 A 
ATOM      3  C   UNL     1      46.808   4.193  14.333  0.00  0.00    +0.000 A 
ATOM      4  C   UNL     1      46.310   3.305  13.379  0.00  0.00    +0.000 A 
ATOM      5  C   UNL     1      45.726   3.797  12.208  0.00  0.00    +0.000 A 
ATOM      6  C   UNL     1      45.636   5.181  11.959  0.00  0.00    +0.000 A 
ENDROOT
BRANCH   3   7
ATOM      7  C   UNL     1      47.502   3.758  15.582  0.00  0.00    +0.000 C 
ATOM      8  N   UNL     1      47.271   4.447  16.740  0.00  0.00    +0.000 N 
ATOM      9  O   UNL     1      48.253   2.789  15.597  0.00  0.00    +0.000 OA
ATOM     10  H   UNL     1      46.624   5.211  16.847  0.00  0.00    +0.000 HD
ATOM     11  H   UNL     1      47.713   4.082  17.574  0.00  0.00    +0.000 HD
ENDBRANCH   3   7
BRANCH   1  12
ATOM     12  N   UNL     1      45.959   7.486  12.736  0.00  0.00    +0.000 N 
ATOM     13  H   UNL     1      45.416   7.906  13.488  0.00  0.00    +0.000 HD
BRANCH  12  15
ATOM     14  C   UNL     1      46.725   9.824  12.182  0.00  0.00    +0.000 C 
ATOM     15  C   UNL     1      46.922   8.338  12.222  0.00  0.00    +0.000 C 
ATOM     16  C   UNL     1      48.255   7.794  11.812  0.00  0.00    +0.000 C 
ENDBRANCH  12  15
ENDBRANCH   1  12
BRANCH   6  17
ATOM     17  C   UNL     1      45.063   5.632  10.623  0.00  0.00    +0.000 C 
BRANCH  17  18
ATOM     18  C   UNL     1      43.820   4.830  10.224  0.00  0.00    +0.000 C 
BRANCH  18  19
ATOM     19  N   UNL     1      43.869   4.425   8.808  0.00  0.00    +0.000 N 
ATOM     20  H   UNL     1      43.966   5.219   8.178  0.00  0.00    +0.000 HD
BRANCH  19  21
ATOM     21  C   UNL     1      44.766   3.390   8.472  0.00  0.00    +0.000 A 
ATOM     22  C   UNL     1      44.723   2.132   9.082  0.00  0.00    +0.000 A 
ATOM     23  C   UNL     1      45.612   1.142   8.688  0.00  0.00    +0.000 A 
ATOM     24  N   UNL     1      46.528   1.301   7.718  0.00  0.00    +0.000 NA
ATOM     25  C   UNL     1      46.522   2.509   7.089  0.00  0.00    +0.000 A 
ATOM     26  C   UNL     1      45.661   3.557   7.411  0.00  0.00    +0.000 A 
BRANCH  25  27
ATOM     27  C   UNL     1      47.546   2.673   6.003  0.00  0.00    +0.000 C 
ATOM     28  N   UNL     1      48.848   2.540   6.411  0.00  0.00    +0.000 N 
ATOM     29  O   UNL     1      47.249   2.919   4.842  0.00  0.00    +0.000 OA
ATOM     30  H   UNL     1      49.041   2.351   7.388  0.00  0.00    +0.000 HD
ATOM     31  H   UNL     1      49.597   2.654   5.745  0.00  0.00    +0.000 HD
ENDBRANCH  25  27
ENDBRANCH  19  21
ENDBRANCH  18  19
ENDBRANCH  17  18
ENDBRANCH   6  17
TORSDOF 8
ENDMDL
MODEL 2
REMARK VINA RESULT:    -7.252      2.167      3.829
REMARK INTER + INTRA:         -11.917
REMARK INTER:                 -10.878
REMARK INTRA:                  -1.039
REMARK UNBOUND:                -1.274
REMARK  Name = 
REMARK  10 active torsions:
REMARK  status: ('A' for Active; 'I' for Inactive)
REMARK    1  A    between atoms: C_1  and  C_2
REMARK    2  A    between atoms: C_2  and  N_3
REMARK    3  A    between atoms: C_2  and  C_25
REMARK    4  A    between atoms: N_3  and  C_4
REMARK    5  A    between atoms: C_6  and  C_7
REMARK    6  A    between atoms: C_12  and  C_13
REMARK    7  A    between atoms: C_13  and  C_14
REMARK    8  A    between atoms: C_14  and  N_15
REMARK    9  A    between atoms: N_15  and  C_16
REMARK   10  A    between atoms: C_20  and  C_21
REMARK                            x       y       z     vdW  Elec       q    Type
REMARK                         _______ _______ _______ _____ _____    ______ ____
ROOT
ATOM      1  C   UNL     1      46.911   4.837  13.899  0.00  0.00    +0.000 A 
ATOM      2  C   UNL     1      48.024   5.696  13.905  0.00  0.00    +0.000 A 
ATOM      3  C   UNL     1      48.182   6.723  12.963  0.00  0.00    +0.000 A 
ATOM      4  C   UNL     1      47.232   6.859  11.950  0.00  0.00    +0.000 A 
ATOM      5  C   UNL     1      46.122   6.009  11.917  0.00  0.00    +0.000 A 
ATOM      6  C   UNL     1      45.931   5.015  12.896  0.00  0.00    +0.000 A 
ENDROOT
BRANCH   3   7
ATOM      7  C   UNL     1      49.364   7.623  13.113  0.00  0.00    +0.000 C 
ATOM      8  N   UNL     1      50.383   7.532  12.206  0.00  0.00    +0.000 N 
ATOM      9  O   UNL     1      49.431   8.453  14.013  0.00  0.00    +0.000 OA
ATOM     10  H   UNL     1      50.394   6.935  11.396  0.00  0.00    +0.000 HD
ATOM     11  H   UNL     1      51.135   8.202  12.309  0.00  0.00    +0.000 HD
ENDBRANCH   3   7
BRANCH   1  12
ATOM     12  N   UNL     1      46.769   3.803  14.859  0.00  0.00    +0.000 N 
ATOM     13  H   UNL     1      46.650   2.902  14.400  0.00  0.00    +0.000 HD
BRANCH  12  15
ATOM     14  C   UNL     1      47.135   4.639  17.210  0.00  0.00    +0.000 C 
ATOM     15  C   UNL     1      47.434   3.711  16.070  0.00  0.00    +0.000 C 
ATOM     16  C   UNL     1      48.384   2.580  16.315  0.00  0.00    +0.000 C 
ENDBRANCH  12  15
ENDBRANCH   1  12
BRANCH   6  17
ATOM     17  C   UNL     1      44.655   4.188  12.837  0.00  0.00    +0.000 C 
BRANCH  17  18
ATOM     18  C   UNL     1      44.859   2.858  12.105  0.00  0.00    +0.000 C 
BRANCH  18  19
ATOM     19  N   UNL     1      44.139   2.831  10.819  0.00  0.00    +0.000 N 
ATOM     20  H   UNL     1      43.312   3.424  10.823  0.00  0.00    +0.000 HD
BRANCH  19  21
ATOM     21  C   UNL     1      44.909   3.030   9.654  0.00  0.00    +0.000 A 
ATOM     22  C   UNL     1      45.120   4.296   9.101  0.00  0.00    +0.000 A 
ATOM     23  C   UNL     1      45.912   4.434   7.971  0.00  0.00    +0.000 A 
ATOM     24  N   UNL     1      46.528   3.409   7.359  0.00  0.00    +0.000 NA
ATOM     25  C   UNL     1      46.365   2.187   7.939  0.00  0.00    +0.000 A 
ATOM     26  C   UNL     1      45.597   1.957   9.079  0.00  0.00    +0.000 A 
BRANCH  25  27
ATOM     27  C   UNL     1      47.063   1.051   7.249  0.00  0.00    +0.000 C 
ATOM     28  N   UNL     1      46.751  -0.196   7.729  0.00  0.00    +0.000 N 
ATOM     29  O   UNL     1      47.861   1.217   6.336  0.00  0.00    +0.000 OA
ATOM     30  H   UNL     1      46.095  -0.277   8.497  0.00  0.00    +0.000 HD
ATOM     31  H   UNL     1      47.191  -1.011   7.331  0.00  0.00    +0.000 HD
ENDBRANCH  25  27
ENDBRANCH  19  21
ENDBRANCH  18  19
ENDBRANCH  17  18
ENDBRANCH   6  17
TORSDOF 8
ENDMDL
MODEL 3
REMARK VINA RESULT:    -7.024      1.556      7.221
REMARK INTER + INTRA:         -11.582
REMARK INTER:                 -10.831
REMARK INTRA:                  -0.751
REMARK UNBOUND:                -1.274
REMARK  Name = 
REMARK  10 active torsions:
REMARK  status: ('A' for Active; 'I' for Inactive)
REMARK    1  A    between atoms: C_1  and  C_2
REMARK    2  A    between atoms: C_2  and  N_3
REMARK    3  A    between atoms: C_2  and  C_25
REMARK    4  A    between atoms: N_3  and  C_4
REMARK    5  A    between atoms: C_6  and  C_7
REMARK    6  A    between atoms: C_12  and  C_13
REMARK    7  A    between atoms: C_13  and  C_14
REMARK    8  A    between atoms: C_14  and  N_15
REMARK    9  A    between atoms: N_15  and  C_16
REMARK   10  A    between atoms: C_20  and  C_21
REMARK                            x       y       z     vdW  Elec       q    Type
REMARK                         _______ _______ _______ _____ _____    ______ ____
ROOT
ATOM      1  C   UNL     1      44.972   3.035   9.655  0.00  0.00    +0.000 A 
ATOM      2  C   UNL     1      45.570   1.985   8.936  0.00  0.00    +0.000 A 
ATOM      3  C   UNL     1      46.400   2.215   7.828  0.00  0.00    +0.000 A 
ATOM      4  C   UNL     1      46.590   3.526   7.391  0.00  0.00    +0.000 A 
ATOM      5  C   UNL     1      45.996   4.585   8.083  0.00  0.00    +0.000 A 
ATOM      6  C   UNL     1      45.210   4.362   9.231  0.00  0.00    +0.000 A 
ENDROOT
BRANCH   3   7
ATOM      7  C   UNL     1      47.044   1.029   7.190  0.00  0.00    +0.000 C 
ATOM      8  N   UNL     1      46.679  -0.223   7.600  0.00  0.00    +0.000 N 
ATOM      9  O   UNL     1      47.872   1.151   6.293  0.00  0.00    +0.000 OA
ATOM     10  H   UNL     1      45.963  -0.431   8.277  0.00  0.00    +0.000 HD
ATOM     11  H   UNL     1      47.093  -0.998   7.099  0.00  0.00    +0.000 HD
ENDBRANCH   3   7
BRANCH   1  12
ATOM     12  N   UNL     1      44.135   2.783  10.772  0.00  0.00    +0.000 N 
ATOM     13  H   UNL     1      43.711   1.860  10.701  0.00  0.00    +0.000 HD
BRANCH  12  15
ATOM     14  C   UNL     1      43.299   3.779  12.933  0.00  0.00    +0.000 C 
ATOM     15  C   UNL     1      44.372   3.172  12.080  0.00  0.00    +0.000 C 
ATOM     16  C   UNL     1      45.690   2.864  12.721  0.00  0.00    +0.000 C 
ENDBRANCH  12  15
ENDBRANCH   1  12
BRANCH   6  17
ATOM     17  C   UNL     1      44.670   5.573   9.975  0.00  0.00    +0.000 C 
BRANCH  17  18
ATOM     18  C   UNL     1      45.786   6.413  10.605  0.00  0.00    +0.000 C 
BRANCH  18  19
ATOM     19  N   UNL     1      45.500   6.722  12.017  0.00  0.00    +0.000 N 
ATOM     20  H   UNL     1      44.640   6.287  12.345  0.00  0.00    +0.000 HD
BRANCH  19  21
ATOM     21  C   UNL     1      46.553   6.534  12.936  0.00  0.00    +0.000 A 
ATOM     22  C   UNL     1      47.665   7.380  12.987  0.00  0.00    +0.000 A 
ATOM     23  C   UNL     1      48.656   7.164  13.933  0.00  0.00    +0.000 A 
ATOM     24  N   UNL     1      48.615   6.182  14.850  0.00  0.00    +0.000 NA
ATOM     25  C   UNL     1      47.500   5.401  14.832  0.00  0.00    +0.000 A 
ATOM     26  C   UNL     1      46.451   5.550  13.925  0.00  0.00    +0.000 A 
BRANCH  25  27
ATOM     27  C   UNL     1      47.462   4.311  15.864  0.00  0.00    +0.000 C 
ATOM     28  N   UNL     1      47.205   4.734  17.143  0.00  0.00    +0.000 N 
ATOM     29  O   UNL     1      47.658   3.134  15.595  0.00  0.00    +0.000 OA
ATOM     30  H   UNL     1      47.066   5.724  17.315  0.00  0.00    +0.000 HD
ATOM     31  H   UNL     1      47.181   4.066  17.898  0.00  0.00    +0.000 HD
ENDBRANCH  25  27
ENDBRANCH  19  21
ENDBRANCH  18  19
ENDBRANCH  17  18
ENDBRANCH   6  17
TORSDOF 8
ENDMDL
MODEL 4
REMARK VINA RESULT:    -6.908      2.034      3.231
REMARK INTER + INTRA:         -11.413
REMARK INTER:                 -10.220
REMARK INTRA:                  -1.193
REMARK UNBOUND:                -1.274
REMARK  Name = 
REMARK  10 active torsions:
REMARK  status: ('A' for Active; 'I' for Inactive)
REMARK    1  A    between atoms: C_1  and  C_2
REMARK    2  A    between atoms: C_2  and  N_3
REMARK    3  A    between atoms: C_2  and  C_25
REMARK    4  A    between atoms: N_3  and  C_4
REMARK    5  A    between atoms: C_6  and  C_7
REMARK    6  A    between atoms: C_12  and  C_13
REMARK    7  A    between atoms: C_13  and  C_14
REMARK    8  A    between atoms: C_14  and  N_15
REMARK    9  A    between atoms: N_15  and  C_16
REMARK   10  A    between atoms: C_20  and  C_21
REMARK                            x       y       z     vdW  Elec       q    Type
REMARK                         _______ _______ _______ _____ _____    ______ ____
ROOT
ATOM      1  C   UNL     1      46.747   6.282  13.418  0.00  0.00    +0.000 A 
ATOM      2  C   UNL     1      47.827   6.380  14.314  0.00  0.00    +0.000 A 
ATOM      3  C   UNL     1      48.991   7.101  14.006  0.00  0.00    +0.000 A 
ATOM      4  C   UNL     1      49.105   7.690  12.747  0.00  0.00    +0.000 A 
ATOM      5  C   UNL     1      48.049   7.595  11.835  0.00  0.00    +0.000 A 
ATOM      6  C   UNL     1      46.855   6.923  12.163  0.00  0.00    +0.000 A 
ENDROOT
BRANCH   3   7
ATOM      7  C   UNL     1      50.040   7.202  15.063  0.00  0.00    +0.000 C 
ATOM      8  N   UNL     1      50.738   8.371  15.192  0.00  0.00    +0.000 N 
ATOM      9  O   UNL     1      50.273   6.274  15.831  0.00  0.00    +0.000 OA
ATOM     10  H   UNL     1      50.576   9.211  14.660  0.00  0.00    +0.000 HD
ATOM     11  H   UNL     1      51.395   8.419  15.960  0.00  0.00    +0.000 HD
ENDBRANCH   3   7
BRANCH   1  12
ATOM     12  N   UNL     1      45.579   5.548  13.745  0.00  0.00    +0.000 N 
ATOM     13  H   UNL     1      44.821   6.177  14.000  0.00  0.00    +0.000 HD
BRANCH  12  15
ATOM     14  C   UNL     1      46.073   3.260  12.803  0.00  0.00    +0.000 C 
ATOM     15  C   UNL     1      45.139   4.388  13.129  0.00  0.00    +0.000 C 
ATOM     16  C   UNL     1      43.675   4.179  12.894  0.00  0.00    +0.000 C 
ENDBRANCH  12  15
ENDBRANCH   1  12
BRANCH   6  17
ATOM     17  C   UNL     1      45.723   6.938  11.147  0.00  0.00    +0.000 C 
BRANCH  17  18
ATOM     18  C   UNL     1      46.049   6.108   9.902  0.00  0.00    +0.000 C 
BRANCH  18  19
ATOM     19  N   UNL     1      44.932   5.219   9.535  0.00  0.00    +0.000 N 
ATOM     20  H   UNL     1      44.249   5.677   8.936  0.00  0.00    +0.000 HD
BRANCH  19  21
ATOM     21  C   UNL     1      45.270   3.941   9.045  0.00  0.00    +0.000 A 
ATOM     22  C   UNL     1      44.646   2.774   9.497  0.00  0.00    +0.000 A 
ATOM     23  C   UNL     1      44.998   1.546   8.954  0.00  0.00    +0.000 A 
ATOM     24  N   UNL     1      45.911   1.392   7.980  0.00  0.00    +0.000 NA
ATOM     25  C   UNL     1      46.470   2.539   7.505  0.00  0.00    +0.000 A 
ATOM     26  C   UNL     1      46.170   3.815   7.982  0.00  0.00    +0.000 A 
BRANCH  25  27
ATOM     27  C   UNL     1      47.484   2.355   6.413  0.00  0.00    +0.000 C 
ATOM     28  N   UNL     1      47.355   3.216   5.353  0.00  0.00    +0.000 N 
ATOM     29  O   UNL     1      48.353   1.496   6.452  0.00  0.00    +0.000 OA
ATOM     30  H   UNL     1      46.607   3.901   5.363  0.00  0.00    +0.000 HD
ATOM     31  H   UNL     1      47.987   3.146   4.570  0.00  0.00    +0.000 HD
ENDBRANCH  25  27
ENDBRANCH  19  21
ENDBRANCH  18  19
ENDBRANCH  17  18
ENDBRANCH   6  17
TORSDOF 8
ENDMDL
MODEL 5
REMARK VINA RESULT:    -6.734      2.479      6.918
REMARK INTER + INTRA:         -11.158
REMARK INTER:                 -10.141
REMARK INTRA:                  -1.017
REMARK UNBOUND:                -1.274
REMARK  Name = 
REMARK  10 active torsions:
REMARK  status: ('A' for Active; 'I' for Inactive)
REMARK    1  A    between atoms: C_1  and  C_2
REMARK    2  A    between atoms: C_2  and  N_3
REMARK    3  A    between atoms: C_2  and  C_25
REMARK    4  A    between atoms: N_3  and  C_4
REMARK    5  A    between atoms: C_6  and  C_7
REMARK    6  A    between atoms: C_12  and  C_13
REMARK    7  A    between atoms: C_13  and  C_14
REMARK    8  A    between atoms: C_14  and  N_15
REMARK    9  A    between atoms: N_15  and  C_16
REMARK   10  A    between atoms: C_20  and  C_21
REMARK                            x       y       z     vdW  Elec       q    Type
REMARK                         _______ _______ _______ _____ _____    ______ ____
ROOT
ATOM      1  C   UNL     1      45.008   3.006   9.701  0.00  0.00    +0.000 A 
ATOM      2  C   UNL     1      45.613   1.967   8.972  0.00  0.00    +0.000 A 
ATOM      3  C   UNL     1      46.423   2.212   7.853  0.00  0.00    +0.000 A 
ATOM      4  C   UNL     1      46.587   3.527   7.415  0.00  0.00    +0.000 A 
ATOM      5  C   UNL     1      45.985   4.575   8.118  0.00  0.00    +0.000 A 
ATOM      6  C   UNL     1      45.219   4.337   9.276  0.00  0.00    +0.000 A 
ENDROOT
BRANCH   3   7
ATOM      7  C   UNL     1      47.077   1.038   7.204  0.00  0.00    +0.000 C 
ATOM      8  N   UNL     1      46.772  -0.219   7.649  0.00  0.00    +0.000 N 
ATOM      9  O   UNL     1      47.859   1.172   6.269  0.00  0.00    +0.000 OA
ATOM     10  H   UNL     1      46.095  -0.439   8.360  0.00  0.00    +0.000 HD
ATOM     11  H   UNL     1      47.190  -0.988   7.140  0.00  0.00    +0.000 HD
ENDBRANCH   3   7
BRANCH   1  12
ATOM     12  N   UNL     1      44.190   2.740  10.829  0.00  0.00    +0.000 N 
ATOM     13  H   UNL     1      43.777   1.812  10.760  0.00  0.00    +0.000 HD
BRANCH  12  15
ATOM     14  C   UNL     1      45.812   3.035  12.738  0.00  0.00    +0.000 C 
ATOM     15  C   UNL     1      44.442   3.126  12.135  0.00  0.00    +0.000 C 
ATOM     16  C   UNL     1      43.362   3.781  12.939  0.00  0.00    +0.000 C 
ENDBRANCH  12  15
ENDBRANCH   1  12
BRANCH   6  17
ATOM     17  C   UNL     1      44.670   5.539  10.030  0.00  0.00    +0.000 C 
BRANCH  17  18
ATOM     18  C   UNL     1      45.782   6.416  10.614  0.00  0.00    +0.000 C 
BRANCH  18  19
ATOM     19  N   UNL     1      45.698   6.492  12.083  0.00  0.00    +0.000 N 
ATOM     20  H   UNL     1      45.128   5.747  12.480  0.00  0.00    +0.000 HD
BRANCH  19  21
ATOM     21  C   UNL     1      46.913   6.638  12.784  0.00  0.00    +0.000 A 
ATOM     22  C   UNL     1      47.132   6.056  14.036  0.00  0.00    +0.000 A 
ATOM     23  C   UNL     1      48.359   6.209  14.665  0.00  0.00    +0.000 A 
ATOM     24  N   UNL     1      49.395   6.880  14.132  0.00  0.00    +0.000 NA
ATOM     25  C   UNL     1      49.192   7.392  12.887  0.00  0.00    +0.000 A 
ATOM     26  C   UNL     1      47.997   7.280  12.177  0.00  0.00    +0.000 A 
BRANCH  25  27
ATOM     27  C   UNL     1      50.358   8.135  12.300  0.00  0.00    +0.000 C 
ATOM     28  N   UNL     1      51.546   7.963  12.963  0.00  0.00    +0.000 N 
ATOM     29  O   UNL     1      50.260   8.851  11.313  0.00  0.00    +0.000 OA
ATOM     30  H   UNL     1      51.569   7.370  13.786  0.00  0.00    +0.000 HD
ATOM     31  H   UNL     1      52.374   8.442  12.643  0.00  0.00    +0.000 HD
ENDBRANCH  25  27
ENDBRANCH  19  21
ENDBRANCH  18  19
ENDBRANCH  17  18
ENDBRANCH   6  17
TORSDOF 8
ENDMDL
MODEL 6
REMARK VINA RESULT:    -6.512      2.071      3.738
REMARK INTER + INTRA:         -10.832
REMARK INTER:                  -9.864
REMARK INTRA:                  -0.968
REMARK UNBOUND:                -1.274
REMARK  Name = 
REMARK  10 active torsions:
REMARK  status: ('A' for Active; 'I' for Inactive)
REMARK    1  A    between atoms: C_1  and  C_2
REMARK    2  A    between atoms: C_2  and  N_3
REMARK    3  A    between atoms: C_2  and  C_25
REMARK    4  A    between atoms: N_3  and  C_4
REMARK    5  A    between atoms: C_6  and  C_7
REMARK    6  A    between atoms: C_12  and  C_13
REMARK    7  A    between atoms: C_13  and  C_14
REMARK    8  A    between atoms: C_14  and  N_15
REMARK    9  A    between atoms: N_15  and  C_16
REMARK   10  A    between atoms: C_20  and  C_21
REMARK                            x       y       z     vdW  Elec       q    Type
REMARK                         _______ _______ _______ _____ _____    ______ ____
ROOT
ATOM      1  C   UNL     1      45.259   6.615  12.819  0.00  0.00    +0.000 A 
ATOM      2  C   UNL     1      46.347   7.482  13.030  0.00  0.00    +0.000 A 
ATOM      3  C   UNL     1      46.493   8.684  12.321  0.00  0.00    +0.000 A 
ATOM      4  C   UNL     1      45.559   9.001  11.334  0.00  0.00    +0.000 A 
ATOM      5  C   UNL     1      44.476   8.149  11.100  0.00  0.00    +0.000 A 
ATOM      6  C   UNL     1      44.295   6.971  11.850  0.00  0.00    +0.000 A 
ENDROOT
BRANCH   3   7
ATOM      7  C   UNL     1      47.644   9.563  12.682  0.00  0.00    +0.000 C 
ATOM      8  N   UNL     1      47.436  10.910  12.801  0.00  0.00    +0.000 N 
ATOM      9  O   UNL     1      48.762   9.106  12.895  0.00  0.00    +0.000 OA
ATOM     10  H   UNL     1      46.547  11.374  12.714  0.00  0.00    +0.000 HD
ATOM     11  H   UNL     1      48.229  11.460  13.107  0.00  0.00    +0.000 HD
ENDBRANCH   3   7
BRANCH   1  12
ATOM     12  N   UNL     1      45.129   5.403  13.544  0.00  0.00    +0.000 N 
ATOM     13  H   UNL     1      44.182   5.038  13.464  0.00  0.00    +0.000 HD
BRANCH  12  15
ATOM     14  C   UNL     1      47.060   4.373  14.799  0.00  0.00    +0.000 C 
ATOM     15  C   UNL     1      46.086   4.409  13.658  0.00  0.00    +0.000 C 
ATOM     16  C   UNL     1      46.081   3.256  12.702  0.00  0.00    +0.000 C 
ENDBRANCH  12  15
ENDBRANCH   1  12
BRANCH   6  17
ATOM     17  C   UNL     1      43.045   6.142  11.591  0.00  0.00    +0.000 C 
BRANCH  17  18
ATOM     18  C   UNL     1      43.366   4.803  10.919  0.00  0.00    +0.000 C 
BRANCH  18  19
ATOM     19  N   UNL     1      44.245   4.980   9.750  0.00  0.00    +0.000 N 
ATOM     20  H   UNL     1      44.938   5.712   9.890  0.00  0.00    +0.000 HD
BRANCH  19  21
ATOM     21  C   UNL     1      44.830   3.815   9.211  0.00  0.00    +0.000 A 
ATOM     22  C   UNL     1      44.410   2.530   9.566  0.00  0.00    +0.000 A 
ATOM     23  C   UNL     1      45.002   1.421   8.980  0.00  0.00    +0.000 A 
ATOM     24  N   UNL     1      45.969   1.494   8.049  0.00  0.00    +0.000 NA
ATOM     25  C   UNL     1      46.330   2.749   7.665  0.00  0.00    +0.000 A 
ATOM     26  C   UNL     1      45.783   3.918   8.192  0.00  0.00    +0.000 A 
BRANCH  25  27
ATOM     27  C   UNL     1      47.406   2.817   6.620  0.00  0.00    +0.000 C 
ATOM     28  N   UNL     1      47.083   3.545   5.504  0.00  0.00    +0.000 N 
ATOM     29  O   UNL     1      48.487   2.258   6.743  0.00  0.00    +0.000 OA
ATOM     30  H   UNL     1      46.167   3.976   5.445  0.00  0.00    +0.000 HD
ATOM     31  H   UNL     1      47.745   3.624   4.747  0.00  0.00    +0.000 HD
ENDBRANCH  25  27
ENDBRANCH  19  21
ENDBRANCH  18  19
ENDBRANCH  17  18
ENDBRANCH   6  17
TORSDOF 8
ENDMDL
MODEL 7
REMARK VINA RESULT:    -6.336      3.653      6.190
REMARK INTER + INTRA:         -10.574
REMARK INTER:                  -9.720
REMARK INTRA:                  -0.854
REMARK UNBOUND:                -1.274
REMARK  Name = 
REMARK  10 active torsions:
REMARK  status: ('A' for Active; 'I' for Inactive)
REMARK    1  A    between atoms: C_1  and  C_2
REMARK    2  A    between atoms: C_2  and  N_3
REMARK    3  A    between atoms: C_2  and  C_25
REMARK    4  A    between atoms: N_3  and  C_4
REMARK    5  A    between atoms: C_6  and  C_7
REMARK    6  A    between atoms: C_12  and  C_13
REMARK    7  A    between atoms: C_13  and  C_14
REMARK    8  A    between atoms: C_14  and  N_15
REMARK    9  A    between atoms: N_15  and  C_16
REMARK   10  A    between atoms: C_20  and  C_21
REMARK                            x       y       z     vdW  Elec       q    Type
REMARK                         _______ _______ _______ _____ _____    ______ ____
ROOT
ATOM      1  C   UNL     1      49.530   4.457  17.631  0.00  0.00    +0.000 A 
ATOM      2  C   UNL     1      50.820   4.009  17.969  0.00  0.00    +0.000 A 
ATOM      3  C   UNL     1      51.272   2.720  17.648  0.00  0.00    +0.000 A 
ATOM      4  C   UNL     1      50.393   1.835  17.025  0.00  0.00    +0.000 A 
ATOM      5  C   UNL     1      49.102   2.254  16.689  0.00  0.00    +0.000 A 
ATOM      6  C   UNL     1      48.665   3.566  16.957  0.00  0.00    +0.000 A 
ENDROOT
BRANCH   3   7
ATOM      7  C   UNL     1      52.685   2.380  17.987  0.00  0.00    +0.000 C 
ATOM      8  N   UNL     1      52.960   1.150  18.518  0.00  0.00    +0.000 N 
ATOM      9  O   UNL     1      53.605   3.166  17.781  0.00  0.00    +0.000 OA
ATOM     10  H   UNL     1      52.291   0.412  18.661  0.00  0.00    +0.000 HD
ATOM     11  H   UNL     1      53.938   0.938  18.675  0.00  0.00    +0.000 HD
ENDBRANCH   3   7
BRANCH   1  12
ATOM     12  N   UNL     1      49.090   5.763  17.965  0.00  0.00    +0.000 N 
ATOM     13  H   UNL     1      48.711   6.234  17.146  0.00  0.00    +0.000 HD
BRANCH  12  15
ATOM     14  C   UNL     1      47.827   7.489  19.303  0.00  0.00    +0.000 C 
ATOM     15  C   UNL     1      48.472   6.143  19.145  0.00  0.00    +0.000 C 
ATOM     16  C   UNL     1      48.314   5.153  20.257  0.00  0.00    +0.000 C 
ENDBRANCH  12  15
ENDBRANCH   1  12
BRANCH   6  17
ATOM     17  C   UNL     1      47.276   3.969  16.484  0.00  0.00    +0.000 C 
BRANCH  17  18
ATOM     18  C   UNL     1      47.152   3.941  14.957  0.00  0.00    +0.000 C 
BRANCH  18  19
ATOM     19  N   UNL     1      46.656   5.225  14.431  0.00  0.00    +0.000 N 
ATOM     20  H   UNL     1      47.335   5.977  14.532  0.00  0.00    +0.000 HD
BRANCH  19  21
ATOM     21  C   UNL     1      46.098   5.209  13.136  0.00  0.00    +0.000 A 
ATOM     22  C   UNL     1      46.305   6.241  12.216  0.00  0.00    +0.000 A 
ATOM     23  C   UNL     1      45.755   6.156  10.945  0.00  0.00    +0.000 A 
ATOM     24  N   UNL     1      45.030   5.111  10.511  0.00  0.00    +0.000 NA
ATOM     25  C   UNL     1      44.884   4.084  11.393  0.00  0.00    +0.000 A 
ATOM     26  C   UNL     1      45.409   4.078  12.685  0.00  0.00    +0.000 A 
BRANCH  25  27
ATOM     27  C   UNL     1      44.078   2.919  10.895  0.00  0.00    +0.000 C 
ATOM     28  N   UNL     1      44.624   2.251   9.830  0.00  0.00    +0.000 N 
ATOM     29  O   UNL     1      43.007   2.594  11.389  0.00  0.00    +0.000 OA
ATOM     30  H   UNL     1      45.507   2.572   9.448  0.00  0.00    +0.000 HD
ATOM     31  H   UNL     1      44.135   1.467   9.425  0.00  0.00    +0.000 HD
ENDBRANCH  25  27
ENDBRANCH  19  21
ENDBRANCH  18  19
ENDBRANCH  17  18
ENDBRANCH   6  17
TORSDOF 8
ENDMDL
MODEL 8
REMARK VINA RESULT:    -6.240      2.106      3.101
REMARK INTER + INTRA:         -10.432
REMARK INTER:                  -9.124
REMARK INTRA:                  -1.308
REMARK UNBOUND:                -1.274
REMARK  Name = 
REMARK  10 active torsions:
REMARK  status: ('A' for Active; 'I' for Inactive)
REMARK    1  A    between atoms: C_1  and  C_2
REMARK    2  A    between atoms: C_2  and  N_3
REMARK    3  A    between atoms: C_2  and  C_25
REMARK    4  A    between atoms: N_3  and  C_4
REMARK    5  A    between atoms: C_6  and  C_7
REMARK    6  A    between atoms: C_12  and  C_13
REMARK    7  A    between atoms: C_13  and  C_14
REMARK    8  A    between atoms: C_14  and  N_15
REMARK    9  A    between atoms: N_15  and  C_16
REMARK   10  A    between atoms: C_20  and  C_21
REMARK                            x       y       z     vdW  Elec       q    Type
REMARK                         _______ _______ _______ _____ _____    ______ ____
ROOT
ATOM      1  C   UNL     1      48.225   6.537  14.422  0.00  0.00    +0.000 A 
ATOM      2  C   UNL     1      48.507   5.826  15.602  0.00  0.00    +0.000 A 
ATOM      3  C   UNL     1      47.871   4.615  15.916  0.00  0.00    +0.000 A 
ATOM      4  C   UNL     1      46.884   4.131  15.057  0.00  0.00    +0.000 A 
ATOM      5  C   UNL     1      46.578   4.828  13.883  0.00  0.00    +0.000 A 
ATOM      6  C   UNL     1      47.257   6.013  13.536  0.00  0.00    +0.000 A 
ENDROOT
BRANCH   3   7
ATOM      7  C   UNL     1      48.305   3.908  17.156  0.00  0.00    +0.000 C 
ATOM      8  N   UNL     1      47.506   3.964  18.264  0.00  0.00    +0.000 N 
ATOM      9  O   UNL     1      49.347   3.261  17.198  0.00  0.00    +0.000 OA
ATOM     10  H   UNL     1      46.603   4.408  18.312  0.00  0.00    +0.000 HD
ATOM     11  H   UNL     1      47.807   3.420  19.063  0.00  0.00    +0.000 HD
ENDBRANCH   3   7
BRANCH   1  12
ATOM     12  N   UNL     1      48.877   7.760  14.123  0.00  0.00    +0.000 N 
ATOM     13  H   UNL     1      49.291   7.727  13.194  0.00  0.00    +0.000 HD
BRANCH  12  15
ATOM     14  C   UNL     1      48.305   9.440  15.916  0.00  0.00    +0.000 C 
ATOM     15  C   UNL     1      48.448   9.028  14.481  0.00  0.00    +0.000 C 
ATOM     16  C   UNL     1      48.245  10.071  13.426  0.00  0.00    +0.000 C 
ENDBRANCH  12  15
ENDBRANCH   1  12
BRANCH   6  17
ATOM     17  C   UNL     1      46.925   6.663  12.202  0.00  0.00    +0.000 C 
BRANCH  17  18
ATOM     18  C   UNL     1      45.515   7.264  12.184  0.00  0.00    +0.000 C 
BRANCH  18  19
ATOM     19  N   UNL     1      44.763   6.844  10.988  0.00  0.00    +0.000 N 
ATOM     20  H   UNL     1      45.163   7.212  10.127  0.00  0.00    +0.000 HD
BRANCH  19  21
ATOM     21  C   UNL     1      44.466   5.471  10.872  0.00  0.00    +0.000 A 
ATOM     22  C   UNL     1      43.535   4.831  11.695  0.00  0.00    +0.000 A 
ATOM     23  C   UNL     1      43.261   3.483  11.513  0.00  0.00    +0.000 A 
ATOM     24  N   UNL     1      43.829   2.726  10.559  0.00  0.00    +0.000 NA
ATOM     25  C   UNL     1      44.690   3.371   9.724  0.00  0.00    +0.000 A 
ATOM     26  C   UNL     1      45.017   4.723   9.826  0.00  0.00    +0.000 A 
BRANCH  25  27
ATOM     27  C   UNL     1      45.314   2.516   8.659  0.00  0.00    +0.000 C 
ATOM     28  N   UNL     1      45.584   3.165   7.481  0.00  0.00    +0.000 N 
ATOM     29  O   UNL     1      45.553   1.327   8.818  0.00  0.00    +0.000 OA
ATOM     30  H   UNL     1      45.351   4.148   7.396  0.00  0.00    +0.000 HD
ATOM     31  H   UNL     1      45.987   2.656   6.709  0.00  0.00    +0.000 HD
ENDBRANCH  25  27
ENDBRANCH  19  21
ENDBRANCH  18  19
ENDBRANCH  17  18
ENDBRANCH   6  17
TORSDOF 8
ENDMDL
MODEL 9
REMARK VINA RESULT:    -6.108      4.290      7.432
REMARK INTER + INTRA:         -10.238
REMARK INTER:                  -9.046
REMARK INTRA:                  -1.192
REMARK UNBOUND:                -1.274
REMARK  Name = 
REMARK  10 active torsions:
REMARK  status: ('A' for Active; 'I' for Inactive)
REMARK    1  A    between atoms: C_1  and  C_2
REMARK    2  A    between atoms: C_2  and  N_3
REMARK    3  A    between atoms: C_2  and  C_25
REMARK    4  A    between atoms: N_3  and  C_4
REMARK    5  A    between atoms: C_6  and  C_7
REMARK    6  A    between atoms: C_12  and  C_13
REMARK    7  A    between atoms: C_13  and  C_14
REMARK    8  A    between atoms: C_14  and  N_15
REMARK    9  A    between atoms: N_15  and  C_16
REMARK   10  A    between atoms: C_20  and  C_21
REMARK                            x       y       z     vdW  Elec       q    Type
REMARK                         _______ _______ _______ _____ _____    ______ ____
ROOT
ATOM      1  C   UNL     1      45.602   7.697  12.842  0.00  0.00    +0.000 A 
ATOM      2  C   UNL     1      44.595   6.717  12.899  0.00  0.00    +0.000 A 
ATOM      3  C   UNL     1      44.882   5.345  12.846  0.00  0.00    +0.000 A 
ATOM      4  C   UNL     1      46.207   4.941  12.672  0.00  0.00    +0.000 A 
ATOM      5  C   UNL     1      47.224   5.898  12.602  0.00  0.00    +0.000 A 
ATOM      6  C   UNL     1      46.944   7.274  12.714  0.00  0.00    +0.000 A 
ENDROOT
BRANCH   3   7
ATOM      7  C   UNL     1      43.741   4.393  12.992  0.00  0.00    +0.000 C 
ATOM      8  N   UNL     1      43.969   3.056  12.820  0.00  0.00    +0.000 N 
ATOM      9  O   UNL     1      42.614   4.779  13.286  0.00  0.00    +0.000 OA
ATOM     10  H   UNL     1      44.866   2.633  12.646  0.00  0.00    +0.000 HD
ATOM     11  H   UNL     1      43.182   2.442  12.989  0.00  0.00    +0.000 HD
ENDBRANCH   3   7
BRANCH   1  12
ATOM     12  N   UNL     1      45.292   9.079  12.896  0.00  0.00    +0.000 N 
ATOM     13  H   UNL     1      45.826   9.538  13.632  0.00  0.00    +0.000 HD
BRANCH  12  15
ATOM     14  C   UNL     1      43.847   9.706  10.925  0.00  0.00    +0.000 C 
ATOM     15  C   UNL     1      45.039   9.906  11.814  0.00  0.00    +0.000 C 
ATOM     16  C   UNL     1      45.890  11.117  11.586  0.00  0.00    +0.000 C 
ENDBRANCH  12  15
ENDBRANCH   1  12
BRANCH   6  17
ATOM     17  C   UNL     1      48.116   8.244  12.713  0.00  0.00    +0.000 C 
BRANCH  17  18
ATOM     18  C   UNL     1      49.023   8.061  13.933  0.00  0.00    +0.000 C 
BRANCH  18  19
ATOM     19  N   UNL     1      48.258   7.642  15.120  0.00  0.00    +0.000 N 
ATOM     20  H   UNL     1      47.282   7.446  14.906  0.00  0.00    +0.000 HD
BRANCH  19  21
ATOM     21  C   UNL     1      48.823   6.626  15.918  0.00  0.00    +0.000 A 
ATOM     22  C   UNL     1      50.171   6.625  16.289  0.00  0.00    +0.000 A 
ATOM     23  C   UNL     1      50.664   5.614  17.101  0.00  0.00    +0.000 A 
ATOM     24  N   UNL     1      49.913   4.613  17.591  0.00  0.00    +0.000 NA
ATOM     25  C   UNL     1      48.589   4.656  17.274  0.00  0.00    +0.000 A 
ATOM     26  C   UNL     1      48.005   5.637  16.473  0.00  0.00    +0.000 A 
BRANCH  25  27
ATOM     27  C   UNL     1      47.759   3.536  17.832  0.00  0.00    +0.000 C 
ATOM     28  N   UNL     1      48.272   2.940  18.955  0.00  0.00    +0.000 N 
ATOM     29  O   UNL     1      46.709   3.169  17.321  0.00  0.00    +0.000 OA
ATOM     30  H   UNL     1      49.154   3.272  19.330  0.00  0.00    +0.000 HD
ATOM     31  H   UNL     1      47.783   2.167  19.381  0.00  0.00    +0.000 HD
ENDBRANCH  25  27
ENDBRANCH  19  21
ENDBRANCH  18  19
ENDBRANCH  17  18
ENDBRANCH   6  17
TORSDOF 8
ENDMDL
