MODEL 1
REMARK VINA RESULT:    -8.703      0.000      0.000
REMARK INTER + INTRA:         -12.089
REMARK INTER:                 -11.247
REMARK INTRA:                  -0.842
REMARK UNBOUND:                -0.842
REMARK  Name = 
REMARK  5 active torsions:
REMARK  status: ('A' for Active; 'I' for Inactive)
REMARK    1  A    between atoms: C_2  and  C_4
REMARK    2  A    between atoms: N_8  and  C_9
REMARK    3  A    between atoms: C_9  and  C_10
REMARK    4  A    between atoms: C_10  and  C_11
REMARK    5  A    between atoms: C_15  and  C_16
REMARK                            x       y       z     vdW  Elec       q    Type
REMARK                         _______ _______ _______ _____ _____    ______ ____
ROOT
ATOM      1  C   UNL     1      43.206   4.787  10.783  0.00  0.00    +0.000 C 
ENDROOT
BRANCH   1   6
ATOM      2  C   UNL     1      46.512   2.417   7.704  0.00  0.00    +0.000 A 
ATOM      3  C   UNL     1      45.698   1.944   8.724  0.00  0.00    +0.000 A 
ATOM      4  C   UNL     1      44.903   2.847   9.426  0.00  0.00    +0.000 A 
ATOM      5  C   UNL     1      44.935   4.204   9.108  0.00  0.00    +0.000 A 
ATOM      6  N   UNL     1      44.153   5.134   9.747  0.00  0.00    +0.000 N 
ATOM      7  N   UNL     1      45.746   4.675   8.139  0.00  0.00    +0.000 NA
ATOM      8  C   UNL     1      46.522   3.781   7.464  0.00  0.00    +0.000 A 
ATOM      9  H   UNL     1      44.287   6.086   9.430  0.00  0.00    +0.000 HD
BRANCH   2  11
ATOM     10  N   UNL     1      48.426   2.076   6.257  0.00  0.00    +0.000 N 
ATOM     11  C   UNL     1      47.355   1.514   6.893  0.00  0.00    +0.000 C 
ATOM     12  O   UNL     1      47.124   0.315   6.821  0.00  0.00    +0.000 OA
ATOM     13  H   UNL     1      49.055   1.445   5.776  0.00  0.00    +0.000 HD
ATOM     14  H   UNL     1      48.778   2.995   6.490  0.00  0.00    +0.000 HD
ENDBRANCH   2  11
ENDBRANCH   1   6
BRANCH   1  15
ATOM     15  C   UNL     1      43.479   5.520  12.096  0.00  0.00    +0.000 C 
BRANCH  15  16
ATOM     16  C   UNL     1      44.865   5.190  12.588  0.00  0.00    +0.000 A 
ATOM     17  C   UNL     1      45.137   3.969  13.187  0.00  0.00    +0.000 A 
ATOM     18  N   UNL     1      46.332   3.644  13.719  0.00  0.00    +0.000 NA
ATOM     19  C   UNL     1      47.307   4.584  13.649  0.00  0.00    +0.000 A 
ATOM     20  C   UNL     1      47.173   5.848  13.067  0.00  0.00    +0.000 A 
ATOM     21  C   UNL     1      45.906   6.131  12.533  0.00  0.00    +0.000 A 
BRANCH  20  22
ATOM     22  C   UNL     1      48.288   6.816  13.028  0.00  0.00    +0.000 A 
ATOM     23  C   UNL     1      48.653   7.499  11.857  0.00  0.00    +0.000 A 
ATOM     24  C   UNL     1      49.714   8.406  11.858  0.00  0.00    +0.000 A 
ATOM     25  C   UNL     1      50.391   8.624  13.043  0.00  0.00    +0.000 A 
ATOM     26  N   UNL     1      50.085   8.001  14.197  0.00  0.00    +0.000 NA
ATOM     27  C   UNL     1      49.056   7.117  14.158  0.00  0.00    +0.000 A 
ENDBRANCH  20  22
ENDBRANCH  15  16
ENDBRANCH   1  15
TORSDOF 5
ENDMDL
MODEL 2
REMARK VINA RESULT:    -8.031      2.969      7.150
REMARK INTER + INTRA:         -11.220
REMARK INTER:                 -10.532
REMARK INTRA:                  -0.688
REMARK UNBOUND:                -0.842
REMARK  Name = 
REMARK  5 active torsions:
REMARK  status: ('A' for Active; 'I' for Inactive)
REMARK    1  A    between atoms: C_2  and  C_4
REMARK    2  A    between atoms: N_8  and  C_9
REMARK    3  A    between atoms: C_9  and  C_10
REMARK    4  A    between atoms: C_10  and  C_11
REMARK    5  A    between atoms: C_15  and  C_16
REMARK                            x       y       z     vdW  Elec       q    Type
REMARK                         _______ _______ _______ _____ _____    ______ ____
ROOT
ATOM      1  C   UNL     1      47.436   7.186  11.744  0.00  0.00    +0.000 C 
ENDROOT
BRANCH   1   6
ATOM      2  C   UNL     1      47.617   4.328  15.966  0.00  0.00    +0.000 A 
ATOM      3  C   UNL     1      46.950   4.155  14.761  0.00  0.00    +0.000 A 
ATOM      4  C   UNL     1      47.067   5.135  13.779  0.00  0.00    +0.000 A 
ATOM      5  C   UNL     1      47.837   6.273  14.012  0.00  0.00    +0.000 A 
ATOM      6  N   UNL     1      48.010   7.257  13.070  0.00  0.00    +0.000 N 
ATOM      7  N   UNL     1      48.463   6.463  15.190  0.00  0.00    +0.000 NA
ATOM      8  C   UNL     1      48.336   5.499  16.144  0.00  0.00    +0.000 A 
ATOM      9  H   UNL     1      48.580   8.036  13.374  0.00  0.00    +0.000 HD
BRANCH   2  11
ATOM     10  N   UNL     1      48.769   2.879  17.531  0.00  0.00    +0.000 N 
ATOM     11  C   UNL     1      47.569   3.315  17.041  0.00  0.00    +0.000 C 
ATOM     12  O   UNL     1      46.507   2.910  17.492  0.00  0.00    +0.000 OA
ATOM     13  H   UNL     1      48.737   2.254  18.327  0.00  0.00    +0.000 HD
ATOM     14  H   UNL     1      49.638   3.364  17.354  0.00  0.00    +0.000 HD
ENDBRANCH   2  11
ENDBRANCH   1   6
BRANCH   1  15
ATOM     15  C   UNL     1      45.946   7.531  11.733  0.00  0.00    +0.000 C 
BRANCH  15  16
ATOM     16  C   UNL     1      45.166   6.407  11.099  0.00  0.00    +0.000 A 
ATOM     17  C   UNL     1      43.837   6.186  11.433  0.00  0.00    +0.000 A 
ATOM     18  N   UNL     1      43.109   5.153  10.964  0.00  0.00    +0.000 NA
ATOM     19  C   UNL     1      43.735   4.297  10.120  0.00  0.00    +0.000 A 
ATOM     20  C   UNL     1      45.062   4.406   9.695  0.00  0.00    +0.000 A 
ATOM     21  C   UNL     1      45.772   5.499  10.218  0.00  0.00    +0.000 A 
BRANCH  20  22
ATOM     22  C   UNL     1      45.672   3.431   8.767  0.00  0.00    +0.000 A 
ATOM     23  C   UNL     1      46.362   3.821   7.609  0.00  0.00    +0.000 A 
ATOM     24  C   UNL     1      46.924   2.871   6.756  0.00  0.00    +0.000 A 
ATOM     25  C   UNL     1      46.794   1.534   7.083  0.00  0.00    +0.000 A 
ATOM     26  N   UNL     1      46.146   1.101   8.180  0.00  0.00    +0.000 NA
ATOM     27  C   UNL     1      45.602   2.050   8.983  0.00  0.00    +0.000 A 
ENDBRANCH  20  22
ENDBRANCH  15  16
ENDBRANCH   1  15
TORSDOF 5
ENDMDL
MODEL 3
REMARK VINA RESULT:    -7.798      3.913      8.097
REMARK INTER + INTRA:         -10.919
REMARK INTER:                 -10.371
REMARK INTRA:                  -0.547
REMARK UNBOUND:                -0.842
REMARK  Name = 
REMARK  5 active torsions:
REMARK  status: ('A' for Active; 'I' for Inactive)
REMARK    1  A    between atoms: C_2  and  C_4
REMARK    2  A    between atoms: N_8  and  C_9
REMARK    3  A    between atoms: C_9  and  C_10
REMARK    4  A    between atoms: C_10  and  C_11
REMARK    5  A    between atoms: C_15  and  C_16
REMARK                            x       y       z     vdW  Elec       q    Type
REMARK                         _______ _______ _______ _____ _____    ______ ____
ROOT
ATOM      1  C   UNL     1      46.339   5.394  13.502  0.00  0.00    +0.000 C 
ENDROOT
BRANCH   1   6
ATOM      2  C   UNL     1      48.614   4.366  17.952  0.00  0.00    +0.000 A 
ATOM      3  C   UNL     1      48.665   5.479  17.123  0.00  0.00    +0.000 A 
ATOM      4  C   UNL     1      47.945   5.466  15.931  0.00  0.00    +0.000 A 
ATOM      5  C   UNL     1      47.192   4.347  15.579  0.00  0.00    +0.000 A 
ATOM      6  N   UNL     1      46.441   4.290  14.431  0.00  0.00    +0.000 N 
ATOM      7  N   UNL     1      47.160   3.252  16.364  0.00  0.00    +0.000 NA
ATOM      8  C   UNL     1      47.874   3.275  17.524  0.00  0.00    +0.000 A 
ATOM      9  H   UNL     1      45.955   3.414  14.288  0.00  0.00    +0.000 HD
BRANCH   2  11
ATOM     10  N   UNL     1      48.596   3.919  20.334  0.00  0.00    +0.000 N 
ATOM     11  C   UNL     1      49.322   4.322  19.248  0.00  0.00    +0.000 C 
ATOM     12  O   UNL     1      50.510   4.600  19.338  0.00  0.00    +0.000 OA
ATOM     13  H   UNL     1      49.101   3.802  21.203  0.00  0.00    +0.000 HD
ATOM     14  H   UNL     1      47.700   3.458  20.250  0.00  0.00    +0.000 HD
ENDBRANCH   2  11
ENDBRANCH   1   6
BRANCH   1  15
ATOM     15  C   UNL     1      44.907   5.623  13.020  0.00  0.00    +0.000 C 
BRANCH  15  16
ATOM     16  C   UNL     1      44.506   4.525  12.067  0.00  0.00    +0.000 A 
ATOM     17  C   UNL     1      43.482   3.645  12.385  0.00  0.00    +0.000 A 
ATOM     18  N   UNL     1      43.130   2.596  11.615  0.00  0.00    +0.000 NA
ATOM     19  C   UNL     1      43.832   2.415  10.470  0.00  0.00    +0.000 A 
ATOM     20  C   UNL     1      44.878   3.229  10.025  0.00  0.00    +0.000 A 
ATOM     21  C   UNL     1      45.203   4.303  10.869  0.00  0.00    +0.000 A 
BRANCH  20  22
ATOM     22  C   UNL     1      45.593   2.967   8.759  0.00  0.00    +0.000 A 
ATOM     23  C   UNL     1      46.056   1.690   8.404  0.00  0.00    +0.000 A 
ATOM     24  C   UNL     1      46.730   1.482   7.201  0.00  0.00    +0.000 A 
ATOM     25  C   UNL     1      46.923   2.562   6.359  0.00  0.00    +0.000 A 
ATOM     26  N   UNL     1      46.501   3.808   6.646  0.00  0.00    +0.000 NA
ATOM     27  C   UNL     1      45.859   3.978   7.829  0.00  0.00    +0.000 A 
ENDBRANCH  20  22
ENDBRANCH  15  16
ENDBRANCH   1  15
TORSDOF 5
ENDMDL
MODEL 4
REMARK VINA RESULT:    -7.654      3.011      6.688
REMARK INTER + INTRA:         -10.733
REMARK INTER:                  -9.954
REMARK INTRA:                  -0.779
REMARK UNBOUND:                -0.842
REMARK  Name = 
REMARK  5 active torsions:
REMARK  status: ('A' for Active; 'I' for Inactive)
REMARK    1  A    between atoms: C_2  and  C_4
REMARK    2  A    between atoms: N_8  and  C_9
REMARK    3  A    between atoms: C_9  and  C_10
REMARK    4  A    between atoms: C_10  and  C_11
REMARK    5  A    between atoms: C_15  and  C_16
REMARK                            x       y       z     vdW  Elec       q    Type
REMARK                         _______ _______ _______ _____ _____    ______ ____
ROOT
ATOM      1  C   UNL     1      44.444   6.476  12.580  0.00  0.00    +0.000 C 
ENDROOT
BRANCH   1   6
ATOM      2  C   UNL     1      49.210   8.176  11.927  0.00  0.00    +0.000 A 
ATOM      3  C   UNL     1      48.692   6.891  12.024  0.00  0.00    +0.000 A 
ATOM      4  C   UNL     1      47.325   6.729  12.233  0.00  0.00    +0.000 A 
ATOM      5  C   UNL     1      46.496   7.844  12.350  0.00  0.00    +0.000 A 
ATOM      6  N   UNL     1      45.138   7.743  12.529  0.00  0.00    +0.000 N 
ATOM      7  N   UNL     1      46.995   9.094  12.288  0.00  0.00    +0.000 NA
ATOM      8  C   UNL     1      48.336   9.239  12.088  0.00  0.00    +0.000 A 
ATOM      9  H   UNL     1      44.658   8.630  12.615  0.00  0.00    +0.000 HD
BRANCH   2  11
ATOM     10  N   UNL     1      51.346   7.417  11.069  0.00  0.00    +0.000 N 
ATOM     11  C   UNL     1      50.643   8.425  11.670  0.00  0.00    +0.000 C 
ATOM     12  O   UNL     1      51.168   9.493  11.952  0.00  0.00    +0.000 OA
ATOM     13  H   UNL     1      52.303   7.619  10.810  0.00  0.00    +0.000 HD
ATOM     14  H   UNL     1      50.895   6.637  10.611  0.00  0.00    +0.000 HD
ENDBRANCH   2  11
ENDBRANCH   1   6
BRANCH   1  15
ATOM     15  C   UNL     1      43.585   6.228  11.340  0.00  0.00    +0.000 C 
BRANCH  15  16
ATOM     16  C   UNL     1      43.748   4.800  10.882  0.00  0.00    +0.000 A 
ATOM     17  C   UNL     1      43.131   3.760  11.562  0.00  0.00    +0.000 A 
ATOM     18  N   UNL     1      43.301   2.459  11.253  0.00  0.00    +0.000 NA
ATOM     19  C   UNL     1      44.125   2.180  10.213  0.00  0.00    +0.000 A 
ATOM     20  C   UNL     1      44.800   3.128   9.439  0.00  0.00    +0.000 A 
ATOM     21  C   UNL     1      44.588   4.466   9.809  0.00  0.00    +0.000 A 
BRANCH  20  22
ATOM     22  C   UNL     1      45.680   2.742   8.316  0.00  0.00    +0.000 A 
ATOM     23  C   UNL     1      46.011   3.628   7.279  0.00  0.00    +0.000 A 
ATOM     24  C   UNL     1      46.844   3.227   6.234  0.00  0.00    +0.000 A 
ATOM     25  C   UNL     1      47.345   1.938   6.249  0.00  0.00    +0.000 A 
ATOM     26  N   UNL     1      47.064   1.047   7.218  0.00  0.00    +0.000 NA
ATOM     27  C   UNL     1      46.241   1.465   8.212  0.00  0.00    +0.000 A 
ENDBRANCH  20  22
ENDBRANCH  15  16
ENDBRANCH   1  15
TORSDOF 5
ENDMDL
MODEL 5
REMARK VINA RESULT:    -6.721      2.822      7.031
REMARK INTER + INTRA:          -9.528
REMARK INTER:                  -8.941
REMARK INTRA:                  -0.587
REMARK UNBOUND:                -0.842
REMARK  Name = 
REMARK  5 active torsions:
REMARK  status: ('A' for Active; 'I' for Inactive)
REMARK    1  A    between atoms: C_2  and  C_4
REMARK    2  A    between atoms: N_8  and  C_9
REMARK    3  A    between atoms: C_9  and  C_10
REMARK    4  A    between atoms: C_10  and  C_11
REMARK    5  A    between atoms: C_15  and  C_16
REMARK                            x       y       z     vdW  Elec       q    Type
REMARK                         _______ _______ _______ _____ _____    ______ ____
ROOT
ATOM      1  C   UNL     1      45.961   6.067  12.997  0.00  0.00    +0.000 C 
ENDROOT
BRANCH   1   6
ATOM      2  C   UNL     1      50.612   8.113  12.543  0.00  0.00    +0.000 A 
ATOM      3  C   UNL     1      49.673   7.734  11.594  0.00  0.00    +0.000 A 
ATOM      4  C   UNL     1      48.476   7.165  12.020  0.00  0.00    +0.000 A 
ATOM      5  C   UNL     1      48.233   6.976  13.380  0.00  0.00    +0.000 A 
ATOM      6  N   UNL     1      47.060   6.447  13.857  0.00  0.00    +0.000 N 
ATOM      7  N   UNL     1      49.152   7.315  14.306  0.00  0.00    +0.000 NA
ATOM      8  C   UNL     1      50.322   7.865  13.875  0.00  0.00    +0.000 A 
ATOM      9  H   UNL     1      47.021   6.349  14.864  0.00  0.00    +0.000 HD
BRANCH   2  11
ATOM     10  N   UNL     1      53.032   8.190  12.662  0.00  0.00    +0.000 N 
ATOM     11  C   UNL     1      51.889   8.756  12.168  0.00  0.00    +0.000 C 
ATOM     12  O   UNL     1      51.924   9.726  11.425  0.00  0.00    +0.000 OA
ATOM     13  H   UNL     1      53.910   8.573  12.334  0.00  0.00    +0.000 HD
ATOM     14  H   UNL     1      53.051   7.264  13.068  0.00  0.00    +0.000 HD
ENDBRANCH   2  11
ENDBRANCH   1   6
BRANCH   1  15
ATOM     15  C   UNL     1      45.160   4.890  13.556  0.00  0.00    +0.000 C 
BRANCH  15  16
ATOM     16  C   UNL     1      44.651   4.035  12.423  0.00  0.00    +0.000 A 
ATOM     17  C   UNL     1      43.524   3.240  12.582  0.00  0.00    +0.000 A 
ATOM     18  N   UNL     1      43.065   2.394  11.638  0.00  0.00    +0.000 NA
ATOM     19  C   UNL     1      43.762   2.337  10.477  0.00  0.00    +0.000 A 
ATOM     20  C   UNL     1      44.905   3.086  10.182  0.00  0.00    +0.000 A 
ATOM     21  C   UNL     1      45.339   3.947  11.203  0.00  0.00    +0.000 A 
BRANCH  20  22
ATOM     22  C   UNL     1      45.608   2.970   8.888  0.00  0.00    +0.000 A 
ATOM     23  C   UNL     1      46.115   1.751   8.412  0.00  0.00    +0.000 A 
ATOM     24  C   UNL     1      46.776   1.680   7.185  0.00  0.00    +0.000 A 
ATOM     25  C   UNL     1      46.911   2.839   6.443  0.00  0.00    +0.000 A 
ATOM     26  N   UNL     1      46.444   4.035   6.847  0.00  0.00    +0.000 NA
ATOM     27  C   UNL     1      45.817   4.070   8.050  0.00  0.00    +0.000 A 
ENDBRANCH  20  22
ENDBRANCH  15  16
ENDBRANCH   1  15
TORSDOF 5
ENDMDL
MODEL 6
REMARK VINA RESULT:    -6.391      3.682      7.584
REMARK INTER + INTRA:          -9.101
REMARK INTER:                  -7.996
REMARK INTRA:                  -1.106
REMARK UNBOUND:                -0.842
REMARK  Name = 
REMARK  5 active torsions:
REMARK  status: ('A' for Active; 'I' for Inactive)
REMARK    1  A    between atoms: C_2  and  C_4
REMARK    2  A    between atoms: N_8  and  C_9
REMARK    3  A    between atoms: C_9  and  C_10
REMARK    4  A    between atoms: C_10  and  C_11
REMARK    5  A    between atoms: C_15  and  C_16
REMARK                            x       y       z     vdW  Elec       q    Type
REMARK                         _______ _______ _______ _____ _____    ______ ____
ROOT
ATOM      1  C   UNL     1      48.890   7.825  12.870  0.00  0.00    +0.000 C 
ENDROOT
BRANCH   1   6
ATOM      2  C   UNL     1      47.834   4.566  16.651  0.00  0.00    +0.000 A 
ATOM      3  C   UNL     1      47.303   4.705  15.375  0.00  0.00    +0.000 A 
ATOM      4  C   UNL     1      47.778   5.725  14.555  0.00  0.00    +0.000 A 
ATOM      5  C   UNL     1      48.766   6.594  15.016  0.00  0.00    +0.000 A 
ATOM      6  N   UNL     1      49.291   7.598  14.241  0.00  0.00    +0.000 N 
ATOM      7  N   UNL     1      49.264   6.484  16.264  0.00  0.00    +0.000 NA
ATOM      8  C   UNL     1      48.787   5.485  17.058  0.00  0.00    +0.000 A 
ATOM      9  H   UNL     1      49.989   8.166  14.704  0.00  0.00    +0.000 HD
BRANCH   2  11
ATOM     10  N   UNL     1      48.219   3.221  18.630  0.00  0.00    +0.000 N 
ATOM     11  C   UNL     1      47.405   3.486  17.564  0.00  0.00    +0.000 C 
ATOM     12  O   UNL     1      46.356   2.881  17.392  0.00  0.00    +0.000 OA
ATOM     13  H   UNL     1      47.883   2.545  19.304  0.00  0.00    +0.000 HD
ATOM     14  H   UNL     1      48.949   3.853  18.929  0.00  0.00    +0.000 HD
ENDBRANCH   2  11
ENDBRANCH   1   6
BRANCH   1  15
ATOM     15  C   UNL     1      48.057   9.097  12.707  0.00  0.00    +0.000 C 
BRANCH  15  16
ATOM     16  C   UNL     1      46.685   8.748  12.188  0.00  0.00    +0.000 A 
ATOM     17  C   UNL     1      45.811   9.738  11.763  0.00  0.00    +0.000 A 
ATOM     18  N   UNL     1      44.545   9.500  11.365  0.00  0.00    +0.000 NA
ATOM     19  C   UNL     1      44.130   8.210  11.389  0.00  0.00    +0.000 A 
ATOM     20  C   UNL     1      44.906   7.116  11.784  0.00  0.00    +0.000 A 
ATOM     21  C   UNL     1      46.214   7.426  12.192  0.00  0.00    +0.000 A 
BRANCH  20  22
ATOM     22  C   UNL     1      44.380   5.736  11.779  0.00  0.00    +0.000 A 
ATOM     23  C   UNL     1      44.300   4.955  12.942  0.00  0.00    +0.000 A 
ATOM     24  C   UNL     1      43.799   3.654  12.898  0.00  0.00    +0.000 A 
ATOM     25  C   UNL     1      43.373   3.154  11.681  0.00  0.00    +0.000 A 
ATOM     26  N   UNL     1      43.424   3.856  10.534  0.00  0.00    +0.000 NA
ATOM     27  C   UNL     1      43.927   5.114  10.610  0.00  0.00    +0.000 A 
ENDBRANCH  20  22
ENDBRANCH  15  16
ENDBRANCH   1  15
TORSDOF 5
ENDMDL
MODEL 7
REMARK VINA RESULT:    -6.387      3.085      5.311
REMARK INTER + INTRA:          -9.095
REMARK INTER:                  -8.424
REMARK INTRA:                  -0.671
REMARK UNBOUND:                -0.842
REMARK  Name = 
REMARK  5 active torsions:
REMARK  status: ('A' for Active; 'I' for Inactive)
REMARK    1  A    between atoms: C_2  and  C_4
REMARK    2  A    between atoms: N_8  and  C_9
REMARK    3  A    between atoms: C_9  and  C_10
REMARK    4  A    between atoms: C_10  and  C_11
REMARK    5  A    between atoms: C_15  and  C_16
REMARK                            x       y       z     vdW  Elec       q    Type
REMARK                         _______ _______ _______ _____ _____    ______ ____
ROOT
ATOM      1  C   UNL     1      46.450   8.784  12.428  0.00  0.00    +0.000 C 
ENDROOT
BRANCH   1   6
ATOM      2  C   UNL     1      44.336   4.235  11.493  0.00  0.00    +0.000 A 
ATOM      3  C   UNL     1      45.149   5.053  10.720  0.00  0.00    +0.000 A 
ATOM      4  C   UNL     1      45.560   6.278  11.238  0.00  0.00    +0.000 A 
ATOM      5  C   UNL     1      45.152   6.675  12.510  0.00  0.00    +0.000 A 
ATOM      6  N   UNL     1      45.549   7.859  13.081  0.00  0.00    +0.000 N 
ATOM      7  N   UNL     1      44.338   5.901  13.255  0.00  0.00    +0.000 NA
ATOM      8  C   UNL     1      43.938   4.707  12.734  0.00  0.00    +0.000 A 
ATOM      9  H   UNL     1      45.167   8.032  14.002  0.00  0.00    +0.000 HD
BRANCH   2  11
ATOM     10  N   UNL     1      44.640   2.314  10.048  0.00  0.00    +0.000 N 
ATOM     11  C   UNL     1      43.890   2.907  11.025  0.00  0.00    +0.000 C 
ATOM     12  O   UNL     1      42.916   2.350  11.513  0.00  0.00    +0.000 OA
ATOM     13  H   UNL     1      44.389   1.367   9.791  0.00  0.00    +0.000 HD
ATOM     14  H   UNL     1      45.568   2.632   9.806  0.00  0.00    +0.000 HD
ENDBRANCH   2  11
ENDBRANCH   1   6
BRANCH   1  15
ATOM     15  C   UNL     1      47.917   8.387  12.594  0.00  0.00    +0.000 C 
BRANCH  15  16
ATOM     16  C   UNL     1      48.233   8.196  14.056  0.00  0.00    +0.000 A 
ATOM     17  C   UNL     1      48.523   9.282  14.870  0.00  0.00    +0.000 A 
ATOM     18  N   UNL     1      48.891   9.172  16.162  0.00  0.00    +0.000 NA
ATOM     19  C   UNL     1      48.974   7.918  16.670  0.00  0.00    +0.000 A 
ATOM     20  C   UNL     1      48.703   6.740  15.967  0.00  0.00    +0.000 A 
ATOM     21  C   UNL     1      48.328   6.916  14.625  0.00  0.00    +0.000 A 
BRANCH  20  22
ATOM     22  C   UNL     1      48.813   5.407  16.594  0.00  0.00    +0.000 A 
ATOM     23  C   UNL     1      47.826   4.421  16.448  0.00  0.00    +0.000 A 
ATOM     24  C   UNL     1      47.964   3.173  17.057  0.00  0.00    +0.000 A 
ATOM     25  C   UNL     1      49.104   2.927  17.801  0.00  0.00    +0.000 A 
ATOM     26  N   UNL     1      50.084   3.833  17.974  0.00  0.00    +0.000 NA
ATOM     27  C   UNL     1      49.913   5.040  17.377  0.00  0.00    +0.000 A 
ENDBRANCH  20  22
ENDBRANCH  15  16
ENDBRANCH   1  15
TORSDOF 5
ENDMDL
MODEL 8
REMARK VINA RESULT:    -6.248      4.228      8.311
REMARK INTER + INTRA:          -8.916
REMARK INTER:                  -7.954
REMARK INTRA:                  -0.962
REMARK UNBOUND:                -0.842
REMARK  Name = 
REMARK  5 active torsions:
REMARK  status: ('A' for Active; 'I' for Inactive)
REMARK    1  A    between atoms: C_2  and  C_4
REMARK    2  A    between atoms: N_8  and  C_9
REMARK    3  A    between atoms: C_9  and  C_10
REMARK    4  A    between atoms: C_10  and  C_11
REMARK    5  A    between atoms: C_15  and  C_16
REMARK                            x       y       z     vdW  Elec       q    Type
REMARK                         _______ _______ _______ _____ _____    ______ ____
ROOT
ATOM      1  C   UNL     1      50.085   8.466  13.026  0.00  0.00    +0.000 C 
ENDROOT
BRANCH   1   6
ATOM      2  C   UNL     1      48.606   6.774  17.606  0.00  0.00    +0.000 A 
ATOM      3  C   UNL     1      48.248   7.900  16.877  0.00  0.00    +0.000 A 
ATOM      4  C   UNL     1      48.849   8.122  15.641  0.00  0.00    +0.000 A 
ATOM      5  C   UNL     1      49.800   7.227  15.152  0.00  0.00    +0.000 A 
ATOM      6  N   UNL     1      50.403   7.382  13.929  0.00  0.00    +0.000 N 
ATOM      7  N   UNL     1      50.175   6.148  15.867  0.00  0.00    +0.000 NA
ATOM      8  C   UNL     1      49.583   5.945  17.078  0.00  0.00    +0.000 A 
ATOM      9  H   UNL     1      51.087   6.670  13.703  0.00  0.00    +0.000 HD
BRANCH   2  11
ATOM     10  N   UNL     1      46.819   5.740  18.876  0.00  0.00    +0.000 N 
ATOM     11  C   UNL     1      47.985   6.454  18.908  0.00  0.00    +0.000 C 
ATOM     12  O   UNL     1      48.506   6.783  19.964  0.00  0.00    +0.000 OA
ATOM     13  H   UNL     1      46.441   5.442  19.767  0.00  0.00    +0.000 HD
ATOM     14  H   UNL     1      46.502   5.252  18.049  0.00  0.00    +0.000 HD
ENDBRANCH   2  11
ENDBRANCH   1   6
BRANCH   1  15
ATOM     15  C   UNL     1      49.375   7.984  11.760  0.00  0.00    +0.000 C 
BRANCH  15  16
ATOM     16  C   UNL     1      47.890   7.895  12.009  0.00  0.00    +0.000 A 
ATOM     17  C   UNL     1      47.183   8.985  12.497  0.00  0.00    +0.000 A 
ATOM     18  N   UNL     1      45.874   8.946  12.815  0.00  0.00    +0.000 NA
ATOM     19  C   UNL     1      45.236   7.763  12.637  0.00  0.00    +0.000 A 
ATOM     20  C   UNL     1      45.823   6.593  12.146  0.00  0.00    +0.000 A 
ATOM     21  C   UNL     1      47.189   6.692  11.835  0.00  0.00    +0.000 A 
BRANCH  20  22
ATOM     22  C   UNL     1      45.057   5.341  11.977  0.00  0.00    +0.000 A 
ATOM     23  C   UNL     1      44.827   4.762  10.720  0.00  0.00    +0.000 A 
ATOM     24  C   UNL     1      44.097   3.579  10.600  0.00  0.00    +0.000 A 
ATOM     25  C   UNL     1      43.613   2.984  11.750  0.00  0.00    +0.000 A 
ATOM     26  N   UNL     1      43.804   3.493  12.982  0.00  0.00    +0.000 NA
ATOM     27  C   UNL     1      44.508   4.650  13.062  0.00  0.00    +0.000 A 
ENDBRANCH  20  22
ENDBRANCH  15  16
ENDBRANCH   1  15
TORSDOF 5
ENDMDL
MODEL 9
REMARK VINA RESULT:    -6.123      3.865      6.349
REMARK INTER + INTRA:          -8.754
REMARK INTER:                  -7.717
REMARK INTRA:                  -1.036
REMARK UNBOUND:                -0.842
REMARK  Name = 
REMARK  5 active torsions:
REMARK  status: ('A' for Active; 'I' for Inactive)
REMARK    1  A    between atoms: C_2  and  C_4
REMARK    2  A    between atoms: N_8  and  C_9
REMARK    3  A    between atoms: C_9  and  C_10
REMARK    4  A    between atoms: C_10  and  C_11
REMARK    5  A    between atoms: C_15  and  C_16
REMARK                            x       y       z     vdW  Elec       q    Type
REMARK                         _______ _______ _______ _____ _____    ______ ____
ROOT
ATOM      1  C   UNL     1      48.801   8.972  13.837  0.00  0.00    +0.000 C 
ENDROOT
BRANCH   1   6
ATOM      2  C   UNL     1      45.503   5.167  13.015  0.00  0.00    +0.000 A 
ATOM      3  C   UNL     1      46.835   5.167  13.407  0.00  0.00    +0.000 A 
ATOM      4  C   UNL     1      47.503   6.383  13.526  0.00  0.00    +0.000 A 
ATOM      5  C   UNL     1      46.841   7.577  13.246  0.00  0.00    +0.000 A 
ATOM      6  N   UNL     1      47.442   8.805  13.373  0.00  0.00    +0.000 N 
ATOM      7  N   UNL     1      45.557   7.584  12.835  0.00  0.00    +0.000 NA
ATOM      8  C   UNL     1      44.917   6.387  12.718  0.00  0.00    +0.000 A 
ATOM      9  H   UNL     1      46.853   9.590  13.122  0.00  0.00    +0.000 HD
BRANCH   2  11
ATOM     10  N   UNL     1      45.382   2.815  12.441  0.00  0.00    +0.000 N 
ATOM     11  C   UNL     1      44.720   3.919  12.902  0.00  0.00    +0.000 C 
ATOM     12  O   UNL     1      43.544   3.869  13.236  0.00  0.00    +0.000 OA
ATOM     13  H   UNL     1      44.872   1.941  12.450  0.00  0.00    +0.000 HD
ATOM     14  H   UNL     1      46.391   2.766  12.392  0.00  0.00    +0.000 HD
ENDBRANCH   2  11
ENDBRANCH   1   6
BRANCH   1  15
ATOM     15  C   UNL     1      48.878   9.711  15.174  0.00  0.00    +0.000 C 
BRANCH  15  16
ATOM     16  C   UNL     1      48.604   8.752  16.305  0.00  0.00    +0.000 A 
ATOM     17  C   UNL     1      48.053   9.197  17.498  0.00  0.00    +0.000 A 
ATOM     18  N   UNL     1      47.859   8.408  18.574  0.00  0.00    +0.000 NA
ATOM     19  C   UNL     1      48.230   7.110  18.455  0.00  0.00    +0.000 A 
ATOM     20  C   UNL     1      48.787   6.529  17.311  0.00  0.00    +0.000 A 
ATOM     21  C   UNL     1      48.969   7.399  16.225  0.00  0.00    +0.000 A 
BRANCH  20  22
ATOM     22  C   UNL     1      49.163   5.101  17.259  0.00  0.00    +0.000 A 
ATOM     23  C   UNL     1      48.218   4.078  17.083  0.00  0.00    +0.000 A 
ATOM     24  C   UNL     1      48.612   2.740  17.041  0.00  0.00    +0.000 A 
ATOM     25  C   UNL     1      49.957   2.446  17.167  0.00  0.00    +0.000 A 
ATOM     26  N   UNL     1      50.907   3.384  17.336  0.00  0.00    +0.000 NA
ATOM     27  C   UNL     1      50.489   4.674  17.384  0.00  0.00    +0.000 A 
ENDBRANCH  20  22
ENDBRANCH  15  16
ENDBRANCH   1  15
TORSDOF 5
ENDMDL
