MODEL 1
REMARK VINA RESULT:    -7.869      0.000      0.000
REMARK INTER + INTRA:         -10.941
REMARK INTER:                  -9.939
REMARK INTRA:                  -1.002
REMARK UNBOUND:                -1.002
REMARK  Name = 
REMARK  8 active torsions:
REMARK  status: ('A' for Active; 'I' for Inactive)
REMARK    1  A    between atoms: C_1  and  C_2
REMARK    2  A    between atoms: C_2  and  C_3
REMARK    3  A    between atoms: C_2  and  C_4
REMARK    4  A    between atoms: C_2  and  C_5
REMARK    5  A    between atoms: C_7  and  C_8
REMARK    6  A    between atoms: C_8  and  N_9
REMARK    7  A    between atoms: CA_14  and  C_15
REMARK    8  A    between atoms: C_15  and  OXT_17
REMARK                            x       y       z     vdW  Elec       q    Type
REMARK                         _______ _______ _______ _____ _____    ______ ____
ROOT
ATOM      1  N   UNL     1      44.372   4.766  10.036  0.00  0.00    +0.000 N 
ATOM      2  C   UNL     1      43.482   3.794  10.483  0.00  0.00    +0.000 A 
ATOM      3  C   UNL     1      44.129   2.590  10.355  0.00  0.00    +0.000 A 
ATOM      4  C   UNL     1      45.146   2.781   9.391  0.00  0.00    +0.000 A 
ATOM      5  C   UNL     1      45.955   1.882   8.700  0.00  0.00    +0.000 A 
ATOM      6  CA  UNL     1      46.669   2.413   7.645  0.00  0.00    +0.000 A 
ATOM      7  N   UNL     1      46.737   3.743   7.325  0.00  0.00    +0.000 NA
ATOM      8  C   UNL     1      46.051   4.637   8.099  0.00  0.00    +0.000 A 
ATOM      9  C   UNL     1      45.227   4.156   9.119  0.00  0.00    +0.000 A 
ENDROOT
BRANCH   6  10
ATOM     10  C   UNL     1      47.332   1.460   6.699  0.00  0.00    +0.000 C 
ATOM     11  O   UNL     1      48.207   1.764   5.896  0.00  0.00    +0.000 OA
BRANCH  10  12
ATOM     12  OXT UNL     1      46.895   0.201   6.901  0.00  0.00    +0.000 OA
ATOM     13  HXT UNL     1      47.119  -0.343   6.108  0.00  0.00    +0.000 HD
ENDBRANCH  10  12
ENDBRANCH   6  10
BRANCH   1  14
ATOM     14  C   UNL     1      44.703   5.811  11.019  0.00  0.00    +0.000 C 
BRANCH  14  17
ATOM     15  C   UNL     1      48.020   6.747  12.635  0.00  0.00    +0.000 A 
ATOM     16  C   UNL     1      46.977   6.722  11.699  0.00  0.00    +0.000 A 
ATOM     17  C   UNL     1      45.976   5.743  11.804  0.00  0.00    +0.000 A 
ATOM     18  C   UNL     1      46.058   4.814  12.845  0.00  0.00    +0.000 A 
ATOM     19  C   UNL     1      47.103   4.909  13.736  0.00  0.00    +0.000 A 
ATOM     20  N   UNL     1      48.065   5.847  13.652  0.00  0.00    +0.000 NA
BRANCH  15  22
ATOM     21  C   UNL     1      48.471   9.204  12.592  0.00  0.00    +0.000 C 
ATOM     22  C   UNL     1      49.126   7.815  12.642  0.00  0.00    +0.000 C 
ATOM     23  C   UNL     1      50.111   7.680  11.470  0.00  0.00    +0.000 C 
ATOM     24  C   UNL     1      49.942   7.703  13.950  0.00  0.00    +0.000 C 
ENDBRANCH  15  22
ENDBRANCH  14  17
ENDBRANCH   1  14
TORSDOF 5
ENDMDL
MODEL 2
REMARK VINA RESULT:    -6.832      3.679      6.917
REMARK INTER + INTRA:          -9.632
REMARK INTER:                  -9.270
REMARK INTRA:                  -0.362
REMARK UNBOUND:                -1.002
REMARK  Name = 
REMARK  8 active torsions:
REMARK  status: ('A' for Active; 'I' for Inactive)
REMARK    1  A    between atoms: C_1  and  C_2
REMARK    2  A    between atoms: C_2  and  C_3
REMARK    3  A    between atoms: C_2  and  C_4
REMARK    4  A    between atoms: C_2  and  C_5
REMARK    5  A    between atoms: C_7  and  C_8
REMARK    6  A    between atoms: C_8  and  N_9
REMARK    7  A    between atoms: CA_14  and  C_15
REMARK    8  A    between atoms: C_15  and  OXT_17
REMARK                            x       y       z     vdW  Elec       q    Type
REMARK                         _______ _______ _______ _____ _____    ______ ____
ROOT
ATOM      1  N   UNL     1      45.208   5.890  11.422  0.00  0.00    +0.000 N 
ATOM      2  C   UNL     1      45.013   7.194  11.869  0.00  0.00    +0.000 A 
ATOM      3  C   UNL     1      45.964   7.417  12.832  0.00  0.00    +0.000 A 
ATOM      4  C   UNL     1      46.360   6.147  13.309  0.00  0.00    +0.000 A 
ATOM      5  C   UNL     1      47.108   5.759  14.419  0.00  0.00    +0.000 A 
ATOM      6  CA  UNL     1      47.083   4.410  14.711  0.00  0.00    +0.000 A 
ATOM      7  N   UNL     1      46.505   3.442  13.935  0.00  0.00    +0.000 NA
ATOM      8  C   UNL     1      45.895   3.817  12.770  0.00  0.00    +0.000 A 
ATOM      9  C   UNL     1      45.793   5.177  12.466  0.00  0.00    +0.000 A 
ENDROOT
BRANCH   6  10
ATOM     10  C   UNL     1      47.630   3.972  16.036  0.00  0.00    +0.000 C 
ATOM     11  O   UNL     1      48.800   4.087  16.383  0.00  0.00    +0.000 OA
BRANCH  10  12
ATOM     12  OXT UNL     1      46.647   3.504  16.830  0.00  0.00    +0.000 OA
ATOM     13  HXT UNL     1      47.016   2.793  17.405  0.00  0.00    +0.000 HD
ENDBRANCH  10  12
ENDBRANCH   6  10
BRANCH   1  14
ATOM     14  C   UNL     1      45.472   5.755   9.980  0.00  0.00    +0.000 C 
BRANCH  14  17
ATOM     15  C   UNL     1      46.049   2.665   7.833  0.00  0.00    +0.000 A 
ATOM     16  C   UNL     1      46.121   3.998   8.261  0.00  0.00    +0.000 A 
ATOM     17  C   UNL     1      45.275   4.441   9.290  0.00  0.00    +0.000 A 
ATOM     18  C   UNL     1      44.377   3.530   9.854  0.00  0.00    +0.000 A 
ATOM     19  C   UNL     1      44.373   2.233   9.392  0.00  0.00    +0.000 A 
ATOM     20  N   UNL     1      45.184   1.793   8.413  0.00  0.00    +0.000 NA
BRANCH  15  22
ATOM     21  C   UNL     1      47.019   0.544   6.937  0.00  0.00    +0.000 C 
ATOM     22  C   UNL     1      46.975   2.069   6.759  0.00  0.00    +0.000 C 
ATOM     23  C   UNL     1      48.408   2.624   6.814  0.00  0.00    +0.000 C 
ATOM     24  C   UNL     1      46.408   2.385   5.357  0.00  0.00    +0.000 C 
ENDBRANCH  15  22
ENDBRANCH  14  17
ENDBRANCH   1  14
TORSDOF 5
ENDMDL
MODEL 3
REMARK VINA RESULT:    -6.458      3.361      5.690
REMARK INTER + INTRA:          -9.159
REMARK INTER:                  -8.560
REMARK INTRA:                  -0.599
REMARK UNBOUND:                -1.002
REMARK  Name = 
REMARK  8 active torsions:
REMARK  status: ('A' for Active; 'I' for Inactive)
REMARK    1  A    between atoms: C_1  and  C_2
REMARK    2  A    between atoms: C_2  and  C_3
REMARK    3  A    between atoms: C_2  and  C_4
REMARK    4  A    between atoms: C_2  and  C_5
REMARK    5  A    between atoms: C_7  and  C_8
REMARK    6  A    between atoms: C_8  and  N_9
REMARK    7  A    between atoms: CA_14  and  C_15
REMARK    8  A    between atoms: C_15  and  OXT_17
REMARK                            x       y       z     vdW  Elec       q    Type
REMARK                         _______ _______ _______ _____ _____    ______ ____
ROOT
ATOM      1  N   UNL     1      47.793   6.555  13.132  0.00  0.00    +0.000 N 
ATOM      2  C   UNL     1      47.797   7.327  11.974  0.00  0.00    +0.000 A 
ATOM      3  C   UNL     1      46.569   7.150  11.389  0.00  0.00    +0.000 A 
ATOM      4  C   UNL     1      46.058   5.930  11.887  0.00  0.00    +0.000 A 
ATOM      5  C   UNL     1      44.981   5.139  11.491  0.00  0.00    +0.000 A 
ATOM      6  CA  UNL     1      44.929   3.879  12.052  0.00  0.00    +0.000 A 
ATOM      7  N   UNL     1      45.758   3.418  13.040  0.00  0.00    +0.000 NA
ATOM      8  C   UNL     1      46.724   4.254  13.525  0.00  0.00    +0.000 A 
ATOM      9  C   UNL     1      46.898   5.506  12.929  0.00  0.00    +0.000 A 
ENDROOT
BRANCH   6  10
ATOM     10  C   UNL     1      43.969   2.891  11.464  0.00  0.00    +0.000 C 
ATOM     11  O   UNL     1      43.775   2.732  10.264  0.00  0.00    +0.000 OA
BRANCH  10  12
ATOM     12  OXT UNL     1      43.400   2.141  12.429  0.00  0.00    +0.000 OA
ATOM     13  HXT UNL     1      43.676   2.494  13.308  0.00  0.00    +0.000 HD
ENDBRANCH  10  12
ENDBRANCH   6  10
BRANCH   1  14
ATOM     14  C   UNL     1      48.044   7.295  14.380  0.00  0.00    +0.000 C 
BRANCH  14  17
ATOM     15  C   UNL     1      49.272   4.858  17.033  0.00  0.00    +0.000 A 
ATOM     16  C   UNL     1      48.387   5.546  16.193  0.00  0.00    +0.000 A 
ATOM     17  C   UNL     1      48.837   6.674  15.488  0.00  0.00    +0.000 A 
ATOM     18  C   UNL     1      50.164   7.078  15.654  0.00  0.00    +0.000 A 
ATOM     19  C   UNL     1      50.980   6.344  16.485  0.00  0.00    +0.000 A 
ATOM     20  N   UNL     1      50.564   5.257  17.161  0.00  0.00    +0.000 NA
BRANCH  15  22
ATOM     21  C   UNL     1      49.975   2.516  17.548  0.00  0.00    +0.000 C 
ATOM     22  C   UNL     1      48.893   3.578  17.797  0.00  0.00    +0.000 C 
ATOM     23  C   UNL     1      47.525   3.007  17.389  0.00  0.00    +0.000 C 
ATOM     24  C   UNL     1      48.838   3.879  19.312  0.00  0.00    +0.000 C 
ENDBRANCH  15  22
ENDBRANCH  14  17
ENDBRANCH   1  14
TORSDOF 5
ENDMDL
MODEL 4
REMARK VINA RESULT:    -5.976      4.320      6.532
REMARK INTER + INTRA:          -8.551
REMARK INTER:                  -7.546
REMARK INTRA:                  -1.004
REMARK UNBOUND:                -1.002
REMARK  Name = 
REMARK  8 active torsions:
REMARK  status: ('A' for Active; 'I' for Inactive)
REMARK    1  A    between atoms: C_1  and  C_2
REMARK    2  A    between atoms: C_2  and  C_3
REMARK    3  A    between atoms: C_2  and  C_4
REMARK    4  A    between atoms: C_2  and  C_5
REMARK    5  A    between atoms: C_7  and  C_8
REMARK    6  A    between atoms: C_8  and  N_9
REMARK    7  A    between atoms: CA_14  and  C_15
REMARK    8  A    between atoms: C_15  and  OXT_17
REMARK                            x       y       z     vdW  Elec       q    Type
REMARK                         _______ _______ _______ _____ _____    ______ ____
ROOT
ATOM      1  N   UNL     1      48.526   6.791  13.202  0.00  0.00    +0.000 N 
ATOM      2  C   UNL     1      48.285   7.681  12.160  0.00  0.00    +0.000 A 
ATOM      3  C   UNL     1      46.927   7.869  12.119  0.00  0.00    +0.000 A 
ATOM      4  C   UNL     1      46.347   6.746  12.753  0.00  0.00    +0.000 A 
ATOM      5  C   UNL     1      45.034   6.282  12.808  0.00  0.00    +0.000 A 
ATOM      6  CA  UNL     1      44.875   5.007  13.313  0.00  0.00    +0.000 A 
ATOM      7  N   UNL     1      45.867   4.246  13.869  0.00  0.00    +0.000 NA
ATOM      8  C   UNL     1      47.129   4.768  13.940  0.00  0.00    +0.000 A 
ATOM      9  C   UNL     1      47.381   6.011  13.354  0.00  0.00    +0.000 A 
ENDROOT
BRANCH   6  10
ATOM     10  C   UNL     1      43.540   4.350  13.141  0.00  0.00    +0.000 C 
ATOM     11  O   UNL     1      43.371   3.163  12.885  0.00  0.00    +0.000 OA
BRANCH  10  12
ATOM     12  OXT UNL     1      42.540   5.221  13.383  0.00  0.00    +0.000 OA
ATOM     13  HXT UNL     1      42.801   5.801  14.137  0.00  0.00    +0.000 HD
ENDBRANCH  10  12
ENDBRANCH   6  10
BRANCH   1  14
ATOM     14  C   UNL     1      49.423   7.289  14.258  0.00  0.00    +0.000 C 
BRANCH  14  17
ATOM     15  C   UNL     1      48.712   7.099  17.992  0.00  0.00    +0.000 A 
ATOM     16  C   UNL     1      48.983   6.673  16.685  0.00  0.00    +0.000 A 
ATOM     17  C   UNL     1      48.896   7.591  15.626  0.00  0.00    +0.000 A 
ATOM     18  C   UNL     1      48.533   8.910  15.915  0.00  0.00    +0.000 A 
ATOM     19  C   UNL     1      48.295   9.259  17.225  0.00  0.00    +0.000 A 
ATOM     20  N   UNL     1      48.383   8.392  18.250  0.00  0.00    +0.000 NA
BRANCH  15  22
ATOM     21  C   UNL     1      47.470   6.088  19.910  0.00  0.00    +0.000 C 
ATOM     22  C   UNL     1      48.841   6.187  19.223  0.00  0.00    +0.000 C 
ATOM     23  C   UNL     1      49.880   6.683  20.242  0.00  0.00    +0.000 C 
ATOM     24  C   UNL     1      49.269   4.772  18.774  0.00  0.00    +0.000 C 
ENDBRANCH  15  22
ENDBRANCH  14  17
ENDBRANCH   1  14
TORSDOF 5
ENDMDL
MODEL 5
REMARK VINA RESULT:    -5.612      3.922      6.378
REMARK INTER + INTRA:          -8.091
REMARK INTER:                  -7.330
REMARK INTRA:                  -0.761
REMARK UNBOUND:                -1.002
REMARK  Name = 
REMARK  8 active torsions:
REMARK  status: ('A' for Active; 'I' for Inactive)
REMARK    1  A    between atoms: C_1  and  C_2
REMARK    2  A    between atoms: C_2  and  C_3
REMARK    3  A    between atoms: C_2  and  C_4
REMARK    4  A    between atoms: C_2  and  C_5
REMARK    5  A    between atoms: C_7  and  C_8
REMARK    6  A    between atoms: C_8  and  N_9
REMARK    7  A    between atoms: CA_14  and  C_15
REMARK    8  A    between atoms: C_15  and  OXT_17
REMARK                            x       y       z     vdW  Elec       q    Type
REMARK                         _______ _______ _______ _____ _____    ______ ____
ROOT
ATOM      1  N   UNL     1      48.629   6.718  13.615  0.00  0.00    +0.000 N 
ATOM      2  C   UNL     1      48.924   7.154  12.327  0.00  0.00    +0.000 A 
ATOM      3  C   UNL     1      47.740   7.131  11.633  0.00  0.00    +0.000 A 
ATOM      4  C   UNL     1      46.892   6.229  12.314  0.00  0.00    +0.000 A 
ATOM      5  C   UNL     1      45.680   5.640  11.960  0.00  0.00    +0.000 A 
ATOM      6  CA  UNL     1      45.258   4.608  12.774  0.00  0.00    +0.000 A 
ATOM      7  N   UNL     1      45.860   4.226  13.943  0.00  0.00    +0.000 NA
ATOM      8  C   UNL     1      46.971   4.906  14.358  0.00  0.00    +0.000 A 
ATOM      9  C   UNL     1      47.510   5.892  13.529  0.00  0.00    +0.000 A 
ENDROOT
BRANCH   6  10
ATOM     10  C   UNL     1      44.121   3.759  12.294  0.00  0.00    +0.000 C 
ATOM     11  O   UNL     1      43.122   4.183  11.724  0.00  0.00    +0.000 OA
BRANCH  10  12
ATOM     12  OXT UNL     1      44.376   2.452  12.502  0.00  0.00    +0.000 OA
ATOM     13  HXT UNL     1      43.519   1.967  12.554  0.00  0.00    +0.000 HD
ENDBRANCH  10  12
ENDBRANCH   6  10
BRANCH   1  14
ATOM     14  C   UNL     1      48.970   7.665  14.690  0.00  0.00    +0.000 C 
BRANCH  14  17
ATOM     15  C   UNL     1      49.199   6.254  18.217  0.00  0.00    +0.000 A 
ATOM     16  C   UNL     1      48.690   6.952  17.114  0.00  0.00    +0.000 A 
ATOM     17  C   UNL     1      49.511   7.173  15.996  0.00  0.00    +0.000 A 
ATOM     18  C   UNL     1      50.821   6.688  16.024  0.00  0.00    +0.000 A 
ATOM     19  C   UNL     1      51.247   5.998  17.137  0.00  0.00    +0.000 A 
ATOM     20  N   UNL     1      50.470   5.773  18.212  0.00  0.00    +0.000 NA
BRANCH  15  22
ATOM     21  C   UNL     1      48.861   4.573  20.034  0.00  0.00    +0.000 C 
ATOM     22  C   UNL     1      48.362   5.908  19.460  0.00  0.00    +0.000 C 
ATOM     23  C   UNL     1      46.857   5.801  19.171  0.00  0.00    +0.000 C 
ATOM     24  C   UNL     1      48.553   7.006  20.531  0.00  0.00    +0.000 C 
ENDBRANCH  15  22
ENDBRANCH  14  17
ENDBRANCH   1  14
TORSDOF 5
ENDMDL
MODEL 6
REMARK VINA RESULT:    -5.287      4.609      8.176
REMARK INTER + INTRA:          -7.680
REMARK INTER:                  -6.978
REMARK INTRA:                  -0.702
REMARK UNBOUND:                -1.002
REMARK  Name = 
REMARK  8 active torsions:
REMARK  status: ('A' for Active; 'I' for Inactive)
REMARK    1  A    between atoms: C_1  and  C_2
REMARK    2  A    between atoms: C_2  and  C_3
REMARK    3  A    between atoms: C_2  and  C_4
REMARK    4  A    between atoms: C_2  and  C_5
REMARK    5  A    between atoms: C_7  and  C_8
REMARK    6  A    between atoms: C_8  and  N_9
REMARK    7  A    between atoms: CA_14  and  C_15
REMARK    8  A    between atoms: C_15  and  OXT_17
REMARK                            x       y       z     vdW  Elec       q    Type
REMARK                         _______ _______ _______ _____ _____    ______ ____
ROOT
ATOM      1  N   UNL     1      48.744   7.267  14.229  0.00  0.00    +0.000 N 
ATOM      2  C   UNL     1      49.662   8.287  14.459  0.00  0.00    +0.000 A 
ATOM      3  C   UNL     1      50.628   7.760  15.278  0.00  0.00    +0.000 A 
ATOM      4  C   UNL     1      50.041   6.650  15.929  0.00  0.00    +0.000 A 
ATOM      5  C   UNL     1      50.454   5.882  17.016  0.00  0.00    +0.000 A 
ATOM      6  CA  UNL     1      49.502   5.030  17.538  0.00  0.00    +0.000 A 
ATOM      7  N   UNL     1      48.266   4.797  16.997  0.00  0.00    +0.000 NA
ATOM      8  C   UNL     1      47.922   5.452  15.847  0.00  0.00    +0.000 A 
ATOM      9  C   UNL     1      48.799   6.405  15.323  0.00  0.00    +0.000 A 
ENDROOT
BRANCH   6  10
ATOM     10  C   UNL     1      49.787   4.390  18.862  0.00  0.00    +0.000 C 
ATOM     11  O   UNL     1      50.528   4.858  19.720  0.00  0.00    +0.000 OA
BRANCH  10  12
ATOM     12  OXT UNL     1      49.061   3.266  19.020  0.00  0.00    +0.000 OA
ATOM     13  HXT UNL     1      49.521   2.680  19.666  0.00  0.00    +0.000 HD
ENDBRANCH  10  12
ENDBRANCH   6  10
BRANCH   1  14
ATOM     14  C   UNL     1      48.540   6.915  12.814  0.00  0.00    +0.000 C 
BRANCH  14  17
ATOM     15  C   UNL     1      45.077   5.926  11.584  0.00  0.00    +0.000 A 
ATOM     16  C   UNL     1      46.436   5.814  11.908  0.00  0.00    +0.000 A 
ATOM     17  C   UNL     1      47.174   6.971  12.205  0.00  0.00    +0.000 A 
ATOM     18  C   UNL     1      46.523   8.207  12.161  0.00  0.00    +0.000 A 
ATOM     19  C   UNL     1      45.183   8.238  11.849  0.00  0.00    +0.000 A 
ATOM     20  N   UNL     1      44.461   7.137  11.571  0.00  0.00    +0.000 NA
BRANCH  15  22
ATOM     21  C   UNL     1      44.661   3.527  12.147  0.00  0.00    +0.000 C 
ATOM     22  C   UNL     1      44.170   4.716  11.306  0.00  0.00    +0.000 C 
ATOM     23  C   UNL     1      44.138   4.305   9.825  0.00  0.00    +0.000 C 
ATOM     24  C   UNL     1      42.721   5.050  11.727  0.00  0.00    +0.000 C 
ENDBRANCH  15  22
ENDBRANCH  14  17
ENDBRANCH   1  14
TORSDOF 5
ENDMDL
MODEL 7
REMARK VINA RESULT:    -4.981      3.338      5.435
REMARK INTER + INTRA:          -7.294
REMARK INTER:                  -6.792
REMARK INTRA:                  -0.502
REMARK UNBOUND:                -1.002
REMARK  Name = 
REMARK  8 active torsions:
REMARK  status: ('A' for Active; 'I' for Inactive)
REMARK    1  A    between atoms: C_1  and  C_2
REMARK    2  A    between atoms: C_2  and  C_3
REMARK    3  A    between atoms: C_2  and  C_4
REMARK    4  A    between atoms: C_2  and  C_5
REMARK    5  A    between atoms: C_7  and  C_8
REMARK    6  A    between atoms: C_8  and  N_9
REMARK    7  A    between atoms: CA_14  and  C_15
REMARK    8  A    between atoms: C_15  and  OXT_17
REMARK                            x       y       z     vdW  Elec       q    Type
REMARK                         _______ _______ _______ _____ _____    ______ ____
ROOT
ATOM      1  N   UNL     1      47.386   6.002  14.067  0.00  0.00    +0.000 N 
ATOM      2  C   UNL     1      47.423   5.076  15.105  0.00  0.00    +0.000 A 
ATOM      3  C   UNL     1      47.111   3.861  14.548  0.00  0.00    +0.000 A 
ATOM      4  C   UNL     1      46.408   4.135  13.353  0.00  0.00    +0.000 A 
ATOM      5  C   UNL     1      45.661   3.322  12.503  0.00  0.00    +0.000 A 
ATOM      6  CA  UNL     1      44.904   3.984  11.559  0.00  0.00    +0.000 A 
ATOM      7  N   UNL     1      44.939   5.332  11.319  0.00  0.00    +0.000 NA
ATOM      8  C   UNL     1      45.784   6.106  12.064  0.00  0.00    +0.000 A 
ATOM      9  C   UNL     1      46.502   5.514  13.107  0.00  0.00    +0.000 A 
ENDROOT
BRANCH   6  10
ATOM     10  C   UNL     1      43.875   3.195  10.808  0.00  0.00    +0.000 C 
ATOM     11  O   UNL     1      43.926   2.940   9.610  0.00  0.00    +0.000 OA
BRANCH  10  12
ATOM     12  OXT UNL     1      42.922   2.733  11.641  0.00  0.00    +0.000 OA
ATOM     13  HXT UNL     1      42.404   2.035  11.173  0.00  0.00    +0.000 HD
ENDBRANCH  10  12
ENDBRANCH   6  10
BRANCH   1  14
ATOM     14  C   UNL     1      48.637   6.745  13.845  0.00  0.00    +0.000 C 
BRANCH  14  17
ATOM     15  C   UNL     1      49.177   8.615  17.116  0.00  0.00    +0.000 A 
ATOM     16  C   UNL     1      48.531   8.142  15.966  0.00  0.00    +0.000 A 
ATOM     17  C   UNL     1      49.279   7.506  14.963  0.00  0.00    +0.000 A 
ATOM     18  C   UNL     1      50.658   7.369  15.146  0.00  0.00    +0.000 A 
ATOM     19  C   UNL     1      51.222   7.845  16.308  0.00  0.00    +0.000 A 
ATOM     20  N   UNL     1      50.516   8.449  17.281  0.00  0.00    +0.000 NA
BRANCH  15  22
ATOM     21  C   UNL     1      49.452   9.559  19.413  0.00  0.00    +0.000 C 
ATOM     22  C   UNL     1      48.438   9.267  18.296  0.00  0.00    +0.000 C 
ATOM     23  C   UNL     1      47.304   8.397  18.861  0.00  0.00    +0.000 C 
ATOM     24  C   UNL     1      47.813  10.604  17.838  0.00  0.00    +0.000 C 
ENDBRANCH  15  22
ENDBRANCH  14  17
ENDBRANCH   1  14
TORSDOF 5
ENDMDL
MODEL 8
REMARK VINA RESULT:    -4.878      4.648      6.675
REMARK INTER + INTRA:          -7.164
REMARK INTER:                  -6.623
REMARK INTRA:                  -0.541
REMARK UNBOUND:                -1.002
REMARK  Name = 
REMARK  8 active torsions:
REMARK  status: ('A' for Active; 'I' for Inactive)
REMARK    1  A    between atoms: C_1  and  C_2
REMARK    2  A    between atoms: C_2  and  C_3
REMARK    3  A    between atoms: C_2  and  C_4
REMARK    4  A    between atoms: C_2  and  C_5
REMARK    5  A    between atoms: C_7  and  C_8
REMARK    6  A    between atoms: C_8  and  N_9
REMARK    7  A    between atoms: CA_14  and  C_15
REMARK    8  A    between atoms: C_15  and  OXT_17
REMARK                            x       y       z     vdW  Elec       q    Type
REMARK                         _______ _______ _______ _____ _____    ______ ____
ROOT
ATOM      1  N   UNL     1      46.335   6.628  13.389  0.00  0.00    +0.000 N 
ATOM      2  C   UNL     1      45.617   5.460  13.149  0.00  0.00    +0.000 A 
ATOM      3  C   UNL     1      44.944   5.656  11.969  0.00  0.00    +0.000 A 
ATOM      4  C   UNL     1      44.847   7.054  11.789  0.00  0.00    +0.000 A 
ATOM      5  C   UNL     1      44.093   7.832  10.912  0.00  0.00    +0.000 A 
ATOM      6  CA  UNL     1      44.062   9.183  11.191  0.00  0.00    +0.000 A 
ATOM      7  N   UNL     1      44.805   9.810  12.155  0.00  0.00    +0.000 NA
ATOM      8  C   UNL     1      45.652   9.057  12.919  0.00  0.00    +0.000 A 
ATOM      9  C   UNL     1      45.656   7.669  12.759  0.00  0.00    +0.000 A 
ENDROOT
BRANCH   6  10
ATOM     10  C   UNL     1      43.058  10.023  10.463  0.00  0.00    +0.000 C 
ATOM     11  O   UNL     1      42.094  10.572  10.986  0.00  0.00    +0.000 OA
BRANCH  10  12
ATOM     12  OXT UNL     1      43.396  10.162   9.166  0.00  0.00    +0.000 OA
ATOM     13  HXT UNL     1      42.570  10.209   8.627  0.00  0.00    +0.000 HD
ENDBRANCH  10  12
ENDBRANCH   6  10
BRANCH   1  14
ATOM     14  C   UNL     1      47.790   6.452  13.522  0.00  0.00    +0.000 C 
BRANCH  14  17
ATOM     15  C   UNL     1      48.881   4.937  16.839  0.00  0.00    +0.000 A 
ATOM     16  C   UNL     1      48.088   5.198  15.713  0.00  0.00    +0.000 A 
ATOM     17  C   UNL     1      48.416   6.272  14.870  0.00  0.00    +0.000 A 
ATOM     18  C   UNL     1      49.529   7.055  15.188  0.00  0.00    +0.000 A 
ATOM     19  C   UNL     1      50.270   6.729  16.302  0.00  0.00    +0.000 A 
ATOM     20  N   UNL     1      49.972   5.699  17.115  0.00  0.00    +0.000 NA
BRANCH  15  22
ATOM     21  C   UNL     1      47.240   3.180  17.520  0.00  0.00    +0.000 C 
ATOM     22  C   UNL     1      48.642   3.750  17.786  0.00  0.00    +0.000 C 
ATOM     23  C   UNL     1      48.760   4.123  19.273  0.00  0.00    +0.000 C 
ATOM     24  C   UNL     1      49.685   2.645  17.501  0.00  0.00    +0.000 C 
ENDBRANCH  15  22
ENDBRANCH  14  17
ENDBRANCH   1  14
TORSDOF 5
ENDMDL
