MODEL 1
REMARK VINA RESULT:    -6.479      0.000      0.000
REMARK INTER + INTRA:          -8.555
REMARK INTER:                  -8.184
REMARK INTRA:                  -0.371
REMARK UNBOUND:                -0.371
REMARK  Name = 
REMARK  5 active torsions:
REMARK  status: ('A' for Active; 'I' for Inactive)
REMARK    1  A    between atoms: N_1  and  C_2
REMARK    2  A    between atoms: C_2  and  C_3
REMARK    3  A    between atoms: C_3  and  N_4
REMARK    4  A    between atoms: C_7  and  C_8
REMARK    5  A    between atoms: C_8  and  N_9
REMARK                            x       y       z     vdW  Elec       q    Type
REMARK                         _______ _______ _______ _____ _____    ______ ____
ROOT
ATOM      1  N   UNL     1      44.659   6.397  12.678  0.00  0.00    +0.000 NA
ATOM      2  C   UNL     1      43.554   6.601  11.727  0.00  0.00    +0.000 C 
ATOM      3  C   UNL     1      42.711   5.340  11.565  0.00  0.00    +0.000 C 
ATOM      4  C   UNL     1      43.549   4.156  11.078  0.00  0.00    +0.000 C 
ATOM      5  C   UNL     1      44.689   3.957  12.092  0.00  0.00    +0.000 C 
ATOM      6  C   UNL     1      45.500   5.242  12.317  0.00  0.00    +0.000 C 
ENDROOT
BRANCH   1   7
ATOM      7  C   UNL     1      45.502   7.611  12.791  0.00  0.00    +0.000 C 
BRANCH   7   8
ATOM      8  C   UNL     1      45.086   8.757  11.842  0.00  0.00    +0.000 C 
BRANCH   8   9
ATOM      9  N   UNL     1      44.697   9.966  12.573  0.00  0.00    +0.000 NA
ATOM     10  H   UNL     1      45.530  10.362  13.010  0.00  0.00    +0.000 HD
ATOM     11  H   UNL     1      44.076   9.708  13.339  0.00  0.00    +0.000 HD
ENDBRANCH   8   9
ENDBRANCH   7   8
ENDBRANCH   1   7
BRANCH   4  12
ATOM     12  C   UNL     1      44.114   4.333   9.654  0.00  0.00    +0.000 C 
BRANCH  12  13
ATOM     13  N   UNL     1      44.825   3.184   9.130  0.00  0.00    +0.000 N 
ATOM     14  N   UNL     1      44.406   1.932   9.450  0.00  0.00    +0.000 NA
ATOM     15  C   UNL     1      45.187   1.146   8.701  0.00  0.00    +0.000 A 
ATOM     16  C   UNL     1      46.086   1.874   7.894  0.00  0.00    +0.000 A 
ATOM     17  C   UNL     1      47.065   1.594   6.933  0.00  0.00    +0.000 A 
ATOM     18  C   UNL     1      47.723   2.684   6.362  0.00  0.00    +0.000 A 
ATOM     19  C   UNL     1      47.387   3.970   6.770  0.00  0.00    +0.000 A 
ATOM     20  N   UNL     1      46.448   4.289   7.691  0.00  0.00    +0.000 NA
ATOM     21  C   UNL     1      45.838   3.202   8.209  0.00  0.00    +0.000 A 
ENDBRANCH  12  13
ENDBRANCH   4  12
TORSDOF 5
ENDMDL
MODEL 2
REMARK VINA RESULT:    -6.128      3.668      7.334
REMARK INTER + INTRA:          -8.112
REMARK INTER:                  -7.706
REMARK INTRA:                  -0.406
REMARK UNBOUND:                -0.371
REMARK  Name = 
REMARK  5 active torsions:
REMARK  status: ('A' for Active; 'I' for Inactive)
REMARK    1  A    between atoms: N_1  and  C_2
REMARK    2  A    between atoms: C_2  and  C_3
REMARK    3  A    between atoms: C_3  and  N_4
REMARK    4  A    between atoms: C_7  and  C_8
REMARK    5  A    between atoms: C_8  and  N_9
REMARK                            x       y       z     vdW  Elec       q    Type
REMARK                         _______ _______ _______ _____ _____    ______ ____
ROOT
ATOM      1  N   UNL     1      44.378   4.773  10.497  0.00  0.00    +0.000 NA
ATOM      2  C   UNL     1      44.172   3.870  11.641  0.00  0.00    +0.000 C 
ATOM      3  C   UNL     1      44.071   4.640  12.955  0.00  0.00    +0.000 C 
ATOM      4  C   UNL     1      45.327   5.474  13.222  0.00  0.00    +0.000 C 
ATOM      5  C   UNL     1      45.514   6.414  12.018  0.00  0.00    +0.000 C 
ATOM      6  C   UNL     1      45.544   5.654  10.683  0.00  0.00    +0.000 C 
ENDROOT
BRANCH   1   7
ATOM      7  C   UNL     1      44.525   4.012   9.233  0.00  0.00    +0.000 C 
BRANCH   7   8
ATOM      8  C   UNL     1      44.523   2.478   9.416  0.00  0.00    +0.000 C 
BRANCH   8   9
ATOM      9  N   UNL     1      45.632   1.835   8.706  0.00  0.00    +0.000 NA
ATOM     10  H   UNL     1      45.946   2.460   7.963  0.00  0.00    +0.000 HD
ATOM     11  H   UNL     1      45.288   0.997   8.239  0.00  0.00    +0.000 HD
ENDBRANCH   8   9
ENDBRANCH   7   8
ENDBRANCH   1   7
BRANCH   4  12
ATOM     12  C   UNL     1      46.597   4.633  13.456  0.00  0.00    +0.000 C 
BRANCH  12  13
ATOM     13  N   UNL     1      47.471   5.121  14.504  0.00  0.00    +0.000 N 
ATOM     14  N   UNL     1      48.159   6.278  14.320  0.00  0.00    +0.000 NA
ATOM     15  C   UNL     1      48.735   6.485  15.509  0.00  0.00    +0.000 A 
ATOM     16  C   UNL     1      48.413   5.490  16.456  0.00  0.00    +0.000 A 
ATOM     17  C   UNL     1      48.686   5.224  17.804  0.00  0.00    +0.000 A 
ATOM     18  C   UNL     1      48.114   4.075  18.352  0.00  0.00    +0.000 A 
ATOM     19  C   UNL     1      47.320   3.262  17.549  0.00  0.00    +0.000 A 
ATOM     20  N   UNL     1      47.027   3.479  16.247  0.00  0.00    +0.000 NA
ATOM     21  C   UNL     1      47.599   4.604  15.765  0.00  0.00    +0.000 A 
ENDBRANCH  12  13
ENDBRANCH   4  12
TORSDOF 5
ENDMDL
MODEL 3
REMARK VINA RESULT:    -5.995      2.657      3.743
REMARK INTER + INTRA:          -7.943
REMARK INTER:                  -7.419
REMARK INTRA:                  -0.524
REMARK UNBOUND:                -0.371
REMARK  Name = 
REMARK  5 active torsions:
REMARK  status: ('A' for Active; 'I' for Inactive)
REMARK    1  A    between atoms: N_1  and  C_2
REMARK    2  A    between atoms: C_2  and  C_3
REMARK    3  A    between atoms: C_3  and  N_4
REMARK    4  A    between atoms: C_7  and  C_8
REMARK    5  A    between atoms: C_8  and  N_9
REMARK                            x       y       z     vdW  Elec       q    Type
REMARK                         _______ _______ _______ _____ _____    ______ ____
ROOT
ATOM      1  N   UNL     1      48.064   8.194  12.467  0.00  0.00    +0.000 NA
ATOM      2  C   UNL     1      46.862   9.000  12.198  0.00  0.00    +0.000 C 
ATOM      3  C   UNL     1      45.665   8.512  13.011  0.00  0.00    +0.000 C 
ATOM      4  C   UNL     1      45.336   7.048  12.713  0.00  0.00    +0.000 C 
ATOM      5  C   UNL     1      46.604   6.227  13.009  0.00  0.00    +0.000 C 
ATOM      6  C   UNL     1      47.831   6.755  12.252  0.00  0.00    +0.000 C 
ENDROOT
BRANCH   1   7
ATOM      7  C   UNL     1      49.207   8.643  11.636  0.00  0.00    +0.000 C 
BRANCH   7   8
ATOM      8  C   UNL     1      50.579   8.115  12.114  0.00  0.00    +0.000 C 
BRANCH   8   9
ATOM      9  N   UNL     1      51.271   7.353  11.070  0.00  0.00    +0.000 NA
ATOM     10  H   UNL     1      52.259   7.294  11.316  0.00  0.00    +0.000 HD
ATOM     11  H   UNL     1      51.232   7.874  10.195  0.00  0.00    +0.000 HD
ENDBRANCH   8   9
ENDBRANCH   7   8
ENDBRANCH   1   7
BRANCH   4  12
ATOM     12  C   UNL     1      44.852   6.796  11.271  0.00  0.00    +0.000 C 
BRANCH  12  13
ATOM     13  N   UNL     1      44.585   5.408  10.948  0.00  0.00    +0.000 N 
ATOM     14  N   UNL     1      43.703   4.701  11.701  0.00  0.00    +0.000 NA
ATOM     15  C   UNL     1      43.607   3.538  11.050  0.00  0.00    +0.000 A 
ATOM     16  C   UNL     1      44.397   3.495   9.883  0.00  0.00    +0.000 A 
ATOM     17  C   UNL     1      44.649   2.592   8.842  0.00  0.00    +0.000 A 
ATOM     18  C   UNL     1      45.536   3.003   7.846  0.00  0.00    +0.000 A 
ATOM     19  C   UNL     1      46.120   4.262   7.935  0.00  0.00    +0.000 A 
ATOM     20  N   UNL     1      45.906   5.167   8.917  0.00  0.00    +0.000 NA
ATOM     21  C   UNL     1      45.038   4.725   9.852  0.00  0.00    +0.000 A 
ENDBRANCH  12  13
ENDBRANCH   4  12
TORSDOF 5
ENDMDL
MODEL 4
REMARK VINA RESULT:    -5.901      3.425      6.869
REMARK INTER + INTRA:          -7.825
REMARK INTER:                  -7.366
REMARK INTRA:                  -0.459
REMARK UNBOUND:                -0.371
REMARK  Name = 
REMARK  5 active torsions:
REMARK  status: ('A' for Active; 'I' for Inactive)
REMARK    1  A    between atoms: N_1  and  C_2
REMARK    2  A    between atoms: C_2  and  C_3
REMARK    3  A    between atoms: C_3  and  N_4
REMARK    4  A    between atoms: C_7  and  C_8
REMARK    5  A    between atoms: C_8  and  N_9
REMARK                            x       y       z     vdW  Elec       q    Type
REMARK                         _______ _______ _______ _____ _____    ______ ____
ROOT
ATOM      1  N   UNL     1      44.311   4.861  10.426  0.00  0.00    +0.000 NA
ATOM      2  C   UNL     1      43.937   4.040  11.590  0.00  0.00    +0.000 C 
ATOM      3  C   UNL     1      43.895   4.868  12.871  0.00  0.00    +0.000 C 
ATOM      4  C   UNL     1      45.245   5.527  13.164  0.00  0.00    +0.000 C 
ATOM      5  C   UNL     1      45.609   6.385  11.939  0.00  0.00    +0.000 C 
ATOM      6  C   UNL     1      45.582   5.577  10.633  0.00  0.00    +0.000 C 
ENDROOT
BRANCH   1   7
ATOM      7  C   UNL     1      44.397   4.039   9.195  0.00  0.00    +0.000 C 
BRANCH   7   8
ATOM      8  C   UNL     1      44.484   2.518   9.457  0.00  0.00    +0.000 C 
BRANCH   8   9
ATOM      9  N   UNL     1      45.571   1.888   8.702  0.00  0.00    +0.000 NA
ATOM     10  H   UNL     1      46.189   2.621   8.355  0.00  0.00    +0.000 HD
ATOM     11  H   UNL     1      45.183   1.435   7.876  0.00  0.00    +0.000 HD
ENDBRANCH   8   9
ENDBRANCH   7   8
ENDBRANCH   1   7
BRANCH   4  12
ATOM     12  C   UNL     1      46.374   4.527  13.481  0.00  0.00    +0.000 C 
BRANCH  12  13
ATOM     13  N   UNL     1      47.026   4.724  14.760  0.00  0.00    +0.000 N 
ATOM     14  N   UNL     1      46.724   3.906  15.801  0.00  0.00    +0.000 NA
ATOM     15  C   UNL     1      47.588   4.282  16.749  0.00  0.00    +0.000 A 
ATOM     16  C   UNL     1      48.452   5.314  16.326  0.00  0.00    +0.000 A 
ATOM     17  C   UNL     1      49.526   6.041  16.856  0.00  0.00    +0.000 A 
ATOM     18  C   UNL     1      50.111   7.001  16.030  0.00  0.00    +0.000 A 
ATOM     19  C   UNL     1      49.608   7.191  14.747  0.00  0.00    +0.000 A 
ATOM     20  N   UNL     1      48.578   6.513  14.192  0.00  0.00    +0.000 NA
ATOM     21  C   UNL     1      48.049   5.593  15.028  0.00  0.00    +0.000 A 
ENDBRANCH  12  13
ENDBRANCH   4  12
TORSDOF 5
ENDMDL
MODEL 5
REMARK VINA RESULT:    -5.773      5.247      7.578
REMARK INTER + INTRA:          -7.663
REMARK INTER:                  -7.254
REMARK INTRA:                  -0.409
REMARK UNBOUND:                -0.371
REMARK  Name = 
REMARK  5 active torsions:
REMARK  status: ('A' for Active; 'I' for Inactive)
REMARK    1  A    between atoms: N_1  and  C_2
REMARK    2  A    between atoms: C_2  and  C_3
REMARK    3  A    between atoms: C_3  and  N_4
REMARK    4  A    between atoms: C_7  and  C_8
REMARK    5  A    between atoms: C_8  and  N_9
REMARK                            x       y       z     vdW  Elec       q    Type
REMARK                         _______ _______ _______ _____ _____    ______ ____
ROOT
ATOM      1  N   UNL     1      49.718   3.602  17.849  0.00  0.00    +0.000 NA
ATOM      2  C   UNL     1      49.671   4.779  16.965  0.00  0.00    +0.000 C 
ATOM      3  C   UNL     1      48.275   5.396  16.924  0.00  0.00    +0.000 C 
ATOM      4  C   UNL     1      47.225   4.392  16.444  0.00  0.00    +0.000 C 
ATOM      5  C   UNL     1      47.288   3.179  17.388  0.00  0.00    +0.000 C 
ATOM      6  C   UNL     1      48.705   2.594  17.492  0.00  0.00    +0.000 C 
ENDROOT
BRANCH   1   7
ATOM      7  C   UNL     1      51.064   2.980  17.843  0.00  0.00    +0.000 C 
BRANCH   7   8
ATOM      8  C   UNL     1      51.121   1.610  17.131  0.00  0.00    +0.000 C 
BRANCH   8   9
ATOM      9  N   UNL     1      51.590   0.544  18.022  0.00  0.00    +0.000 NA
ATOM     10  H   UNL     1      51.339  -0.354  17.610  0.00  0.00    +0.000 HD
ATOM     11  H   UNL     1      51.082   0.599  18.903  0.00  0.00    +0.000 HD
ENDBRANCH   8   9
ENDBRANCH   7   8
ENDBRANCH   1   7
BRANCH   4  12
ATOM     12  C   UNL     1      47.408   3.949  14.978  0.00  0.00    +0.000 C 
BRANCH  12  13
ATOM     13  N   UNL     1      47.060   4.949  13.988  0.00  0.00    +0.000 N 
ATOM     14  N   UNL     1      48.022   5.776  13.504  0.00  0.00    +0.000 NA
ATOM     15  C   UNL     1      47.388   6.454  12.541  0.00  0.00    +0.000 A 
ATOM     16  C   UNL     1      46.042   6.061  12.388  0.00  0.00    +0.000 A 
ATOM     17  C   UNL     1      44.963   6.383  11.556  0.00  0.00    +0.000 A 
ATOM     18  C   UNL     1      43.768   5.696  11.771  0.00  0.00    +0.000 A 
ATOM     19  C   UNL     1      43.704   4.746  12.786  0.00  0.00    +0.000 A 
ATOM     20  N   UNL     1      44.718   4.400  13.611  0.00  0.00    +0.000 NA
ATOM     21  C   UNL     1      45.853   5.088  13.359  0.00  0.00    +0.000 A 
ENDBRANCH  12  13
ENDBRANCH   4  12
TORSDOF 5
ENDMDL
MODEL 6
REMARK VINA RESULT:    -5.747      5.389      7.601
REMARK INTER + INTRA:          -7.630
REMARK INTER:                  -7.093
REMARK INTRA:                  -0.536
REMARK UNBOUND:                -0.371
REMARK  Name = 
REMARK  5 active torsions:
REMARK  status: ('A' for Active; 'I' for Inactive)
REMARK    1  A    between atoms: N_1  and  C_2
REMARK    2  A    between atoms: C_2  and  C_3
REMARK    3  A    between atoms: C_3  and  N_4
REMARK    4  A    between atoms: C_7  and  C_8
REMARK    5  A    between atoms: C_8  and  N_9
REMARK                            x       y       z     vdW  Elec       q    Type
REMARK                         _______ _______ _______ _____ _____    ______ ____
ROOT
ATOM      1  N   UNL     1      49.770   3.574  17.833  0.00  0.00    +0.000 NA
ATOM      2  C   UNL     1      49.649   4.747  16.952  0.00  0.00    +0.000 C 
ATOM      3  C   UNL     1      48.229   5.305  16.951  0.00  0.00    +0.000 C 
ATOM      4  C   UNL     1      47.208   4.259  16.497  0.00  0.00    +0.000 C 
ATOM      5  C   UNL     1      47.348   3.049  17.437  0.00  0.00    +0.000 C 
ATOM      6  C   UNL     1      48.790   2.523  17.503  0.00  0.00    +0.000 C 
ENDROOT
BRANCH   1   7
ATOM      7  C   UNL     1      51.140   3.008  17.789  0.00  0.00    +0.000 C 
BRANCH   7   8
ATOM      8  C   UNL     1      51.220   1.599  17.160  0.00  0.00    +0.000 C 
BRANCH   8   9
ATOM      9  N   UNL     1      51.811   0.618  18.075  0.00  0.00    +0.000 NA
ATOM     10  H   UNL     1      51.330  -0.272  17.949  0.00  0.00    +0.000 HD
ATOM     11  H   UNL     1      51.625   0.904  19.036  0.00  0.00    +0.000 HD
ENDBRANCH   8   9
ENDBRANCH   7   8
ENDBRANCH   1   7
BRANCH   4  12
ATOM     12  C   UNL     1      47.370   3.824  15.027  0.00  0.00    +0.000 C 
BRANCH  12  13
ATOM     13  N   UNL     1      46.748   4.703  14.057  0.00  0.00    +0.000 N 
ATOM     14  N   UNL     1      45.407   4.633  13.849  0.00  0.00    +0.000 NA
ATOM     15  C   UNL     1      45.172   5.651  13.015  0.00  0.00    +0.000 A 
ATOM     16  C   UNL     1      46.335   6.384  12.701  0.00  0.00    +0.000 A 
ATOM     17  C   UNL     1      46.667   7.516  11.945  0.00  0.00    +0.000 A 
ATOM     18  C   UNL     1      48.009   7.901  11.936  0.00  0.00    +0.000 A 
ATOM     19  C   UNL     1      48.935   7.155  12.657  0.00  0.00    +0.000 A 
ATOM     20  N   UNL     1      48.661   6.059  13.402  0.00  0.00    +0.000 NA
ATOM     21  C   UNL     1      47.351   5.730  13.383  0.00  0.00    +0.000 A 
ENDBRANCH  12  13
ENDBRANCH   4  12
TORSDOF 5
ENDMDL
MODEL 7
REMARK VINA RESULT:    -5.144      2.155      6.740
REMARK INTER + INTRA:          -6.869
REMARK INTER:                  -6.437
REMARK INTRA:                  -0.432
REMARK UNBOUND:                -0.371
REMARK  Name = 
REMARK  5 active torsions:
REMARK  status: ('A' for Active; 'I' for Inactive)
REMARK    1  A    between atoms: N_1  and  C_2
REMARK    2  A    between atoms: C_2  and  C_3
REMARK    3  A    between atoms: C_3  and  N_4
REMARK    4  A    between atoms: C_7  and  C_8
REMARK    5  A    between atoms: C_8  and  N_9
REMARK                            x       y       z     vdW  Elec       q    Type
REMARK                         _______ _______ _______ _____ _____    ______ ____
ROOT
ATOM      1  N   UNL     1      43.996   3.021  10.251  0.00  0.00    +0.000 NA
ATOM      2  C   UNL     1      44.993   2.895  11.326  0.00  0.00    +0.000 C 
ATOM      3  C   UNL     1      44.655   3.791  12.514  0.00  0.00    +0.000 C 
ATOM      4  C   UNL     1      44.572   5.264  12.108  0.00  0.00    +0.000 C 
ATOM      5  C   UNL     1      43.519   5.370  10.992  0.00  0.00    +0.000 C 
ATOM      6  C   UNL     1      43.810   4.419   9.822  0.00  0.00    +0.000 C 
ENDROOT
BRANCH   1   7
ATOM      7  C   UNL     1      44.359   2.186   9.081  0.00  0.00    +0.000 C 
BRANCH   7   8
ATOM      8  C   UNL     1      45.845   2.288   8.670  0.00  0.00    +0.000 C 
BRANCH   8   9
ATOM      9  N   UNL     1      46.023   3.025   7.416  0.00  0.00    +0.000 NA
ATOM     10  H   UNL     1      45.785   4.003   7.580  0.00  0.00    +0.000 HD
ATOM     11  H   UNL     1      45.349   2.685   6.731  0.00  0.00    +0.000 HD
ENDBRANCH   8   9
ENDBRANCH   7   8
ENDBRANCH   1   7
BRANCH   4  12
ATOM     12  C   UNL     1      45.915   5.862  11.645  0.00  0.00    +0.000 C 
BRANCH  12  13
ATOM     13  N   UNL     1      46.297   7.095  12.305  0.00  0.00    +0.000 N 
ATOM     14  N   UNL     1      45.574   8.224  12.089  0.00  0.00    +0.000 NA
ATOM     15  C   UNL     1      46.115   9.102  12.940  0.00  0.00    +0.000 A 
ATOM     16  C   UNL     1      47.159   8.549  13.711  0.00  0.00    +0.000 A 
ATOM     17  C   UNL     1      48.018   8.969  14.734  0.00  0.00    +0.000 A 
ATOM     18  C   UNL     1      48.926   8.030  15.226  0.00  0.00    +0.000 A 
ATOM     19  C   UNL     1      48.938   6.749  14.683  0.00  0.00    +0.000 A 
ATOM     20  N   UNL     1      48.128   6.298  13.699  0.00  0.00    +0.000 NA
ATOM     21  C   UNL     1      47.266   7.241  13.261  0.00  0.00    +0.000 A 
ENDBRANCH  12  13
ENDBRANCH   4  12
TORSDOF 5
ENDMDL
MODEL 8
REMARK VINA RESULT:    -4.817      1.659      6.676
REMARK INTER + INTRA:          -6.455
REMARK INTER:                  -6.066
REMARK INTRA:                  -0.389
REMARK UNBOUND:                -0.371
REMARK  Name = 
REMARK  5 active torsions:
REMARK  status: ('A' for Active; 'I' for Inactive)
REMARK    1  A    between atoms: N_1  and  C_2
REMARK    2  A    between atoms: C_2  and  C_3
REMARK    3  A    between atoms: C_3  and  N_4
REMARK    4  A    between atoms: C_7  and  C_8
REMARK    5  A    between atoms: C_8  and  N_9
REMARK                            x       y       z     vdW  Elec       q    Type
REMARK                         _______ _______ _______ _____ _____    ______ ____
ROOT
ATOM      1  N   UNL     1      44.210   3.005  10.365  0.00  0.00    +0.000 NA
ATOM      2  C   UNL     1      45.356   3.097  11.285  0.00  0.00    +0.000 C 
ATOM      3  C   UNL     1      45.056   4.015  12.467  0.00  0.00    +0.000 C 
ATOM      4  C   UNL     1      44.695   5.430  12.009  0.00  0.00    +0.000 C 
ATOM      5  C   UNL     1      43.492   5.308  11.058  0.00  0.00    +0.000 C 
ATOM      6  C   UNL     1      43.757   4.330   9.904  0.00  0.00    +0.000 C 
ENDROOT
BRANCH   1   7
ATOM      7  C   UNL     1      44.528   2.152   9.195  0.00  0.00    +0.000 C 
BRANCH   7   8
ATOM      8  C   UNL     1      45.944   2.376   8.618  0.00  0.00    +0.000 C 
BRANCH   8   9
ATOM      9  N   UNL     1      45.916   3.137   7.366  0.00  0.00    +0.000 NA
ATOM     10  H   UNL     1      45.624   4.092   7.574  0.00  0.00    +0.000 HD
ATOM     11  H   UNL     1      45.195   2.751   6.757  0.00  0.00    +0.000 HD
ENDBRANCH   8   9
ENDBRANCH   7   8
ENDBRANCH   1   7
BRANCH   4  12
ATOM     12  C   UNL     1      45.854   6.180  11.323  0.00  0.00    +0.000 C 
BRANCH  12  13
ATOM     13  N   UNL     1      46.121   7.505  11.847  0.00  0.00    +0.000 N 
ATOM     14  N   UNL     1      47.267   7.734  12.540  0.00  0.00    +0.000 NA
ATOM     15  C   UNL     1      47.243   9.055  12.745  0.00  0.00    +0.000 A 
ATOM     16  C   UNL     1      46.111   9.678  12.179  0.00  0.00    +0.000 A 
ATOM     17  C   UNL     1      45.605  10.978  12.054  0.00  0.00    +0.000 A 
ATOM     18  C   UNL     1      44.399  11.127  11.367  0.00  0.00    +0.000 A 
ATOM     19  C   UNL     1      43.767   9.999  10.853  0.00  0.00    +0.000 A 
ATOM     20  N   UNL     1      44.218   8.727  10.946  0.00  0.00    +0.000 NA
ATOM     21  C   UNL     1      45.388   8.637  11.614  0.00  0.00    +0.000 A 
ENDBRANCH  12  13
ENDBRANCH   4  12
TORSDOF 5
ENDMDL
MODEL 9
REMARK VINA RESULT:    -4.659      5.750      8.616
REMARK INTER + INTRA:          -6.256
REMARK INTER:                  -5.751
REMARK INTRA:                  -0.506
REMARK UNBOUND:                -0.371
REMARK  Name = 
REMARK  5 active torsions:
REMARK  status: ('A' for Active; 'I' for Inactive)
REMARK    1  A    between atoms: N_1  and  C_2
REMARK    2  A    between atoms: C_2  and  C_3
REMARK    3  A    between atoms: C_3  and  N_4
REMARK    4  A    between atoms: C_7  and  C_8
REMARK    5  A    between atoms: C_8  and  N_9
REMARK                            x       y       z     vdW  Elec       q    Type
REMARK                         _______ _______ _______ _____ _____    ______ ____
ROOT
ATOM      1  N   UNL     1      49.909   3.503  17.652  0.00  0.00    +0.000 NA
ATOM      2  C   UNL     1      51.035   4.428  17.439  0.00  0.00    +0.000 C 
ATOM      3  C   UNL     1      50.684   5.849  17.871  0.00  0.00    +0.000 C 
ATOM      4  C   UNL     1      49.470   6.389  17.113  0.00  0.00    +0.000 C 
ATOM      5  C   UNL     1      48.307   5.412  17.358  0.00  0.00    +0.000 C 
ATOM      6  C   UNL     1      48.674   3.965  16.994  0.00  0.00    +0.000 C 
ENDROOT
BRANCH   1   7
ATOM      7  C   UNL     1      50.242   2.136  17.183  0.00  0.00    +0.000 C 
BRANCH   7   8
ATOM      8  C   UNL     1      51.666   1.669  17.560  0.00  0.00    +0.000 C 
BRANCH   8   9
ATOM      9  N   UNL     1      51.677   0.302  18.087  0.00  0.00    +0.000 NA
ATOM     10  H   UNL     1      52.567   0.145  18.560  0.00  0.00    +0.000 HD
ATOM     11  H   UNL     1      51.655  -0.356  17.309  0.00  0.00    +0.000 HD
ENDBRANCH   8   9
ENDBRANCH   7   8
ENDBRANCH   1   7
BRANCH   4  12
ATOM     12  C   UNL     1      49.710   6.578  15.602  0.00  0.00    +0.000 C 
BRANCH  12  13
ATOM     13  N   UNL     1      48.636   7.242  14.890  0.00  0.00    +0.000 N 
ATOM     14  N   UNL     1      48.536   8.596  14.936  0.00  0.00    +0.000 NA
ATOM     15  C   UNL     1      47.544   8.860  14.080  0.00  0.00    +0.000 A 
ATOM     16  C   UNL     1      47.020   7.700  13.472  0.00  0.00    +0.000 A 
ATOM     17  C   UNL     1      46.044   7.389  12.516  0.00  0.00    +0.000 A 
ATOM     18  C   UNL     1      45.872   6.041  12.200  0.00  0.00    +0.000 A 
ATOM     19  C   UNL     1      46.657   5.088  12.842  0.00  0.00    +0.000 A 
ATOM     20  N   UNL     1      47.610   5.340  13.768  0.00  0.00    +0.000 NA
ATOM     21  C   UNL     1      47.742   6.658  14.034  0.00  0.00    +0.000 A 
ENDBRANCH  12  13
ENDBRANCH   4  12
TORSDOF 5
ENDMDL
