MODEL 1
REMARK VINA RESULT:    -8.182      0.000      0.000
REMARK INTER + INTRA:         -11.354
REMARK INTER:                 -10.574
REMARK INTRA:                  -0.780
REMARK UNBOUND:                -0.780
REMARK  Name = 
REMARK  5 active torsions:
REMARK  status: ('A' for Active; 'I' for Inactive)
REMARK    1  A    between atoms: C_2  and  C_4
REMARK    2  A    between atoms: C_7  and  O_8
REMARK    3  A    between atoms: O_8  and  C_9
REMARK    4  A    between atoms: C_9  and  C_10
REMARK    5  A    between atoms: C_14  and  C_15
REMARK                            x       y       z     vdW  Elec       q    Type
REMARK                         _______ _______ _______ _____ _____    ______ ____
ROOT
ATOM      1  C   UNL     1      43.845   4.906  11.372  0.00  0.00    +0.000 C 
ATOM      2  C   UNL     1      42.513   5.135  12.072  0.00  0.00    +0.000 C 
ATOM      3  C   UNL     1      42.972   6.090  11.019  0.00  0.00    +0.000 C 
ENDROOT
BRANCH   1   4
ATOM      4  C   UNL     1      45.128   5.087  12.163  0.00  0.00    +0.000 A 
ATOM      5  C   UNL     1      45.602   4.060  12.994  0.00  0.00    +0.000 A 
ATOM      6  C   UNL     1      46.836   4.158  13.634  0.00  0.00    +0.000 A 
ATOM      7  C   UNL     1      47.634   5.284  13.441  0.00  0.00    +0.000 A 
ATOM      8  C   UNL     1      47.215   6.340  12.617  0.00  0.00    +0.000 A 
ATOM      9  C   UNL     1      45.942   6.230  12.020  0.00  0.00    +0.000 A 
BRANCH   8  10
ATOM     10  C   UNL     1      48.106   7.474  12.318  0.00  0.00    +0.000 A 
ATOM     11  C   UNL     1      49.479   7.326  12.149  0.00  0.00    +0.000 A 
ATOM     12  N   UNL     1      50.335   8.322  11.828  0.00  0.00    +0.000 NA
ATOM     13  C   UNL     1      49.778   9.527  11.662  0.00  0.00    +0.000 A 
ATOM     14  N   UNL     1      48.477   9.816  11.792  0.00  0.00    +0.000 NA
ATOM     15  C   UNL     1      47.675   8.777  12.121  0.00  0.00    +0.000 A 
ENDBRANCH   8  10
ENDBRANCH   1   4
BRANCH   1  16
ATOM     16  O   UNL     1      43.774   3.714  10.553  0.00  0.00    +0.000 OA
BRANCH  16  20
ATOM     17  C   UNL     1      46.403   2.766   7.611  0.00  0.00    +0.000 A 
ATOM     18  N   UNL     1      46.099   4.084   7.711  0.00  0.00    +0.000 NA
ATOM     19  C   UNL     1      45.246   4.414   8.708  0.00  0.00    +0.000 A 
ATOM     20  C   UNL     1      44.691   3.500   9.575  0.00  0.00    +0.000 A 
ATOM     21  C   UNL     1      45.099   2.194   9.386  0.00  0.00    +0.000 A 
ATOM     22  N   UNL     1      45.947   1.792   8.419  0.00  0.00    +0.000 NA
BRANCH  17  24
ATOM     23  N   UNL     1      47.151   3.117   5.311  0.00  0.00    +0.000 N 
ATOM     24  C   UNL     1      47.286   2.360   6.452  0.00  0.00    +0.000 C 
ATOM     25  O   UNL     1      48.071   1.419   6.483  0.00  0.00    +0.000 OA
ATOM     26  H   UNL     1      47.696   2.873   4.497  0.00  0.00    +0.000 HD
ATOM     27  H   UNL     1      46.494   3.886   5.284  0.00  0.00    +0.000 HD
ENDBRANCH  17  24
ENDBRANCH  16  20
ENDBRANCH   1  16
TORSDOF 5
ENDMDL
MODEL 2
REMARK VINA RESULT:    -8.168      2.352      3.357
REMARK INTER + INTRA:         -11.335
REMARK INTER:                 -10.974
REMARK INTRA:                  -0.361
REMARK UNBOUND:                -0.780
REMARK  Name = 
REMARK  5 active torsions:
REMARK  status: ('A' for Active; 'I' for Inactive)
REMARK    1  A    between atoms: C_2  and  C_4
REMARK    2  A    between atoms: C_7  and  O_8
REMARK    3  A    between atoms: O_8  and  C_9
REMARK    4  A    between atoms: C_9  and  C_10
REMARK    5  A    between atoms: C_14  and  C_15
REMARK                            x       y       z     vdW  Elec       q    Type
REMARK                         _______ _______ _______ _____ _____    ______ ____
ROOT
ATOM      1  C   UNL     1      43.976   5.009  11.408  0.00  0.00    +0.000 C 
ATOM      2  C   UNL     1      42.749   5.128  12.302  0.00  0.00    +0.000 C 
ATOM      3  C   UNL     1      42.911   6.048  11.136  0.00  0.00    +0.000 C 
ENDROOT
BRANCH   1   4
ATOM      4  C   UNL     1      45.331   5.404  11.970  0.00  0.00    +0.000 A 
ATOM      5  C   UNL     1      46.085   6.417  11.360  0.00  0.00    +0.000 A 
ATOM      6  C   UNL     1      47.272   6.877  11.927  0.00  0.00    +0.000 A 
ATOM      7  C   UNL     1      47.722   6.342  13.133  0.00  0.00    +0.000 A 
ATOM      8  C   UNL     1      47.006   5.331  13.793  0.00  0.00    +0.000 A 
ATOM      9  C   UNL     1      45.834   4.856  13.169  0.00  0.00    +0.000 A 
BRANCH   8  10
ATOM     10  C   UNL     1      47.415   4.849  15.123  0.00  0.00    +0.000 A 
ATOM     11  C   UNL     1      48.213   5.600  15.980  0.00  0.00    +0.000 A 
ATOM     12  N   UNL     1      48.579   5.227  17.227  0.00  0.00    +0.000 NA
ATOM     13  C   UNL     1      48.112   4.041  17.633  0.00  0.00    +0.000 A 
ATOM     14  N   UNL     1      47.339   3.214  16.918  0.00  0.00    +0.000 NA
ATOM     15  C   UNL     1      47.013   3.642  15.676  0.00  0.00    +0.000 A 
ENDBRANCH   8  10
ENDBRANCH   1   4
BRANCH   1  16
ATOM     16  O   UNL     1      43.938   3.758  10.680  0.00  0.00    +0.000 OA
BRANCH  16  20
ATOM     17  C   UNL     1      46.397   2.791   7.601  0.00  0.00    +0.000 A 
ATOM     18  N   UNL     1      46.072   4.105   7.689  0.00  0.00    +0.000 NA
ATOM     19  C   UNL     1      45.276   4.441   8.730  0.00  0.00    +0.000 A 
ATOM     20  C   UNL     1      44.796   3.538   9.652  0.00  0.00    +0.000 A 
ATOM     21  C   UNL     1      45.219   2.237   9.467  0.00  0.00    +0.000 A 
ATOM     22  N   UNL     1      46.013   1.828   8.458  0.00  0.00    +0.000 NA
BRANCH  17  24
ATOM     23  N   UNL     1      47.148   3.221   5.316  0.00  0.00    +0.000 N 
ATOM     24  C   UNL     1      47.214   2.375   6.398  0.00  0.00    +0.000 C 
ATOM     25  O   UNL     1      47.890   1.354   6.347  0.00  0.00    +0.000 OA
ATOM     26  H   UNL     1      47.653   2.978   4.475  0.00  0.00    +0.000 HD
ATOM     27  H   UNL     1      46.580   4.058   5.357  0.00  0.00    +0.000 HD
ENDBRANCH  17  24
ENDBRANCH  16  20
ENDBRANCH   1  16
TORSDOF 5
ENDMDL
MODEL 3
REMARK VINA RESULT:    -7.299      3.542      7.203
REMARK INTER + INTRA:         -10.212
REMARK INTER:                  -9.742
REMARK INTRA:                  -0.470
REMARK UNBOUND:                -0.780
REMARK  Name = 
REMARK  5 active torsions:
REMARK  status: ('A' for Active; 'I' for Inactive)
REMARK    1  A    between atoms: C_2  and  C_4
REMARK    2  A    between atoms: C_7  and  O_8
REMARK    3  A    between atoms: O_8  and  C_9
REMARK    4  A    between atoms: C_9  and  C_10
REMARK    5  A    between atoms: C_14  and  C_15
REMARK                            x       y       z     vdW  Elec       q    Type
REMARK                         _______ _______ _______ _____ _____    ______ ____
ROOT
ATOM      1  C   UNL     1      46.201   7.218  12.399  0.00  0.00    +0.000 C 
ATOM      2  C   UNL     1      46.380   8.617  11.827  0.00  0.00    +0.000 C 
ATOM      3  C   UNL     1      45.612   8.426  13.093  0.00  0.00    +0.000 C 
ENDROOT
BRANCH   1   4
ATOM      4  C   UNL     1      45.316   6.232  11.657  0.00  0.00    +0.000 A 
ATOM      5  C   UNL     1      43.920   6.305  11.770  0.00  0.00    +0.000 A 
ATOM      6  C   UNL     1      43.088   5.490  11.006  0.00  0.00    +0.000 A 
ATOM      7  C   UNL     1      43.638   4.591  10.093  0.00  0.00    +0.000 A 
ATOM      8  C   UNL     1      45.028   4.479   9.932  0.00  0.00    +0.000 A 
ATOM      9  C   UNL     1      45.842   5.285  10.753  0.00  0.00    +0.000 A 
BRANCH   8  10
ATOM     10  C   UNL     1      45.607   3.618   8.887  0.00  0.00    +0.000 A 
ATOM     11  C   UNL     1      46.238   4.130   7.757  0.00  0.00    +0.000 A 
ATOM     12  N   UNL     1      46.827   3.388   6.792  0.00  0.00    +0.000 NA
ATOM     13  C   UNL     1      46.785   2.064   6.979  0.00  0.00    +0.000 A 
ATOM     14  N   UNL     1      46.213   1.434   8.014  0.00  0.00    +0.000 NA
ATOM     15  C   UNL     1      45.635   2.233   8.941  0.00  0.00    +0.000 A 
ENDBRANCH   8  10
ENDBRANCH   1   4
BRANCH   1  16
ATOM     16  O   UNL     1      47.477   6.702  12.850  0.00  0.00    +0.000 OA
BRANCH  16  20
ATOM     17  C   UNL     1      47.740   4.451  16.216  0.00  0.00    +0.000 A 
ATOM     18  N   UNL     1      46.927   3.953  15.251  0.00  0.00    +0.000 NA
ATOM     19  C   UNL     1      46.856   4.682  14.113  0.00  0.00    +0.000 A 
ATOM     20  C   UNL     1      47.537   5.862  13.915  0.00  0.00    +0.000 A 
ATOM     21  C   UNL     1      48.350   6.248  14.961  0.00  0.00    +0.000 A 
ATOM     22  N   UNL     1      48.475   5.573  16.121  0.00  0.00    +0.000 NA
BRANCH  17  24
ATOM     23  N   UNL     1      46.796   2.742  17.686  0.00  0.00    +0.000 N 
ATOM     24  C   UNL     1      47.771   3.701  17.529  0.00  0.00    +0.000 C 
ATOM     25  O   UNL     1      48.581   3.913  18.422  0.00  0.00    +0.000 OA
ATOM     26  H   UNL     1      46.753   2.229  18.555  0.00  0.00    +0.000 HD
ATOM     27  H   UNL     1      46.121   2.576  16.951  0.00  0.00    +0.000 HD
ENDBRANCH  17  24
ENDBRANCH  16  20
ENDBRANCH   1  16
TORSDOF 5
ENDMDL
MODEL 4
REMARK VINA RESULT:    -6.275      3.757      5.918
REMARK INTER + INTRA:          -8.889
REMARK INTER:                  -8.500
REMARK INTRA:                  -0.390
REMARK UNBOUND:                -0.780
REMARK  Name = 
REMARK  5 active torsions:
REMARK  status: ('A' for Active; 'I' for Inactive)
REMARK    1  A    between atoms: C_2  and  C_4
REMARK    2  A    between atoms: C_7  and  O_8
REMARK    3  A    between atoms: O_8  and  C_9
REMARK    4  A    between atoms: C_9  and  C_10
REMARK    5  A    between atoms: C_14  and  C_15
REMARK                            x       y       z     vdW  Elec       q    Type
REMARK                         _______ _______ _______ _____ _____    ______ ____
ROOT
ATOM      1  C   UNL     1      48.023   8.020  12.523  0.00  0.00    +0.000 C 
ATOM      2  C   UNL     1      48.791   9.057  11.717  0.00  0.00    +0.000 C 
ATOM      3  C   UNL     1      49.014   7.603  11.458  0.00  0.00    +0.000 C 
ENDROOT
BRANCH   1   4
ATOM      4  C   UNL     1      48.344   7.856  13.998  0.00  0.00    +0.000 A 
ATOM      5  C   UNL     1      48.549   8.981  14.810  0.00  0.00    +0.000 A 
ATOM      6  C   UNL     1      48.725   8.858  16.187  0.00  0.00    +0.000 A 
ATOM      7  C   UNL     1      48.680   7.601  16.787  0.00  0.00    +0.000 A 
ATOM      8  C   UNL     1      48.471   6.439  16.026  0.00  0.00    +0.000 A 
ATOM      9  C   UNL     1      48.343   6.594  14.630  0.00  0.00    +0.000 A 
BRANCH   8  10
ATOM     10  C   UNL     1      48.306   5.125  16.669  0.00  0.00    +0.000 A 
ATOM     11  C   UNL     1      49.306   4.533  17.434  0.00  0.00    +0.000 A 
ATOM     12  N   UNL     1      49.191   3.353  18.084  0.00  0.00    +0.000 NA
ATOM     13  C   UNL     1      48.007   2.743  17.963  0.00  0.00    +0.000 A 
ATOM     14  N   UNL     1      46.958   3.193  17.262  0.00  0.00    +0.000 NA
ATOM     15  C   UNL     1      47.140   4.376  16.629  0.00  0.00    +0.000 A 
ENDBRANCH   8  10
ENDBRANCH   1   4
BRANCH   1  16
ATOM     16  O   UNL     1      46.616   8.077  12.188  0.00  0.00    +0.000 OA
BRANCH  16  20
ATOM     17  C   UNL     1      44.665   4.576  11.552  0.00  0.00    +0.000 A 
ATOM     18  N   UNL     1      44.560   5.075  12.809  0.00  0.00    +0.000 NA
ATOM     19  C   UNL     1      45.183   6.257  13.022  0.00  0.00    +0.000 A 
ATOM     20  C   UNL     1      45.896   6.932  12.058  0.00  0.00    +0.000 A 
ATOM     21  C   UNL     1      45.906   6.335  10.814  0.00  0.00    +0.000 A 
ATOM     22  N   UNL     1      45.306   5.163  10.526  0.00  0.00    +0.000 NA
BRANCH  17  24
ATOM     23  N   UNL     1      43.802   2.469  12.438  0.00  0.00    +0.000 N 
ATOM     24  C   UNL     1      44.050   3.215  11.310  0.00  0.00    +0.000 C 
ATOM     25  O   UNL     1      43.791   2.766  10.200  0.00  0.00    +0.000 OA
ATOM     26  H   UNL     1      43.417   1.541  12.334  0.00  0.00    +0.000 HD
ATOM     27  H   UNL     1      44.028   2.837  13.354  0.00  0.00    +0.000 HD
ENDBRANCH  17  24
ENDBRANCH  16  20
ENDBRANCH   1  16
TORSDOF 5
ENDMDL
MODEL 5
REMARK VINA RESULT:    -6.215      4.340      8.248
REMARK INTER + INTRA:          -8.811
REMARK INTER:                  -8.313
REMARK INTRA:                  -0.498
REMARK UNBOUND:                -0.780
REMARK  Name = 
REMARK  5 active torsions:
REMARK  status: ('A' for Active; 'I' for Inactive)
REMARK    1  A    between atoms: C_2  and  C_4
REMARK    2  A    between atoms: C_7  and  O_8
REMARK    3  A    between atoms: O_8  and  C_9
REMARK    4  A    between atoms: C_9  and  C_10
REMARK    5  A    between atoms: C_14  and  C_15
REMARK                            x       y       z     vdW  Elec       q    Type
REMARK                         _______ _______ _______ _____ _____    ______ ____
ROOT
ATOM      1  C   UNL     1      48.544   7.489  13.571  0.00  0.00    +0.000 C 
ATOM      2  C   UNL     1      49.677   8.096  12.754  0.00  0.00    +0.000 C 
ATOM      3  C   UNL     1      49.130   8.838  13.929  0.00  0.00    +0.000 C 
ENDROOT
BRANCH   1   4
ATOM      4  C   UNL     1      47.168   7.376  12.940  0.00  0.00    +0.000 A 
ATOM      5  C   UNL     1      46.245   8.427  13.054  0.00  0.00    +0.000 A 
ATOM      6  C   UNL     1      45.024   8.394  12.382  0.00  0.00    +0.000 A 
ATOM      7  C   UNL     1      44.707   7.311  11.564  0.00  0.00    +0.000 A 
ATOM      8  C   UNL     1      45.593   6.234  11.407  0.00  0.00    +0.000 A 
ATOM      9  C   UNL     1      46.800   6.277  12.136  0.00  0.00    +0.000 A 
BRANCH   8  10
ATOM     10  C   UNL     1      45.312   5.147  10.454  0.00  0.00    +0.000 A 
ATOM     11  C   UNL     1      44.547   4.034  10.788  0.00  0.00    +0.000 A 
ATOM     12  N   UNL     1      44.219   3.033   9.941  0.00  0.00    +0.000 NA
ATOM     13  C   UNL     1      44.680   3.163   8.692  0.00  0.00    +0.000 A 
ATOM     14  N   UNL     1      45.427   4.175   8.231  0.00  0.00    +0.000 NA
ATOM     15  C   UNL     1      45.726   5.142   9.130  0.00  0.00    +0.000 A 
ENDBRANCH   8  10
ENDBRANCH   1   4
BRANCH   1  16
ATOM     16  O   UNL     1      49.015   6.312  14.270  0.00  0.00    +0.000 OA
BRANCH  16  20
ATOM     17  C   UNL     1      48.239   5.560  18.181  0.00  0.00    +0.000 A 
ATOM     18  N   UNL     1      49.064   6.611  17.949  0.00  0.00    +0.000 NA
ATOM     19  C   UNL     1      49.305   6.887  16.646  0.00  0.00    +0.000 A 
ATOM     20  C   UNL     1      48.778   6.166  15.599  0.00  0.00    +0.000 A 
ATOM     21  C   UNL     1      47.933   5.138  15.966  0.00  0.00    +0.000 A 
ATOM     22  N   UNL     1      47.643   4.806  17.240  0.00  0.00    +0.000 NA
BRANCH  17  24
ATOM     23  N   UNL     1      48.457   3.919  19.979  0.00  0.00    +0.000 N 
ATOM     24  C   UNL     1      48.021   5.176  19.628  0.00  0.00    +0.000 C 
ATOM     25  O   UNL     1      47.485   5.901  20.458  0.00  0.00    +0.000 OA
ATOM     26  H   UNL     1      48.312   3.600  20.926  0.00  0.00    +0.000 HD
ATOM     27  H   UNL     1      48.889   3.318  19.289  0.00  0.00    +0.000 HD
ENDBRANCH  17  24
ENDBRANCH  16  20
ENDBRANCH   1  16
TORSDOF 5
ENDMDL
MODEL 6
REMARK VINA RESULT:    -5.653      5.021      8.182
REMARK INTER + INTRA:          -8.086
REMARK INTER:                  -7.475
REMARK INTRA:                  -0.611
REMARK UNBOUND:                -0.780
REMARK  Name = 
REMARK  5 active torsions:
REMARK  status: ('A' for Active; 'I' for Inactive)
REMARK    1  A    between atoms: C_2  and  C_4
REMARK    2  A    between atoms: C_7  and  O_8
REMARK    3  A    between atoms: O_8  and  C_9
REMARK    4  A    between atoms: C_9  and  C_10
REMARK    5  A    between atoms: C_14  and  C_15
REMARK                            x       y       z     vdW  Elec       q    Type
REMARK                         _______ _______ _______ _____ _____    ______ ____
ROOT
ATOM      1  C   UNL     1      49.085   8.522  16.842  0.00  0.00    +0.000 C 
ATOM      2  C   UNL     1      49.112  10.012  17.153  0.00  0.00    +0.000 C 
ATOM      3  C   UNL     1      47.886   9.213  17.453  0.00  0.00    +0.000 C 
ENDROOT
BRANCH   1   4
ATOM      4  C   UNL     1      49.077   8.078  15.390  0.00  0.00    +0.000 A 
ATOM      5  C   UNL     1      50.157   8.382  14.547  0.00  0.00    +0.000 A 
ATOM      6  C   UNL     1      50.225   7.883  13.248  0.00  0.00    +0.000 A 
ATOM      7  C   UNL     1      49.217   7.049  12.768  0.00  0.00    +0.000 A 
ATOM      8  C   UNL     1      48.115   6.706  13.567  0.00  0.00    +0.000 A 
ATOM      9  C   UNL     1      48.054   7.265  14.860  0.00  0.00    +0.000 A 
BRANCH   8  10
ATOM     10  C   UNL     1      47.110   5.733  13.104  0.00  0.00    +0.000 A 
ATOM     11  C   UNL     1      46.289   5.967  12.006  0.00  0.00    +0.000 A 
ATOM     12  N   UNL     1      45.386   5.092  11.511  0.00  0.00    +0.000 NA
ATOM     13  C   UNL     1      45.311   3.919  12.150  0.00  0.00    +0.000 A 
ATOM     14  N   UNL     1      46.035   3.558  13.218  0.00  0.00    +0.000 NA
ATOM     15  C   UNL     1      46.916   4.481  13.668  0.00  0.00    +0.000 A 
ENDBRANCH   8  10
ENDBRANCH   1   4
BRANCH   1  16
ATOM     16  O   UNL     1      50.008   7.820  17.709  0.00  0.00    +0.000 OA
BRANCH  16  20
ATOM     17  C   UNL     1      50.151   3.783  17.318  0.00  0.00    +0.000 A 
ATOM     18  N   UNL     1      51.314   4.430  17.056  0.00  0.00    +0.000 NA
ATOM     19  C   UNL     1      51.284   5.774  17.212  0.00  0.00    +0.000 A 
ATOM     20  C   UNL     1      50.164   6.475  17.597  0.00  0.00    +0.000 A 
ATOM     21  C   UNL     1      49.052   5.701  17.859  0.00  0.00    +0.000 A 
ATOM     22  N   UNL     1      49.008   4.360  17.729  0.00  0.00    +0.000 NA
BRANCH  17  24
ATOM     23  N   UNL     1      50.981   1.549  17.858  0.00  0.00    +0.000 N 
ATOM     24  C   UNL     1      50.134   2.292  17.068  0.00  0.00    +0.000 C 
ATOM     25  O   UNL     1      49.439   1.745  16.219  0.00  0.00    +0.000 OA
ATOM     26  H   UNL     1      51.031   0.551  17.715  0.00  0.00    +0.000 HD
ATOM     27  H   UNL     1      51.562   2.004  18.550  0.00  0.00    +0.000 HD
ENDBRANCH  17  24
ENDBRANCH  16  20
ENDBRANCH   1  16
TORSDOF 5
ENDMDL
MODEL 7
REMARK VINA RESULT:    -5.549      4.141      6.057
REMARK INTER + INTRA:          -7.951
REMARK INTER:                  -7.682
REMARK INTRA:                  -0.269
REMARK UNBOUND:                -0.780
REMARK  Name = 
REMARK  5 active torsions:
REMARK  status: ('A' for Active; 'I' for Inactive)
REMARK    1  A    between atoms: C_2  and  C_4
REMARK    2  A    between atoms: C_7  and  O_8
REMARK    3  A    between atoms: O_8  and  C_9
REMARK    4  A    between atoms: C_9  and  C_10
REMARK    5  A    between atoms: C_14  and  C_15
REMARK                            x       y       z     vdW  Elec       q    Type
REMARK                         _______ _______ _______ _____ _____    ______ ____
ROOT
ATOM      1  C   UNL     1      48.155   7.770  12.952  0.00  0.00    +0.000 C 
ATOM      2  C   UNL     1      48.290   9.072  12.177  0.00  0.00    +0.000 C 
ATOM      3  C   UNL     1      48.582   7.773  11.500  0.00  0.00    +0.000 C 
ENDROOT
BRANCH   1   4
ATOM      4  C   UNL     1      49.149   7.472  14.060  0.00  0.00    +0.000 A 
ATOM      5  C   UNL     1      50.470   7.938  13.975  0.00  0.00    +0.000 A 
ATOM      6  C   UNL     1      51.363   7.780  15.032  0.00  0.00    +0.000 A 
ATOM      7  C   UNL     1      50.947   7.164  16.211  0.00  0.00    +0.000 A 
ATOM      8  C   UNL     1      49.636   6.683  16.357  0.00  0.00    +0.000 A 
ATOM      9  C   UNL     1      48.771   6.818  15.251  0.00  0.00    +0.000 A 
BRANCH   8  10
ATOM     10  C   UNL     1      49.160   6.140  17.641  0.00  0.00    +0.000 A 
ATOM     11  C   UNL     1      49.559   4.897  18.123  0.00  0.00    +0.000 A 
ATOM     12  N   UNL     1      49.191   4.372  19.313  0.00  0.00    +0.000 NA
ATOM     13  C   UNL     1      48.388   5.140  20.058  0.00  0.00    +0.000 A 
ATOM     14  N   UNL     1      47.926   6.352  19.722  0.00  0.00    +0.000 NA
ATOM     15  C   UNL     1      48.325   6.818  18.515  0.00  0.00    +0.000 A 
ENDBRANCH   8  10
ENDBRANCH   1   4
BRANCH   1  16
ATOM     16  O   UNL     1      46.764   7.528  13.273  0.00  0.00    +0.000 OA
BRANCH  16  20
ATOM     17  C   UNL     1      44.834   4.280  11.794  0.00  0.00    +0.000 A 
ATOM     18  N   UNL     1      44.418   5.473  11.299  0.00  0.00    +0.000 NA
ATOM     19  C   UNL     1      45.076   6.560  11.765  0.00  0.00    +0.000 A 
ATOM     20  C   UNL     1      46.095   6.501  12.689  0.00  0.00    +0.000 A 
ATOM     21  C   UNL     1      46.442   5.228  13.094  0.00  0.00    +0.000 A 
ATOM     22  N   UNL     1      45.836   4.101  12.672  0.00  0.00    +0.000 NA
BRANCH  17  24
ATOM     23  N   UNL     1      43.593   2.255  12.371  0.00  0.00    +0.000 N 
ATOM     24  C   UNL     1      44.058   3.058  11.355  0.00  0.00    +0.000 C 
ATOM     25  O   UNL     1      43.850   2.760  10.185  0.00  0.00    +0.000 OA
ATOM     26  H   UNL     1      43.093   1.410  12.135  0.00  0.00    +0.000 HD
ATOM     27  H   UNL     1      43.777   2.497  13.336  0.00  0.00    +0.000 HD
ENDBRANCH  17  24
ENDBRANCH  16  20
ENDBRANCH   1  16
TORSDOF 5
ENDMDL
MODEL 8
REMARK VINA RESULT:    -5.385      2.487      6.758
REMARK INTER + INTRA:          -7.738
REMARK INTER:                  -8.282
REMARK INTRA:                   0.544
REMARK UNBOUND:                -0.780
REMARK  Name = 
REMARK  5 active torsions:
REMARK  status: ('A' for Active; 'I' for Inactive)
REMARK    1  A    between atoms: C_2  and  C_4
REMARK    2  A    between atoms: C_7  and  O_8
REMARK    3  A    between atoms: O_8  and  C_9
REMARK    4  A    between atoms: C_9  and  C_10
REMARK    5  A    between atoms: C_14  and  C_15
REMARK                            x       y       z     vdW  Elec       q    Type
REMARK                         _______ _______ _______ _____ _____    ______ ____
ROOT
ATOM      1  C   UNL     1      44.407   6.119  11.829  0.00  0.00    +0.000 C 
ATOM      2  C   UNL     1      44.754   7.252  10.874  0.00  0.00    +0.000 C 
ATOM      3  C   UNL     1      43.360   7.122  11.395  0.00  0.00    +0.000 C 
ENDROOT
BRANCH   1   4
ATOM      4  C   UNL     1      44.395   4.696  11.300  0.00  0.00    +0.000 A 
ATOM      5  C   UNL     1      43.502   3.750  11.826  0.00  0.00    +0.000 A 
ATOM      6  C   UNL     1      43.391   2.475  11.275  0.00  0.00    +0.000 A 
ATOM      7  C   UNL     1      44.162   2.123  10.168  0.00  0.00    +0.000 A 
ATOM      8  C   UNL     1      45.068   3.030   9.596  0.00  0.00    +0.000 A 
ATOM      9  C   UNL     1      45.190   4.296  10.206  0.00  0.00    +0.000 A 
BRANCH   8  10
ATOM     10  C   UNL     1      45.796   2.703   8.358  0.00  0.00    +0.000 A 
ATOM     11  C   UNL     1      46.038   3.641   7.360  0.00  0.00    +0.000 A 
ATOM     12  N   UNL     1      46.739   3.408   6.228  0.00  0.00    +0.000 NA
ATOM     13  C   UNL     1      47.227   2.169   6.098  0.00  0.00    +0.000 A 
ATOM     14  N   UNL     1      47.073   1.168   6.975  0.00  0.00    +0.000 NA
ATOM     15  C   UNL     1      46.355   1.464   8.084  0.00  0.00    +0.000 A 
ENDBRANCH   8  10
ENDBRANCH   1   4
BRANCH   1  16
ATOM     16  O   UNL     1      45.083   6.314  13.095  0.00  0.00    +0.000 OA
BRANCH  16  20
ATOM     17  C   UNL     1      48.946   7.527  13.362  0.00  0.00    +0.000 A 
ATOM     18  N   UNL     1      48.772   6.202  13.134  0.00  0.00    +0.000 NA
ATOM     19  C   UNL     1      47.488   5.793  13.015  0.00  0.00    +0.000 A 
ATOM     20  C   UNL     1      46.403   6.633  13.123  0.00  0.00    +0.000 A 
ATOM     21  C   UNL     1      46.713   7.962  13.329  0.00  0.00    +0.000 A 
ATOM     22  N   UNL     1      47.965   8.443  13.455  0.00  0.00    +0.000 NA
BRANCH  17  24
ATOM     23  N   UNL     1      50.813   7.933  14.886  0.00  0.00    +0.000 N 
ATOM     24  C   UNL     1      50.367   7.996  13.586  0.00  0.00    +0.000 C 
ATOM     25  O   UNL     1      51.097   8.422  12.699  0.00  0.00    +0.000 OA
ATOM     26  H   UNL     1      51.745   8.259  15.097  0.00  0.00    +0.000 HD
ATOM     27  H   UNL     1      50.204   7.591  15.618  0.00  0.00    +0.000 HD
ENDBRANCH  17  24
ENDBRANCH  16  20
ENDBRANCH   1  16
TORSDOF 5
ENDMDL
MODEL 9
REMARK VINA RESULT:    -5.211      4.034      8.139
REMARK INTER + INTRA:          -7.514
REMARK INTER:                  -7.240
REMARK INTRA:                  -0.274
REMARK UNBOUND:                -0.780
REMARK  Name = 
REMARK  5 active torsions:
REMARK  status: ('A' for Active; 'I' for Inactive)
REMARK    1  A    between atoms: C_2  and  C_4
REMARK    2  A    between atoms: C_7  and  O_8
REMARK    3  A    between atoms: O_8  and  C_9
REMARK    4  A    between atoms: C_9  and  C_10
REMARK    5  A    between atoms: C_14  and  C_15
REMARK                            x       y       z     vdW  Elec       q    Type
REMARK                         _______ _______ _______ _____ _____    ______ ____
ROOT
ATOM      1  C   UNL     1      49.474   8.955  12.542  0.00  0.00    +0.000 C 
ATOM      2  C   UNL     1      50.417   8.125  11.684  0.00  0.00    +0.000 C 
ATOM      3  C   UNL     1      50.156   9.552  11.331  0.00  0.00    +0.000 C 
ENDROOT
BRANCH   1   4
ATOM      4  C   UNL     1      47.991   8.629  12.525  0.00  0.00    +0.000 A 
ATOM      5  C   UNL     1      47.037   9.658  12.503  0.00  0.00    +0.000 A 
ATOM      6  C   UNL     1      45.678   9.381  12.365  0.00  0.00    +0.000 A 
ATOM      7  C   UNL     1      45.244   8.064  12.227  0.00  0.00    +0.000 A 
ATOM      8  C   UNL     1      46.153   6.994  12.236  0.00  0.00    +0.000 A 
ATOM      9  C   UNL     1      47.516   7.304  12.423  0.00  0.00    +0.000 A 
BRANCH   8  10
ATOM     10  C   UNL     1      45.710   5.615  11.972  0.00  0.00    +0.000 A 
ATOM     11  C   UNL     1      45.681   4.634  12.960  0.00  0.00    +0.000 A 
ATOM     12  N   UNL     1      45.241   3.368  12.784  0.00  0.00    +0.000 NA
ATOM     13  C   UNL     1      44.801   3.077  11.555  0.00  0.00    +0.000 A 
ATOM     14  N   UNL     1      44.771   3.917  10.512  0.00  0.00    +0.000 NA
ATOM     15  C   UNL     1      45.232   5.167  10.751  0.00  0.00    +0.000 A 
ENDBRANCH   8  10
ENDBRANCH   1   4
BRANCH   1  16
ATOM     16  O   UNL     1      50.056   9.168  13.851  0.00  0.00    +0.000 OA
BRANCH  16  20
ATOM     17  C   UNL     1      48.812   6.912  16.986  0.00  0.00    +0.000 A 
ATOM     18  N   UNL     1      49.630   6.279  16.109  0.00  0.00    +0.000 NA
ATOM     19  C   UNL     1      50.074   7.032  15.076  0.00  0.00    +0.000 A 
ATOM     20  C   UNL     1      49.729   8.352  14.886  0.00  0.00    +0.000 A 
ATOM     21  C   UNL     1      48.912   8.887  15.861  0.00  0.00    +0.000 A 
ATOM     22  N   UNL     1      48.435   8.201  16.918  0.00  0.00    +0.000 NA
BRANCH  17  24
ATOM     23  N   UNL     1      47.038   6.512  18.618  0.00  0.00    +0.000 N 
ATOM     24  C   UNL     1      48.234   6.070  18.102  0.00  0.00    +0.000 C 
ATOM     25  O   UNL     1      48.770   5.065  18.552  0.00  0.00    +0.000 OA
ATOM     26  H   UNL     1      46.620   6.004  19.384  0.00  0.00    +0.000 HD
ATOM     27  H   UNL     1      46.602   7.350  18.253  0.00  0.00    +0.000 HD
ENDBRANCH  17  24
ENDBRANCH  16  20
ENDBRANCH   1  16
TORSDOF 5
ENDMDL
