MODEL 1
REMARK VINA RESULT:    -9.440      0.000      0.000
REMARK INTER + INTRA:         -14.128
REMARK INTER:                 -13.027
REMARK INTRA:                  -1.101
REMARK UNBOUND:                -1.101
REMARK  Name = 
REMARK  7 active torsions:
REMARK  status: ('A' for Active; 'I' for Inactive)
REMARK    1  A    between atoms: C_2  and  C_22
REMARK    2  A    between atoms: N_3  and  C_4
REMARK    3  A    between atoms: C_4  and  C_5
REMARK    4  A    between atoms: C_8  and  C_9
REMARK    5  A    between atoms: C_9  and  N_10
REMARK    6  A    between atoms: C_11  and  C_13
REMARK    7  A    between atoms: C_16  and  O_17
REMARK                            x       y       z     vdW  Elec       q    Type
REMARK                         _______ _______ _______ _____ _____    ______ ____
ROOT
ATOM      1  C   UNL     1      46.519   7.588  12.852  0.00  0.00    +0.000 A 
ATOM      2  C   UNL     1      45.303   8.147  12.471  0.00  0.00    +0.000 A 
ATOM      3  C   UNL     1      44.422   7.425  11.664  0.00  0.00    +0.000 A 
ATOM      4  C   UNL     1      44.768   6.139  11.247  0.00  0.00    +0.000 A 
ATOM      5  N   UNL     1      45.944   5.568  11.619  0.00  0.00    +0.000 NA
ATOM      6  C   UNL     1      46.784   6.301  12.400  0.00  0.00    +0.000 A 
ENDROOT
BRANCH   1   7
ATOM      7  C   UNL     1      47.470   8.333  13.742  0.00  0.00    +0.000 C 
BRANCH   7  10
ATOM      8  O   UNL     1      49.856   7.011  14.207  0.00  0.00    +0.000 OA
ATOM      9  C   UNL     1      49.026   7.057  15.122  0.00  0.00    +0.000 C 
ATOM     10  N   UNL     1      47.796   7.655  14.969  0.00  0.00    +0.000 N 
ATOM     11  H   UNL     1      47.266   7.902  15.798  0.00  0.00    +0.000 HD
BRANCH   9  12
ATOM     12  C   UNL     1      49.279   6.447  16.423  0.00  0.00    +0.000 A 
ATOM     13  C   UNL     1      50.090   7.024  17.392  0.00  0.00    +0.000 A 
ATOM     14  S   UNL     1      50.189   6.081  18.823  0.00  0.00    +0.000 S 
ATOM     15  C   UNL     1      49.138   4.902  18.188  0.00  0.00    +0.000 A 
ATOM     16  N   UNL     1      48.795   3.794  18.895  0.00  0.00    +0.000 NA
ATOM     17  C   UNL     1      47.961   3.012  18.293  0.00  0.00    +0.000 A 
ATOM     18  N   UNL     1      47.432   3.240  17.050  0.00  0.00    +0.000 N 
ATOM     19  C   UNL     1      47.777   4.305  16.272  0.00  0.00    +0.000 A 
ATOM     20  O   UNL     1      47.380   4.400  15.119  0.00  0.00    +0.000 OA
ATOM     21  C   UNL     1      48.714   5.221  16.913  0.00  0.00    +0.000 A 
ATOM     22  H   UNL     1      46.798   2.580  16.623  0.00  0.00    +0.000 HD
ENDBRANCH   9  12
ENDBRANCH   7  10
ENDBRANCH   1   7
BRANCH   4  23
ATOM     23  C   UNL     1      43.857   5.323  10.345  0.00  0.00    +0.000 C 
BRANCH  23  24
ATOM     24  N   UNL     1      44.537   4.610   9.271  0.00  0.00    +0.000 N 
ATOM     25  C   UNL     1      44.512   3.247   9.178  0.00  0.00    +0.000 C 
ATOM     26  O   UNL     1      43.942   2.542  10.025  0.00  0.00    +0.000 OA
ATOM     27  H   UNL     1      45.179   5.116   8.674  0.00  0.00    +0.000 HD
BRANCH  25  28
ATOM     28  C   UNL     1      45.227   2.666   7.958  0.00  0.00    +0.000 C 
ATOM     29  C   UNL     1      46.066   3.758   7.273  0.00  0.00    +0.000 C 
ATOM     30  C   UNL     1      46.924   3.217   6.137  0.00  0.00    +0.000 C 
ATOM     31  C   UNL     1      47.819   2.083   6.628  0.00  0.00    +0.000 C 
ATOM     32  C   UNL     1      46.983   0.963   7.242  0.00  0.00    +0.000 C 
ATOM     33  C   UNL     1      46.099   1.472   8.377  0.00  0.00    +0.000 C 
BRANCH  31  34
ATOM     34  O   UNL     1      48.594   1.575   5.549  0.00  0.00    +0.000 OA
ATOM     35  H   UNL     1      48.001   1.413   4.795  0.00  0.00    +0.000 HD
ENDBRANCH  31  34
ENDBRANCH  25  28
ENDBRANCH  23  24
ENDBRANCH   4  23
TORSDOF 7
ENDMDL
MODEL 2
REMARK VINA RESULT:    -8.634      1.939      2.274
REMARK INTER + INTRA:         -13.015
REMARK INTER:                 -11.947
REMARK INTRA:                  -1.068
REMARK UNBOUND:                -1.101
REMARK  Name = 
REMARK  7 active torsions:
REMARK  status: ('A' for Active; 'I' for Inactive)
REMARK    1  A    between atoms: C_2  and  C_22
REMARK    2  A    between atoms: N_3  and  C_4
REMARK    3  A    between atoms: C_4  and  C_5
REMARK    4  A    between atoms: C_8  and  C_9
REMARK    5  A    between atoms: C_9  and  N_10
REMARK    6  A    between atoms: C_11  and  C_13
REMARK    7  A    between atoms: C_16  and  O_17
REMARK                            x       y       z     vdW  Elec       q    Type
REMARK                         _______ _______ _______ _____ _____    ______ ____
ROOT
ATOM      1  C   UNL     1      46.972   6.292  13.665  0.00  0.00    +0.000 A 
ATOM      2  C   UNL     1      47.274   4.952  13.890  0.00  0.00    +0.000 A 
ATOM      3  C   UNL     1      46.506   3.951  13.294  0.00  0.00    +0.000 A 
ATOM      4  C   UNL     1      45.437   4.302  12.469  0.00  0.00    +0.000 A 
ATOM      5  N   UNL     1      45.132   5.605  12.225  0.00  0.00    +0.000 NA
ATOM      6  C   UNL     1      45.896   6.557  12.826  0.00  0.00    +0.000 A 
ENDROOT
BRANCH   1   7
ATOM      7  C   UNL     1      47.799   7.387  14.271  0.00  0.00    +0.000 C 
BRANCH   7  10
ATOM      8  O   UNL     1      48.644   7.886  16.858  0.00  0.00    +0.000 OA
ATOM      9  C   UNL     1      49.378   7.217  16.123  0.00  0.00    +0.000 C 
ATOM     10  N   UNL     1      49.062   6.954  14.810  0.00  0.00    +0.000 N 
ATOM     11  H   UNL     1      49.544   6.200  14.331  0.00  0.00    +0.000 HD
BRANCH   9  12
ATOM     12  C   UNL     1      50.656   6.687  16.587  0.00  0.00    +0.000 A 
ATOM     13  C   UNL     1      51.820   7.443  16.651  0.00  0.00    +0.000 A 
ATOM     14  S   UNL     1      53.159   6.551  17.247  0.00  0.00    +0.000 S 
ATOM     15  C   UNL     1      52.212   5.153  17.452  0.00  0.00    +0.000 A 
ATOM     16  N   UNL     1      52.740   3.994  17.926  0.00  0.00    +0.000 NA
ATOM     17  C   UNL     1      51.887   3.033  18.059  0.00  0.00    +0.000 A 
ATOM     18  N   UNL     1      50.551   3.125  17.769  0.00  0.00    +0.000 N 
ATOM     19  C   UNL     1      49.974   4.244  17.244  0.00  0.00    +0.000 A 
ATOM     20  O   UNL     1      48.806   4.239  16.880  0.00  0.00    +0.000 OA
ATOM     21  C   UNL     1      50.899   5.359  17.080  0.00  0.00    +0.000 A 
ATOM     22  H   UNL     1      49.936   2.331  17.877  0.00  0.00    +0.000 HD
ENDBRANCH   9  12
ENDBRANCH   7  10
ENDBRANCH   1   7
BRANCH   4  23
ATOM     23  C   UNL     1      44.552   3.251  11.821  0.00  0.00    +0.000 C 
BRANCH  23  24
ATOM     24  N   UNL     1      45.020   2.770  10.527  0.00  0.00    +0.000 N 
ATOM     25  C   UNL     1      44.655   3.373   9.356  0.00  0.00    +0.000 C 
ATOM     26  O   UNL     1      43.875   4.337   9.329  0.00  0.00    +0.000 OA
ATOM     27  H   UNL     1      45.490   1.875  10.475  0.00  0.00    +0.000 HD
BRANCH  25  28
ATOM     28  C   UNL     1      45.283   2.776   8.096  0.00  0.00    +0.000 C 
ATOM     29  C   UNL     1      46.121   3.844   7.372  0.00  0.00    +0.000 C 
ATOM     30  C   UNL     1      46.897   3.282   6.189  0.00  0.00    +0.000 C 
ATOM     31  C   UNL     1      47.778   2.115   6.625  0.00  0.00    +0.000 C 
ATOM     32  C   UNL     1      46.938   1.019   7.276  0.00  0.00    +0.000 C 
ATOM     33  C   UNL     1      46.135   1.550   8.461  0.00  0.00    +0.000 C 
BRANCH  31  34
ATOM     34  O   UNL     1      48.475   1.589   5.502  0.00  0.00    +0.000 OA
ATOM     35  H   UNL     1      49.421   1.542   5.722  0.00  0.00    +0.000 HD
ENDBRANCH  31  34
ENDBRANCH  25  28
ENDBRANCH  23  24
ENDBRANCH   4  23
TORSDOF 7
ENDMDL
MODEL 3
REMARK VINA RESULT:    -8.631      2.249      2.486
REMARK INTER + INTRA:         -13.012
REMARK INTER:                 -12.075
REMARK INTRA:                  -0.938
REMARK UNBOUND:                -1.101
REMARK  Name = 
REMARK  7 active torsions:
REMARK  status: ('A' for Active; 'I' for Inactive)
REMARK    1  A    between atoms: C_2  and  C_22
REMARK    2  A    between atoms: N_3  and  C_4
REMARK    3  A    between atoms: C_4  and  C_5
REMARK    4  A    between atoms: C_8  and  C_9
REMARK    5  A    between atoms: C_9  and  N_10
REMARK    6  A    between atoms: C_11  and  C_13
REMARK    7  A    between atoms: C_16  and  O_17
REMARK                            x       y       z     vdW  Elec       q    Type
REMARK                         _______ _______ _______ _____ _____    ______ ____
ROOT
ATOM      1  C   UNL     1      46.891   7.872  13.007  0.00  0.00    +0.000 A 
ATOM      2  C   UNL     1      45.651   8.404  12.669  0.00  0.00    +0.000 A 
ATOM      3  C   UNL     1      44.734   7.640  11.946  0.00  0.00    +0.000 A 
ATOM      4  C   UNL     1      45.068   6.338  11.570  0.00  0.00    +0.000 A 
ATOM      5  N   UNL     1      46.269   5.793  11.901  0.00  0.00    +0.000 NA
ATOM      6  C   UNL     1      47.143   6.567  12.601  0.00  0.00    +0.000 A 
ENDROOT
BRANCH   1   7
ATOM      7  C   UNL     1      47.883   8.663  13.808  0.00  0.00    +0.000 C 
BRANCH   7  10
ATOM      8  O   UNL     1      49.515   9.888  15.676  0.00  0.00    +0.000 OA
ATOM      9  C   UNL     1      48.445   9.408  16.062  0.00  0.00    +0.000 C 
ATOM     10  N   UNL     1      47.589   8.743  15.214  0.00  0.00    +0.000 N 
ATOM     11  H   UNL     1      46.626   8.602  15.502  0.00  0.00    +0.000 HD
BRANCH   9  12
ATOM     12  C   UNL     1      48.026   9.482  17.458  0.00  0.00    +0.000 A 
ATOM     13  C   UNL     1      47.588  10.653  18.064  0.00  0.00    +0.000 A 
ATOM     14  S   UNL     1      47.154  10.427  19.709  0.00  0.00    +0.000 S 
ATOM     15  C   UNL     1      47.518   8.767  19.639  0.00  0.00    +0.000 A 
ATOM     16  N   UNL     1      47.380   7.958  20.721  0.00  0.00    +0.000 NA
ATOM     17  C   UNL     1      47.661   6.716  20.499  0.00  0.00    +0.000 A 
ATOM     18  N   UNL     1      48.062   6.207  19.293  0.00  0.00    +0.000 N 
ATOM     19  C   UNL     1      48.268   6.976  18.185  0.00  0.00    +0.000 A 
ATOM     20  O   UNL     1      48.749   6.500  17.167  0.00  0.00    +0.000 OA
ATOM     21  C   UNL     1      47.958   8.387  18.386  0.00  0.00    +0.000 A 
ATOM     22  H   UNL     1      48.286   5.228  19.186  0.00  0.00    +0.000 HD
ENDBRANCH   9  12
ENDBRANCH   7  10
ENDBRANCH   1   7
BRANCH   4  23
ATOM     23  C   UNL     1      44.117   5.476  10.757  0.00  0.00    +0.000 C 
BRANCH  23  24
ATOM     24  N   UNL     1      44.731   4.772   9.639  0.00  0.00    +0.000 N 
ATOM     25  C   UNL     1      44.544   3.434   9.436  0.00  0.00    +0.000 C 
ATOM     26  O   UNL     1      43.874   2.739  10.215  0.00  0.00    +0.000 OA
ATOM     27  H   UNL     1      45.443   5.241   9.093  0.00  0.00    +0.000 HD
BRANCH  25  28
ATOM     28  C   UNL     1      45.213   2.868   8.182  0.00  0.00    +0.000 C 
ATOM     29  C   UNL     1      46.145   3.923   7.564  0.00  0.00    +0.000 C 
ATOM     30  C   UNL     1      46.959   3.379   6.397  0.00  0.00    +0.000 C 
ATOM     31  C   UNL     1      47.751   2.145   6.819  0.00  0.00    +0.000 C 
ATOM     32  C   UNL     1      46.819   1.066   7.364  0.00  0.00    +0.000 C 
ATOM     33  C   UNL     1      45.977   1.580   8.529  0.00  0.00    +0.000 C 
BRANCH  31  34
ATOM     34  O   UNL     1      48.485   1.638   5.711  0.00  0.00    +0.000 OA
ATOM     35  H   UNL     1      49.414   1.535   5.978  0.00  0.00    +0.000 HD
ENDBRANCH  31  34
ENDBRANCH  25  28
ENDBRANCH  23  24
ENDBRANCH   4  23
TORSDOF 7
ENDMDL
MODEL 4
REMARK VINA RESULT:    -8.346      2.498      3.132
REMARK INTER + INTRA:         -12.618
REMARK INTER:                 -11.623
REMARK INTRA:                  -0.995
REMARK UNBOUND:                -1.101
REMARK  Name = 
REMARK  7 active torsions:
REMARK  status: ('A' for Active; 'I' for Inactive)
REMARK    1  A    between atoms: C_2  and  C_22
REMARK    2  A    between atoms: N_3  and  C_4
REMARK    3  A    between atoms: C_4  and  C_5
REMARK    4  A    between atoms: C_8  and  C_9
REMARK    5  A    between atoms: C_9  and  N_10
REMARK    6  A    between atoms: C_11  and  C_13
REMARK    7  A    between atoms: C_16  and  O_17
REMARK                            x       y       z     vdW  Elec       q    Type
REMARK                         _______ _______ _______ _____ _____    ______ ____
ROOT
ATOM      1  C   UNL     1      46.779   4.763  14.741  0.00  0.00    +0.000 A 
ATOM      2  C   UNL     1      47.392   5.890  14.201  0.00  0.00    +0.000 A 
ATOM      3  C   UNL     1      47.003   6.365  12.946  0.00  0.00    +0.000 A 
ATOM      4  C   UNL     1      45.997   5.704  12.242  0.00  0.00    +0.000 A 
ATOM      5  N   UNL     1      45.376   4.609  12.757  0.00  0.00    +0.000 NA
ATOM      6  C   UNL     1      45.781   4.169  13.979  0.00  0.00    +0.000 A 
ENDROOT
BRANCH   1   7
ATOM      7  C   UNL     1      47.158   4.250  16.099  0.00  0.00    +0.000 C 
BRANCH   7  10
ATOM      8  O   UNL     1      48.319   4.699  18.570  0.00  0.00    +0.000 OA
ATOM      9  C   UNL     1      49.056   4.409  17.623  0.00  0.00    +0.000 C 
ATOM     10  N   UNL     1      48.574   4.209  16.350  0.00  0.00    +0.000 N 
ATOM     11  H   UNL     1      49.158   3.724  15.676  0.00  0.00    +0.000 HD
BRANCH   9  12
ATOM     12  C   UNL     1      50.502   4.290  17.781  0.00  0.00    +0.000 A 
ATOM     13  C   UNL     1      51.318   5.346  18.168  0.00  0.00    +0.000 A 
ATOM     14  S   UNL     1      52.972   4.902  18.280  0.00  0.00    +0.000 S 
ATOM     15  C   UNL     1      52.631   3.295  17.838  0.00  0.00    +0.000 A 
ATOM     16  N   UNL     1      53.610   2.360  17.727  0.00  0.00    +0.000 NA
ATOM     17  C   UNL     1      53.188   1.178  17.420  0.00  0.00    +0.000 A 
ATOM     18  N   UNL     1      51.876   0.842  17.218  0.00  0.00    +0.000 N 
ATOM     19  C   UNL     1      50.855   1.746  17.264  0.00  0.00    +0.000 A 
ATOM     20  O   UNL     1      49.716   1.428  16.951  0.00  0.00    +0.000 OA
ATOM     21  C   UNL     1      51.282   3.096  17.615  0.00  0.00    +0.000 A 
ATOM     22  H   UNL     1      51.610  -0.097  16.960  0.00  0.00    +0.000 HD
ENDBRANCH   9  12
ENDBRANCH   7  10
ENDBRANCH   1   7
BRANCH   4  23
ATOM     23  C   UNL     1      45.559   6.163  10.861  0.00  0.00    +0.000 C 
BRANCH  23  24
ATOM     24  N   UNL     1      45.889   5.246   9.777  0.00  0.00    +0.000 N 
ATOM     25  C   UNL     1      44.967   4.384   9.254  0.00  0.00    +0.000 C 
ATOM     26  O   UNL     1      43.812   4.307   9.700  0.00  0.00    +0.000 OA
ATOM     27  H   UNL     1      46.858   5.124   9.514  0.00  0.00    +0.000 HD
BRANCH  25  28
ATOM     28  C   UNL     1      45.464   3.534   8.084  0.00  0.00    +0.000 C 
ATOM     29  C   UNL     1      46.490   4.329   7.258  0.00  0.00    +0.000 C 
ATOM     30  C   UNL     1      47.139   3.494   6.163  0.00  0.00    +0.000 C 
ATOM     31  C   UNL     1      47.779   2.238   6.748  0.00  0.00    +0.000 C 
ATOM     32  C   UNL     1      46.745   1.408   7.505  0.00  0.00    +0.000 C 
ATOM     33  C   UNL     1      46.063   2.219   8.604  0.00  0.00    +0.000 C 
BRANCH  31  34
ATOM     34  O   UNL     1      48.358   1.460   5.707  0.00  0.00    +0.000 OA
ATOM     35  H   UNL     1      48.378   1.996   4.897  0.00  0.00    +0.000 HD
ENDBRANCH  31  34
ENDBRANCH  25  28
ENDBRANCH  23  24
ENDBRANCH   4  23
TORSDOF 7
ENDMDL
MODEL 5
REMARK VINA RESULT:    -8.247      2.134      2.773
REMARK INTER + INTRA:         -12.482
REMARK INTER:                 -11.506
REMARK INTRA:                  -0.976
REMARK UNBOUND:                -1.101
REMARK  Name = 
REMARK  7 active torsions:
REMARK  status: ('A' for Active; 'I' for Inactive)
REMARK    1  A    between atoms: C_2  and  C_22
REMARK    2  A    between atoms: N_3  and  C_4
REMARK    3  A    between atoms: C_4  and  C_5
REMARK    4  A    between atoms: C_8  and  C_9
REMARK    5  A    between atoms: C_9  and  N_10
REMARK    6  A    between atoms: C_11  and  C_13
REMARK    7  A    between atoms: C_16  and  O_17
REMARK                            x       y       z     vdW  Elec       q    Type
REMARK                         _______ _______ _______ _____ _____    ______ ____
ROOT
ATOM      1  C   UNL     1      47.116   6.162  13.687  0.00  0.00    +0.000 A 
ATOM      2  C   UNL     1      47.038   4.859  14.172  0.00  0.00    +0.000 A 
ATOM      3  C   UNL     1      46.214   3.925  13.542  0.00  0.00    +0.000 A 
ATOM      4  C   UNL     1      45.473   4.306  12.423  0.00  0.00    +0.000 A 
ATOM      5  N   UNL     1      45.544   5.569  11.925  0.00  0.00    +0.000 NA
ATOM      6  C   UNL     1      46.352   6.457  12.565  0.00  0.00    +0.000 A 
ENDROOT
BRANCH   1   7
ATOM      7  C   UNL     1      48.016   7.176  14.329  0.00  0.00    +0.000 C 
BRANCH   7  10
ATOM      8  O   UNL     1      50.601   7.214  15.315  0.00  0.00    +0.000 OA
ATOM      9  C   UNL     1      49.680   6.967  16.101  0.00  0.00    +0.000 C 
ATOM     10  N   UNL     1      48.368   6.885  15.694  0.00  0.00    +0.000 N 
ATOM     11  H   UNL     1      47.634   6.946  16.392  0.00  0.00    +0.000 HD
BRANCH   9  12
ATOM     12  C   UNL     1      49.923   6.710  17.517  0.00  0.00    +0.000 A 
ATOM     13  C   UNL     1      50.783   5.720  17.976  0.00  0.00    +0.000 A 
ATOM     14  S   UNL     1      50.874   5.662  19.689  0.00  0.00    +0.000 S 
ATOM     15  C   UNL     1      49.791   6.965  19.849  0.00  0.00    +0.000 A 
ATOM     16  N   UNL     1      49.415   7.438  21.066  0.00  0.00    +0.000 NA
ATOM     17  C   UNL     1      48.617   8.454  21.021  0.00  0.00    +0.000 A 
ATOM     18  N   UNL     1      48.166   9.045  19.872  0.00  0.00    +0.000 N 
ATOM     19  C   UNL     1      48.467   8.585  18.623  0.00  0.00    +0.000 A 
ATOM     20  O   UNL     1      47.939   9.065  17.630  0.00  0.00    +0.000 OA
ATOM     21  C   UNL     1      49.371   7.441  18.622  0.00  0.00    +0.000 A 
ATOM     22  H   UNL     1      47.527   9.827  19.902  0.00  0.00    +0.000 HD
ENDBRANCH   9  12
ENDBRANCH   7  10
ENDBRANCH   1   7
BRANCH   4  23
ATOM     23  C   UNL     1      44.539   3.336  11.720  0.00  0.00    +0.000 C 
BRANCH  23  24
ATOM     24  N   UNL     1      45.026   2.833  10.441  0.00  0.00    +0.000 N 
ATOM     25  C   UNL     1      44.667   3.406   9.254  0.00  0.00    +0.000 C 
ATOM     26  O   UNL     1      43.875   4.360   9.198  0.00  0.00    +0.000 OA
ATOM     27  H   UNL     1      45.508   1.943  10.414  0.00  0.00    +0.000 HD
BRANCH  25  28
ATOM     28  C   UNL     1      45.316   2.791   8.014  0.00  0.00    +0.000 C 
ATOM     29  C   UNL     1      46.156   3.851   7.281  0.00  0.00    +0.000 C 
ATOM     30  C   UNL     1      46.952   3.272   6.119  0.00  0.00    +0.000 C 
ATOM     31  C   UNL     1      47.835   2.119   6.588  0.00  0.00    +0.000 C 
ATOM     32  C   UNL     1      46.994   1.031   7.250  0.00  0.00    +0.000 C 
ATOM     33  C   UNL     1      46.171   1.578   8.413  0.00  0.00    +0.000 C 
BRANCH  31  34
ATOM     34  O   UNL     1      48.551   1.578   5.485  0.00  0.00    +0.000 OA
ATOM     35  H   UNL     1      49.494   1.542   5.718  0.00  0.00    +0.000 HD
ENDBRANCH  31  34
ENDBRANCH  25  28
ENDBRANCH  23  24
ENDBRANCH   4  23
TORSDOF 7
ENDMDL
MODEL 6
REMARK VINA RESULT:    -8.234      1.888      3.317
REMARK INTER + INTRA:         -12.463
REMARK INTER:                 -11.379
REMARK INTRA:                  -1.084
REMARK UNBOUND:                -1.101
REMARK  Name = 
REMARK  7 active torsions:
REMARK  status: ('A' for Active; 'I' for Inactive)
REMARK    1  A    between atoms: C_2  and  C_22
REMARK    2  A    between atoms: N_3  and  C_4
REMARK    3  A    between atoms: C_4  and  C_5
REMARK    4  A    between atoms: C_8  and  C_9
REMARK    5  A    between atoms: C_9  and  N_10
REMARK    6  A    between atoms: C_11  and  C_13
REMARK    7  A    between atoms: C_16  and  O_17
REMARK                            x       y       z     vdW  Elec       q    Type
REMARK                         _______ _______ _______ _____ _____    ______ ____
ROOT
ATOM      1  C   UNL     1      46.789   4.805  14.378  0.00  0.00    +0.000 A 
ATOM      2  C   UNL     1      47.100   5.924  13.610  0.00  0.00    +0.000 A 
ATOM      3  C   UNL     1      46.414   6.168  12.418  0.00  0.00    +0.000 A 
ATOM      4  C   UNL     1      45.415   5.286  12.007  0.00  0.00    +0.000 A 
ATOM      5  N   UNL     1      45.086   4.194  12.748  0.00  0.00    +0.000 NA
ATOM      6  C   UNL     1      45.777   3.981  13.901  0.00  0.00    +0.000 A 
ENDROOT
BRANCH   1   7
ATOM      7  C   UNL     1      47.492   4.536  15.676  0.00  0.00    +0.000 C 
BRANCH   7  10
ATOM      8  O   UNL     1      49.901   4.469  17.035  0.00  0.00    +0.000 OA
ATOM      9  C   UNL     1      49.343   5.562  16.889  0.00  0.00    +0.000 C 
ATOM     10  N   UNL     1      48.124   5.687  16.264  0.00  0.00    +0.000 N 
ATOM     11  H   UNL     1      47.834   6.602  15.935  0.00  0.00    +0.000 HD
BRANCH   9  12
ATOM     12  C   UNL     1      49.926   6.798  17.401  0.00  0.00    +0.000 A 
ATOM     13  C   UNL     1      50.037   7.086  18.756  0.00  0.00    +0.000 A 
ATOM     14  S   UNL     1      50.773   8.607  19.053  0.00  0.00    +0.000 S 
ATOM     15  C   UNL     1      50.977   8.899  17.389  0.00  0.00    +0.000 A 
ATOM     16  N   UNL     1      51.545  10.044  16.928  0.00  0.00    +0.000 NA
ATOM     17  C   UNL     1      51.663  10.102  15.642  0.00  0.00    +0.000 A 
ATOM     18  N   UNL     1      51.272   9.117  14.775  0.00  0.00    +0.000 N 
ATOM     19  C   UNL     1      50.651   7.970  15.173  0.00  0.00    +0.000 A 
ATOM     20  O   UNL     1      50.203   7.178  14.356  0.00  0.00    +0.000 OA
ATOM     21  C   UNL     1      50.500   7.857  16.619  0.00  0.00    +0.000 A 
ATOM     22  H   UNL     1      51.373   9.229  13.776  0.00  0.00    +0.000 HD
ENDBRANCH   9  12
ENDBRANCH   7  10
ENDBRANCH   1   7
BRANCH   4  23
ATOM     23  C   UNL     1      44.660   5.491  10.704  0.00  0.00    +0.000 C 
BRANCH  23  24
ATOM     24  N   UNL     1      45.196   4.759   9.563  0.00  0.00    +0.000 N 
ATOM     25  C   UNL     1      44.744   3.515   9.225  0.00  0.00    +0.000 C 
ATOM     26  O   UNL     1      43.881   2.925   9.894  0.00  0.00    +0.000 OA
ATOM     27  H   UNL     1      46.032   5.101   9.108  0.00  0.00    +0.000 HD
BRANCH  25  28
ATOM     28  C   UNL     1      45.373   2.915   7.967  0.00  0.00    +0.000 C 
ATOM     29  C   UNL     1      46.287   3.952   7.293  0.00  0.00    +0.000 C 
ATOM     30  C   UNL     1      47.064   3.377   6.116  0.00  0.00    +0.000 C 
ATOM     31  C   UNL     1      47.867   2.152   6.545  0.00  0.00    +0.000 C 
ATOM     32  C   UNL     1      46.950   1.090   7.146  0.00  0.00    +0.000 C 
ATOM     33  C   UNL     1      46.145   1.635   8.322  0.00  0.00    +0.000 C 
BRANCH  31  34
ATOM     34  O   UNL     1      48.565   1.615   5.428  0.00  0.00    +0.000 OA
ATOM     35  H   UNL     1      48.121   1.913   4.616  0.00  0.00    +0.000 HD
ENDBRANCH  31  34
ENDBRANCH  25  28
ENDBRANCH  23  24
ENDBRANCH   4  23
TORSDOF 7
ENDMDL
MODEL 7
REMARK VINA RESULT:    -7.948      2.215      2.944
REMARK INTER + INTRA:         -12.069
REMARK INTER:                 -11.234
REMARK INTRA:                  -0.835
REMARK UNBOUND:                -1.101
REMARK  Name = 
REMARK  7 active torsions:
REMARK  status: ('A' for Active; 'I' for Inactive)
REMARK    1  A    between atoms: C_2  and  C_22
REMARK    2  A    between atoms: N_3  and  C_4
REMARK    3  A    between atoms: C_4  and  C_5
REMARK    4  A    between atoms: C_8  and  C_9
REMARK    5  A    between atoms: C_9  and  N_10
REMARK    6  A    between atoms: C_11  and  C_13
REMARK    7  A    between atoms: C_16  and  O_17
REMARK                            x       y       z     vdW  Elec       q    Type
REMARK                         _______ _______ _______ _____ _____    ______ ____
ROOT
ATOM      1  C   UNL     1      47.215   6.973  13.586  0.00  0.00    +0.000 A 
ATOM      2  C   UNL     1      46.970   5.603  13.613  0.00  0.00    +0.000 A 
ATOM      3  C   UNL     1      46.061   5.036  12.718  0.00  0.00    +0.000 A 
ATOM      4  C   UNL     1      45.405   5.851  11.795  0.00  0.00    +0.000 A 
ATOM      5  N   UNL     1      45.639   7.189  11.742  0.00  0.00    +0.000 NA
ATOM      6  C   UNL     1      46.526   7.712  12.632  0.00  0.00    +0.000 A 
ENDROOT
BRANCH   1   7
ATOM      7  C   UNL     1      48.208   7.602  14.518  0.00  0.00    +0.000 C 
BRANCH   7  10
ATOM      8  O   UNL     1      49.421   8.094  16.956  0.00  0.00    +0.000 OA
ATOM      9  C   UNL     1      49.591   6.988  16.432  0.00  0.00    +0.000 C 
ATOM     10  N   UNL     1      49.062   6.668  15.202  0.00  0.00    +0.000 N 
ATOM     11  H   UNL     1      48.999   5.691  14.936  0.00  0.00    +0.000 HD
BRANCH   9  12
ATOM     12  C   UNL     1      50.397   5.950  17.066  0.00  0.00    +0.000 A 
ATOM     13  C   UNL     1      49.858   4.932  17.843  0.00  0.00    +0.000 A 
ATOM     14  S   UNL     1      51.050   3.855  18.447  0.00  0.00    +0.000 S 
ATOM     15  C   UNL     1      52.299   4.709  17.669  0.00  0.00    +0.000 A 
ATOM     16  N   UNL     1      53.599   4.329  17.775  0.00  0.00    +0.000 NA
ATOM     17  C   UNL     1      54.426   5.056  17.097  0.00  0.00    +0.000 A 
ATOM     18  N   UNL     1      54.071   6.125  16.318  0.00  0.00    +0.000 N 
ATOM     19  C   UNL     1      52.792   6.585  16.213  0.00  0.00    +0.000 A 
ATOM     20  O   UNL     1      52.540   7.619  15.610  0.00  0.00    +0.000 OA
ATOM     21  C   UNL     1      51.820   5.791  16.957  0.00  0.00    +0.000 A 
ATOM     22  H   UNL     1      54.767   6.667  15.826  0.00  0.00    +0.000 HD
ENDBRANCH   9  12
ENDBRANCH   7  10
ENDBRANCH   1   7
BRANCH   4  23
ATOM     23  C   UNL     1      44.386   5.287  10.819  0.00  0.00    +0.000 C 
BRANCH  23  24
ATOM     24  N   UNL     1      44.955   4.610   9.661  0.00  0.00    +0.000 N 
ATOM     25  C   UNL     1      44.655   3.312   9.362  0.00  0.00    +0.000 C 
ATOM     26  O   UNL     1      43.912   2.627  10.083  0.00  0.00    +0.000 OA
ATOM     27  H   UNL     1      45.715   5.051   9.158  0.00  0.00    +0.000 HD
BRANCH  25  28
ATOM     28  C   UNL     1      45.293   2.776   8.080  0.00  0.00    +0.000 C 
ATOM     29  C   UNL     1      46.164   3.866   7.433  0.00  0.00    +0.000 C 
ATOM     30  C   UNL     1      46.950   3.357   6.232  0.00  0.00    +0.000 C 
ATOM     31  C   UNL     1      47.799   2.148   6.614  0.00  0.00    +0.000 C 
ATOM     32  C   UNL     1      46.926   1.035   7.188  0.00  0.00    +0.000 C 
ATOM     33  C   UNL     1      46.113   1.513   8.387  0.00  0.00    +0.000 C 
BRANCH  31  34
ATOM     34  O   UNL     1      48.506   1.673   5.475  0.00  0.00    +0.000 OA
ATOM     35  H   UNL     1      47.935   1.046   4.998  0.00  0.00    +0.000 HD
ENDBRANCH  31  34
ENDBRANCH  25  28
ENDBRANCH  23  24
ENDBRANCH   4  23
TORSDOF 7
ENDMDL
MODEL 8
REMARK VINA RESULT:    -7.528      2.798      3.802
REMARK INTER + INTRA:         -11.490
REMARK INTER:                 -10.474
REMARK INTRA:                  -1.016
REMARK UNBOUND:                -1.101
REMARK  Name = 
REMARK  7 active torsions:
REMARK  status: ('A' for Active; 'I' for Inactive)
REMARK    1  A    between atoms: C_2  and  C_22
REMARK    2  A    between atoms: N_3  and  C_4
REMARK    3  A    between atoms: C_4  and  C_5
REMARK    4  A    between atoms: C_8  and  C_9
REMARK    5  A    between atoms: C_9  and  N_10
REMARK    6  A    between atoms: C_11  and  C_13
REMARK    7  A    between atoms: C_16  and  O_17
REMARK                            x       y       z     vdW  Elec       q    Type
REMARK                         _______ _______ _______ _____ _____    ______ ____
ROOT
ATOM      1  C   UNL     1      47.329   5.579  14.285  0.00  0.00    +0.000 A 
ATOM      2  C   UNL     1      47.362   6.441  13.193  0.00  0.00    +0.000 A 
ATOM      3  C   UNL     1      46.451   6.282  12.148  0.00  0.00    +0.000 A 
ATOM      4  C   UNL     1      45.505   5.258  12.208  0.00  0.00    +0.000 A 
ATOM      5  N   UNL     1      45.446   4.413  13.272  0.00  0.00    +0.000 NA
ATOM      6  C   UNL     1      46.352   4.590  14.271  0.00  0.00    +0.000 A 
ENDROOT
BRANCH   1   7
ATOM      7  C   UNL     1      48.279   5.745  15.434  0.00  0.00    +0.000 C 
BRANCH   7  10
ATOM      8  O   UNL     1      48.648   7.968  17.040  0.00  0.00    +0.000 OA
ATOM      9  C   UNL     1      49.432   7.789  16.102  0.00  0.00    +0.000 C 
ATOM     10  N   UNL     1      49.302   6.736  15.226  0.00  0.00    +0.000 N 
ATOM     11  H   UNL     1      50.096   6.477  14.650  0.00  0.00    +0.000 HD
BRANCH   9  12
ATOM     12  C   UNL     1      50.536   8.705  15.835  0.00  0.00    +0.000 A 
ATOM     13  C   UNL     1      50.355  10.040  15.496  0.00  0.00    +0.000 A 
ATOM     14  S   UNL     1      51.838  10.870  15.253  0.00  0.00    +0.000 S 
ATOM     15  C   UNL     1      52.745   9.477  15.616  0.00  0.00    +0.000 A 
ATOM     16  N   UNL     1      54.103   9.479  15.586  0.00  0.00    +0.000 NA
ATOM     17  C   UNL     1      54.647   8.356  15.921  0.00  0.00    +0.000 A 
ATOM     18  N   UNL     1      53.958   7.231  16.289  0.00  0.00    +0.000 N 
ATOM     19  C   UNL     1      52.596   7.152  16.289  0.00  0.00    +0.000 A 
ATOM     20  O   UNL     1      52.026   6.091  16.500  0.00  0.00    +0.000 OA
ATOM     21  C   UNL     1      51.936   8.400  15.922  0.00  0.00    +0.000 A 
ATOM     22  H   UNL     1      54.440   6.375  16.522  0.00  0.00    +0.000 HD
ENDBRANCH   9  12
ENDBRANCH   7  10
ENDBRANCH   1   7
BRANCH   4  23
ATOM     23  C   UNL     1      44.511   5.026  11.083  0.00  0.00    +0.000 C 
BRANCH  23  24
ATOM     24  N   UNL     1      45.071   4.407   9.888  0.00  0.00    +0.000 N 
ATOM     25  C   UNL     1      44.678   3.169   9.463  0.00  0.00    +0.000 C 
ATOM     26  O   UNL     1      43.853   2.489  10.093  0.00  0.00    +0.000 OA
ATOM     27  H   UNL     1      45.884   4.824   9.453  0.00  0.00    +0.000 HD
BRANCH  25  28
ATOM     28  C   UNL     1      45.322   2.695   8.160  0.00  0.00    +0.000 C 
ATOM     29  C   UNL     1      46.167   3.828   7.551  0.00  0.00    +0.000 C 
ATOM     30  C   UNL     1      46.959   3.381   6.330  0.00  0.00    +0.000 C 
ATOM     31  C   UNL     1      47.836   2.178   6.664  0.00  0.00    +0.000 C 
ATOM     32  C   UNL     1      46.990   1.025   7.198  0.00  0.00    +0.000 C 
ATOM     33  C   UNL     1      46.172   1.441   8.418  0.00  0.00    +0.000 C 
BRANCH  31  34
ATOM     34  O   UNL     1      48.548   1.761   5.506  0.00  0.00    +0.000 OA
ATOM     35  H   UNL     1      48.457   2.449   4.824  0.00  0.00    +0.000 HD
ENDBRANCH  31  34
ENDBRANCH  25  28
ENDBRANCH  23  24
ENDBRANCH   4  23
TORSDOF 7
ENDMDL
MODEL 9
REMARK VINA RESULT:    -6.940      3.422      8.993
REMARK INTER + INTRA:         -10.679
REMARK INTER:                  -9.780
REMARK INTRA:                  -0.899
REMARK UNBOUND:                -1.101
REMARK  Name = 
REMARK  7 active torsions:
REMARK  status: ('A' for Active; 'I' for Inactive)
REMARK    1  A    between atoms: C_2  and  C_22
REMARK    2  A    between atoms: N_3  and  C_4
REMARK    3  A    between atoms: C_4  and  C_5
REMARK    4  A    between atoms: C_8  and  C_9
REMARK    5  A    between atoms: C_9  and  N_10
REMARK    6  A    between atoms: C_11  and  C_13
REMARK    7  A    between atoms: C_16  and  O_17
REMARK                            x       y       z     vdW  Elec       q    Type
REMARK                         _______ _______ _______ _____ _____    ______ ____
ROOT
ATOM      1  C   UNL     1      48.501   7.668  13.064  0.00  0.00    +0.000 A 
ATOM      2  C   UNL     1      49.536   8.599  13.049  0.00  0.00    +0.000 A 
ATOM      3  C   UNL     1      50.558   8.526  13.997  0.00  0.00    +0.000 A 
ATOM      4  C   UNL     1      50.537   7.512  14.955  0.00  0.00    +0.000 A 
ATOM      5  N   UNL     1      49.544   6.584  14.980  0.00  0.00    +0.000 NA
ATOM      6  C   UNL     1      48.559   6.687  14.047  0.00  0.00    +0.000 A 
ENDROOT
BRANCH   1   7
ATOM      7  C   UNL     1      47.406   7.708  12.040  0.00  0.00    +0.000 C 
BRANCH   7  10
ATOM      8  O   UNL     1      44.691   7.510  11.548  0.00  0.00    +0.000 OA
ATOM      9  C   UNL     1      45.353   6.469  11.591  0.00  0.00    +0.000 C 
ATOM     10  N   UNL     1      46.700   6.465  11.870  0.00  0.00    +0.000 N 
ATOM     11  H   UNL     1      47.247   5.642  11.638  0.00  0.00    +0.000 HD
BRANCH   9  12
ATOM     12  C   UNL     1      44.744   5.159  11.380  0.00  0.00    +0.000 A 
ATOM     13  C   UNL     1      43.923   4.540  12.314  0.00  0.00    +0.000 A 
ATOM     14  S   UNL     1      43.346   3.014  11.781  0.00  0.00    +0.000 S 
ATOM     15  C   UNL     1      44.159   3.159  10.294  0.00  0.00    +0.000 A 
ATOM     16  N   UNL     1      44.101   2.185   9.349  0.00  0.00    +0.000 NA
ATOM     17  C   UNL     1      44.740   2.459   8.259  0.00  0.00    +0.000 A 
ATOM     18  N   UNL     1      45.426   3.621   8.025  0.00  0.00    +0.000 N 
ATOM     19  C   UNL     1      45.563   4.612   8.952  0.00  0.00    +0.000 A 
ATOM     20  O   UNL     1      46.290   5.573   8.747  0.00  0.00    +0.000 OA
ATOM     21  C   UNL     1      44.852   4.350  10.199  0.00  0.00    +0.000 A 
ATOM     22  H   UNL     1      45.923   3.769   7.158  0.00  0.00    +0.000 HD
ENDBRANCH   9  12
ENDBRANCH   7  10
ENDBRANCH   1   7
BRANCH   4  23
ATOM     23  C   UNL     1      51.610   7.407  16.025  0.00  0.00    +0.000 C 
BRANCH  23  24
ATOM     24  N   UNL     1      51.734   6.092  16.641  0.00  0.00    +0.000 N 
ATOM     25  C   UNL     1      51.084   5.771  17.799  0.00  0.00    +0.000 C 
ATOM     26  O   UNL     1      50.385   6.595  18.410  0.00  0.00    +0.000 OA
ATOM     27  H   UNL     1      52.442   5.454  16.301  0.00  0.00    +0.000 HD
BRANCH  25  28
ATOM     28  C   UNL     1      51.278   4.331  18.276  0.00  0.00    +0.000 C 
ATOM     29  C   UNL     1      50.407   3.380  17.437  0.00  0.00    +0.000 C 
ATOM     30  C   UNL     1      50.660   1.913  17.756  0.00  0.00    +0.000 C 
ATOM     31  C   UNL     1      52.139   1.571  17.591  0.00  0.00    +0.000 C 
ATOM     32  C   UNL     1      53.001   2.464  18.479  0.00  0.00    +0.000 C 
ATOM     33  C   UNL     1      52.763   3.945  18.196  0.00  0.00    +0.000 C 
BRANCH  31  34
ATOM     34  O   UNL     1      52.359   0.205  17.916  0.00  0.00    +0.000 OA
ATOM     35  H   UNL     1      52.612   0.148  18.854  0.00  0.00    +0.000 HD
ENDBRANCH  31  34
ENDBRANCH  25  28
ENDBRANCH  23  24
ENDBRANCH   4  23
TORSDOF 7
ENDMDL
