MODEL 1
REMARK VINA RESULT:    -8.898      0.000      0.000
REMARK INTER + INTRA:         -12.492
REMARK INTER:                 -11.759
REMARK INTRA:                  -0.734
REMARK UNBOUND:                -0.734
REMARK  Name = 
REMARK  6 active torsions:
REMARK  status: ('A' for Active; 'I' for Inactive)
REMARK    1  A    between atoms: C_7  and  C_8
REMARK    2  A    between atoms: N_10  and  C_11
REMARK    3  A    between atoms: C_11  and  C_12
REMARK    4  A    between atoms: C_15  and  C_16
REMARK    5  A    between atoms: C_16  and  O_17
REMARK    6  A    between atoms: C_16  and  C_18
REMARK                            x       y       z     vdW  Elec       q    Type
REMARK                         _______ _______ _______ _____ _____    ______ ____
ROOT
ATOM      1  C   UNL     1      48.102   6.640  14.050  0.00  0.00    +0.000 C 
ATOM      2  O   UNL     1      48.782   6.929  13.067  0.00  0.00    +0.000 OA
ATOM      3  N   UNL     1      46.729   6.671  14.011  0.00  0.00    +0.000 N 
ATOM      4  H   UNL     1      46.181   6.380  14.817  0.00  0.00    +0.000 HD
ENDROOT
BRANCH   1  11
ATOM      5  N   UNL     1      48.267   2.987  19.685  0.00  0.00    +0.000 N 
ATOM      6  C   UNL     1      48.365   3.774  18.583  0.00  0.00    +0.000 A 
ATOM      7  N   UNL     1      49.309   4.667  18.496  0.00  0.00    +0.000 NA
ATOM      8  C   UNL     1      49.279   5.382  17.348  0.00  0.00    +0.000 A 
ATOM      9  N   UNL     1      50.172   6.369  17.055  0.00  0.00    +0.000 N 
ATOM     10  C   UNL     1      49.850   6.909  15.835  0.00  0.00    +0.000 A 
ATOM     11  C   UNL     1      48.724   6.265  15.325  0.00  0.00    +0.000 A 
ATOM     12  C   UNL     1      48.391   5.277  16.299  0.00  0.00    +0.000 A 
ATOM     13  C   UNL     1      47.376   4.262  16.410  0.00  0.00    +0.000 A 
ATOM     14  O   UNL     1      46.547   4.019  15.535  0.00  0.00    +0.000 OA
ATOM     15  N   UNL     1      47.420   3.568  17.603  0.00  0.00    +0.000 N 
ATOM     16  H   UNL     1      48.830   3.332  20.456  0.00  0.00    +0.000 HD
ATOM     17  H   UNL     1      47.340   2.702  19.970  0.00  0.00    +0.000 HD
ATOM     18  H   UNL     1      50.938   6.646  17.654  0.00  0.00    +0.000 HD
ATOM     19  H   UNL     1      46.749   2.826  17.701  0.00  0.00    +0.000 HD
ENDBRANCH   1  11
BRANCH   3  20
ATOM     20  C   UNL     1      46.031   7.069  12.812  0.00  0.00    +0.000 C 
BRANCH  20  21
ATOM     21  C   UNL     1      45.789   5.908  11.880  0.00  0.00    +0.000 A 
ATOM     22  C   UNL     1      45.532   4.627  12.384  0.00  0.00    +0.000 A 
ATOM     23  C   UNL     1      45.330   3.547  11.516  0.00  0.00    +0.000 A 
ATOM     24  C   UNL     1      45.385   3.720  10.123  0.00  0.00    +0.000 A 
ATOM     25  C   UNL     1      45.645   5.005   9.623  0.00  0.00    +0.000 A 
ATOM     26  C   UNL     1      45.847   6.084  10.491  0.00  0.00    +0.000 A 
BRANCH  24  27
ATOM     27  C   UNL     1      45.161   2.531   9.197  0.00  0.00    +0.000 C 
BRANCH  27  28
ATOM     28  C   UNL     1      46.092   2.415   8.007  0.00  0.00    +0.000 A 
ATOM     29  C   UNL     1      46.134   3.405   7.014  0.00  0.00    +0.000 A 
ATOM     30  C   UNL     1      46.915   3.232   5.876  0.00  0.00    +0.000 A 
ATOM     31  C   UNL     1      47.636   2.058   5.753  0.00  0.00    +0.000 A 
ATOM     32  N   UNL     1      47.632   1.076   6.679  0.00  0.00    +0.000 NA
ATOM     33  C   UNL     1      46.860   1.274   7.776  0.00  0.00    +0.000 A 
ENDBRANCH  27  28
BRANCH  27  34
ATOM     34  O   UNL     1      43.805   2.520   8.739  0.00  0.00    +0.000 OA
ATOM     35  H   UNL     1      43.228   2.402   9.509  0.00  0.00    +0.000 HD
ENDBRANCH  27  34
ENDBRANCH  24  27
ENDBRANCH  20  21
ENDBRANCH   3  20
TORSDOF 6
ENDMDL
MODEL 2
REMARK VINA RESULT:    -8.148      1.707      2.515
REMARK INTER + INTRA:         -11.501
REMARK INTER:                 -10.528
REMARK INTRA:                  -0.973
REMARK UNBOUND:                -0.734
REMARK  Name = 
REMARK  6 active torsions:
REMARK  status: ('A' for Active; 'I' for Inactive)
REMARK    1  A    between atoms: C_7  and  C_8
REMARK    2  A    between atoms: N_10  and  C_11
REMARK    3  A    between atoms: C_11  and  C_12
REMARK    4  A    between atoms: C_15  and  C_16
REMARK    5  A    between atoms: C_16  and  O_17
REMARK    6  A    between atoms: C_16  and  C_18
REMARK                            x       y       z     vdW  Elec       q    Type
REMARK                         _______ _______ _______ _____ _____    ______ ____
ROOT
ATOM      1  C   UNL     1      48.976   8.067  15.350  0.00  0.00    +0.000 C 
ATOM      2  O   UNL     1      49.919   8.128  14.564  0.00  0.00    +0.000 OA
ATOM      3  N   UNL     1      47.690   8.358  14.958  0.00  0.00    +0.000 N 
ATOM      4  H   UNL     1      46.915   8.253  15.608  0.00  0.00    +0.000 HD
ENDROOT
BRANCH   1  11
ATOM      5  N   UNL     1      48.579   3.669  20.412  0.00  0.00    +0.000 N 
ATOM      6  C   UNL     1      48.733   4.643  19.480  0.00  0.00    +0.000 A 
ATOM      7  N   UNL     1      49.165   5.822  19.827  0.00  0.00    +0.000 NA
ATOM      8  C   UNL     1      49.260   6.693  18.796  0.00  0.00    +0.000 A 
ATOM      9  N   UNL     1      49.686   7.980  18.938  0.00  0.00    +0.000 N 
ATOM     10  C   UNL     1      49.642   8.598  17.714  0.00  0.00    +0.000 A 
ATOM     11  C   UNL     1      49.176   7.699  16.756  0.00  0.00    +0.000 A 
ATOM     12  C   UNL     1      48.961   6.481  17.468  0.00  0.00    +0.000 A 
ATOM     13  C   UNL     1      48.514   5.160  17.108  0.00  0.00    +0.000 A 
ATOM     14  O   UNL     1      48.258   4.809  15.958  0.00  0.00    +0.000 OA
ATOM     15  N   UNL     1      48.404   4.304  18.187  0.00  0.00    +0.000 N 
ATOM     16  H   UNL     1      48.610   4.033  21.360  0.00  0.00    +0.000 HD
ATOM     17  H   UNL     1      47.829   3.006  20.271  0.00  0.00    +0.000 HD
ATOM     18  H   UNL     1      49.977   8.394  19.814  0.00  0.00    +0.000 HD
ATOM     19  H   UNL     1      48.130   3.362  17.969  0.00  0.00    +0.000 HD
ENDBRANCH   1  11
BRANCH   3  20
ATOM     20  C   UNL     1      47.405   8.769  13.605  0.00  0.00    +0.000 C 
BRANCH  20  21
ATOM     21  C   UNL     1      46.609   7.735  12.850  0.00  0.00    +0.000 A 
ATOM     22  C   UNL     1      45.516   8.108  12.060  0.00  0.00    +0.000 A 
ATOM     23  C   UNL     1      44.765   7.143  11.378  0.00  0.00    +0.000 A 
ATOM     24  C   UNL     1      45.088   5.778  11.472  0.00  0.00    +0.000 A 
ATOM     25  C   UNL     1      46.184   5.408  12.267  0.00  0.00    +0.000 A 
ATOM     26  C   UNL     1      46.933   6.375  12.948  0.00  0.00    +0.000 A 
BRANCH  24  27
ATOM     27  C   UNL     1      44.259   4.745  10.721  0.00  0.00    +0.000 C 
BRANCH  27  28
ATOM     28  C   UNL     1      44.944   4.031   9.574  0.00  0.00    +0.000 A 
ATOM     29  C   UNL     1      44.979   2.629   9.502  0.00  0.00    +0.000 A 
ATOM     30  C   UNL     1      45.702   1.990   8.501  0.00  0.00    +0.000 A 
ATOM     31  C   UNL     1      46.386   2.774   7.590  0.00  0.00    +0.000 A 
ATOM     32  N   UNL     1      46.384   4.124   7.613  0.00  0.00    +0.000 NA
ATOM     33  C   UNL     1      45.671   4.717   8.602  0.00  0.00    +0.000 A 
ENDBRANCH  27  28
BRANCH  27  34
ATOM     34  O   UNL     1      43.047   5.344  10.248  0.00  0.00    +0.000 OA
ATOM     35  H   UNL     1      43.002   6.247  10.597  0.00  0.00    +0.000 HD
ENDBRANCH  27  34
ENDBRANCH  24  27
ENDBRANCH  20  21
ENDBRANCH   3  20
TORSDOF 6
ENDMDL
MODEL 3
REMARK VINA RESULT:    -7.979      3.902      8.517
REMARK INTER + INTRA:         -11.278
REMARK INTER:                 -10.202
REMARK INTRA:                  -1.076
REMARK UNBOUND:                -0.734
REMARK  Name = 
REMARK  6 active torsions:
REMARK  status: ('A' for Active; 'I' for Inactive)
REMARK    1  A    between atoms: C_7  and  C_8
REMARK    2  A    between atoms: N_10  and  C_11
REMARK    3  A    between atoms: C_11  and  C_12
REMARK    4  A    between atoms: C_15  and  C_16
REMARK    5  A    between atoms: C_16  and  O_17
REMARK    6  A    between atoms: C_16  and  C_18
REMARK                            x       y       z     vdW  Elec       q    Type
REMARK                         _______ _______ _______ _____ _____    ______ ____
ROOT
ATOM      1  C   UNL     1      47.848   6.883  13.489  0.00  0.00    +0.000 C 
ATOM      2  O   UNL     1      48.859   6.428  12.957  0.00  0.00    +0.000 OA
ATOM      3  N   UNL     1      47.921   7.801  14.509  0.00  0.00    +0.000 N 
ATOM      4  H   UNL     1      47.075   8.205  14.904  0.00  0.00    +0.000 HD
ENDROOT
BRANCH   1  11
ATOM      5  N   UNL     1      43.393   2.086  11.985  0.00  0.00    +0.000 N 
ATOM      6  C   UNL     1      44.183   3.149  12.280  0.00  0.00    +0.000 A 
ATOM      7  N   UNL     1      43.739   4.362  12.116  0.00  0.00    +0.000 NA
ATOM      8  C   UNL     1      44.638   5.320  12.442  0.00  0.00    +0.000 A 
ATOM      9  N   UNL     1      44.382   6.655  12.342  0.00  0.00    +0.000 N 
ATOM     10  C   UNL     1      45.501   7.350  12.723  0.00  0.00    +0.000 A 
ATOM     11  C   UNL     1      46.508   6.453  13.074  0.00  0.00    +0.000 A 
ATOM     12  C   UNL     1      45.925   5.161  12.909  0.00  0.00    +0.000 A 
ATOM     13  C   UNL     1      46.379   3.809  13.108  0.00  0.00    +0.000 A 
ATOM     14  O   UNL     1      47.481   3.513  13.564  0.00  0.00    +0.000 OA
ATOM     15  N   UNL     1      45.447   2.857  12.742  0.00  0.00    +0.000 N 
ATOM     16  H   UNL     1      42.579   2.350  11.440  0.00  0.00    +0.000 HD
ATOM     17  H   UNL     1      43.848   1.253  11.634  0.00  0.00    +0.000 HD
ATOM     18  H   UNL     1      43.504   7.048  12.031  0.00  0.00    +0.000 HD
ATOM     19  H   UNL     1      45.715   1.902  12.902  0.00  0.00    +0.000 HD
ENDBRANCH   1  11
BRANCH   3  20
ATOM     20  C   UNL     1      49.197   8.250  15.011  0.00  0.00    +0.000 C 
BRANCH  20  21
ATOM     21  C   UNL     1      49.777   7.301  16.029  0.00  0.00    +0.000 A 
ATOM     22  C   UNL     1      48.982   6.780  17.057  0.00  0.00    +0.000 A 
ATOM     23  C   UNL     1      49.529   5.916  18.014  0.00  0.00    +0.000 A 
ATOM     24  C   UNL     1      50.886   5.554  17.968  0.00  0.00    +0.000 A 
ATOM     25  C   UNL     1      51.679   6.080  16.936  0.00  0.00    +0.000 A 
ATOM     26  C   UNL     1      51.131   6.943  15.981  0.00  0.00    +0.000 A 
BRANCH  24  27
ATOM     27  C   UNL     1      51.460   4.613  19.018  0.00  0.00    +0.000 C 
BRANCH  27  28
ATOM     28  C   UNL     1      52.012   3.294  18.516  0.00  0.00    +0.000 A 
ATOM     29  C   UNL     1      51.275   2.479  17.643  0.00  0.00    +0.000 A 
ATOM     30  C   UNL     1      51.751   1.224  17.276  0.00  0.00    +0.000 A 
ATOM     31  C   UNL     1      52.960   0.807  17.803  0.00  0.00    +0.000 A 
ATOM     32  N   UNL     1      53.708   1.552  18.643  0.00  0.00    +0.000 NA
ATOM     33  C   UNL     1      53.216   2.769  18.983  0.00  0.00    +0.000 A 
ENDBRANCH  27  28
BRANCH  27  34
ATOM     34  O   UNL     1      50.480   4.359  20.032  0.00  0.00    +0.000 OA
ATOM     35  H   UNL     1      50.858   3.729  20.664  0.00  0.00    +0.000 HD
ENDBRANCH  27  34
ENDBRANCH  24  27
ENDBRANCH  20  21
ENDBRANCH   3  20
TORSDOF 6
ENDMDL
MODEL 4
REMARK VINA RESULT:    -7.928      2.010      2.826
REMARK INTER + INTRA:         -11.211
REMARK INTER:                 -10.445
REMARK INTRA:                  -0.765
REMARK UNBOUND:                -0.734
REMARK  Name = 
REMARK  6 active torsions:
REMARK  status: ('A' for Active; 'I' for Inactive)
REMARK    1  A    between atoms: C_7  and  C_8
REMARK    2  A    between atoms: N_10  and  C_11
REMARK    3  A    between atoms: C_11  and  C_12
REMARK    4  A    between atoms: C_15  and  C_16
REMARK    5  A    between atoms: C_16  and  O_17
REMARK    6  A    between atoms: C_16  and  C_18
REMARK                            x       y       z     vdW  Elec       q    Type
REMARK                         _______ _______ _______ _____ _____    ______ ____
ROOT
ATOM      1  C   UNL     1      48.592   6.513  15.815  0.00  0.00    +0.000 C 
ATOM      2  O   UNL     1      48.652   7.725  16.016  0.00  0.00    +0.000 OA
ATOM      3  N   UNL     1      47.884   5.992  14.758  0.00  0.00    +0.000 N 
ATOM      4  H   UNL     1      47.887   4.991  14.576  0.00  0.00    +0.000 HD
ENDROOT
BRANCH   1  11
ATOM      5  N   UNL     1      54.125   3.914  18.599  0.00  0.00    +0.000 N 
ATOM      6  C   UNL     1      52.931   4.355  18.127  0.00  0.00    +0.000 A 
ATOM      7  N   UNL     1      51.829   3.742  18.453  0.00  0.00    +0.000 NA
ATOM      8  C   UNL     1      50.719   4.287  17.903  0.00  0.00    +0.000 A 
ATOM      9  N   UNL     1      49.463   3.801  18.109  0.00  0.00    +0.000 N 
ATOM     10  C   UNL     1      48.572   4.560  17.394  0.00  0.00    +0.000 A 
ATOM     11  C   UNL     1      49.259   5.558  16.705  0.00  0.00    +0.000 A 
ATOM     12  C   UNL     1      50.628   5.378  17.066  0.00  0.00    +0.000 A 
ATOM     13  C   UNL     1      51.859   6.053  16.746  0.00  0.00    +0.000 A 
ATOM     14  O   UNL     1      51.929   7.066  16.053  0.00  0.00    +0.000 OA
ATOM     15  N   UNL     1      52.973   5.457  17.302  0.00  0.00    +0.000 N 
ATOM     16  H   UNL     1      54.060   2.983  19.000  0.00  0.00    +0.000 HD
ATOM     17  H   UNL     1      54.931   4.029  18.000  0.00  0.00    +0.000 HD
ATOM     18  H   UNL     1      49.246   3.005  18.694  0.00  0.00    +0.000 HD
ATOM     19  H   UNL     1      53.848   5.922  17.131  0.00  0.00    +0.000 HD
ENDBRANCH   1  11
BRANCH   3  20
ATOM     20  C   UNL     1      47.162   6.854  13.854  0.00  0.00    +0.000 C 
BRANCH  20  21
ATOM     21  C   UNL     1      46.476   6.083  12.755  0.00  0.00    +0.000 A 
ATOM     22  C   UNL     1      45.796   4.891  13.032  0.00  0.00    +0.000 A 
ATOM     23  C   UNL     1      45.180   4.164  12.006  0.00  0.00    +0.000 A 
ATOM     24  C   UNL     1      45.232   4.610  10.674  0.00  0.00    +0.000 A 
ATOM     25  C   UNL     1      45.917   5.805  10.400  0.00  0.00    +0.000 A 
ATOM     26  C   UNL     1      46.532   6.529  11.427  0.00  0.00    +0.000 A 
BRANCH  24  27
ATOM     27  C   UNL     1      44.554   3.806   9.574  0.00  0.00    +0.000 C 
BRANCH  27  28
ATOM     28  C   UNL     1      45.465   3.032   8.641  0.00  0.00    +0.000 A 
ATOM     29  C   UNL     1      46.054   3.642   7.524  0.00  0.00    +0.000 A 
ATOM     30  C   UNL     1      46.800   2.892   6.620  0.00  0.00    +0.000 A 
ATOM     31  C   UNL     1      46.934   1.536   6.854  0.00  0.00    +0.000 A 
ATOM     32  N   UNL     1      46.389   0.901   7.913  0.00  0.00    +0.000 NA
ATOM     33  C   UNL     1      45.667   1.659   8.775  0.00  0.00    +0.000 A 
ENDBRANCH  27  28
BRANCH  27  34
ATOM     34  O   UNL     1      43.703   4.660   8.801  0.00  0.00    +0.000 OA
ATOM     35  H   UNL     1      42.803   4.303   8.841  0.00  0.00    +0.000 HD
ENDBRANCH  27  34
ENDBRANCH  24  27
ENDBRANCH  20  21
ENDBRANCH   3  20
TORSDOF 6
ENDMDL
MODEL 5
REMARK VINA RESULT:    -7.851      2.704      4.421
REMARK INTER + INTRA:         -11.109
REMARK INTER:                  -9.991
REMARK INTRA:                  -1.118
REMARK UNBOUND:                -0.734
REMARK  Name = 
REMARK  6 active torsions:
REMARK  status: ('A' for Active; 'I' for Inactive)
REMARK    1  A    between atoms: C_7  and  C_8
REMARK    2  A    between atoms: N_10  and  C_11
REMARK    3  A    between atoms: C_11  and  C_12
REMARK    4  A    between atoms: C_15  and  C_16
REMARK    5  A    between atoms: C_16  and  O_17
REMARK    6  A    between atoms: C_16  and  C_18
REMARK                            x       y       z     vdW  Elec       q    Type
REMARK                         _______ _______ _______ _____ _____    ______ ____
ROOT
ATOM      1  C   UNL     1      48.644   6.599  15.086  0.00  0.00    +0.000 C 
ATOM      2  O   UNL     1      49.081   5.738  15.847  0.00  0.00    +0.000 OA
ATOM      3  N   UNL     1      47.477   6.414  14.382  0.00  0.00    +0.000 N 
ATOM      4  H   UNL     1      47.103   7.157  13.796  0.00  0.00    +0.000 HD
ENDROOT
BRANCH   1  11
ATOM      5  N   UNL     1      51.493  11.164  11.065  0.00  0.00    +0.000 N 
ATOM      6  C   UNL     1      50.937  10.336  11.986  0.00  0.00    +0.000 A 
ATOM      7  N   UNL     1      51.055  10.594  13.257  0.00  0.00    +0.000 NA
ATOM      8  C   UNL     1      50.459   9.679  14.057  0.00  0.00    +0.000 A 
ATOM      9  N   UNL     1      50.465   9.754  15.417  0.00  0.00    +0.000 N 
ATOM     10  C   UNL     1      49.800   8.666  15.923  0.00  0.00    +0.000 A 
ATOM     11  C   UNL     1      49.356   7.864  14.874  0.00  0.00    +0.000 A 
ATOM     12  C   UNL     1      49.769   8.544  13.690  0.00  0.00    +0.000 A 
ATOM     13  C   UNL     1      49.630   8.299  12.277  0.00  0.00    +0.000 A 
ATOM     14  O   UNL     1      49.001   7.357  11.800  0.00  0.00    +0.000 OA
ATOM     15  N   UNL     1      50.270   9.237  11.491  0.00  0.00    +0.000 N 
ATOM     16  H   UNL     1      52.156  11.812  11.479  0.00  0.00    +0.000 HD
ATOM     17  H   UNL     1      51.834  10.745  10.211  0.00  0.00    +0.000 HD
ATOM     18  H   UNL     1      50.898  10.498  15.948  0.00  0.00    +0.000 HD
ATOM     19  H   UNL     1      50.164   9.120  10.499  0.00  0.00    +0.000 HD
ENDBRANCH   1  11
BRANCH   3  20
ATOM     20  C   UNL     1      46.731   5.184  14.496  0.00  0.00    +0.000 C 
BRANCH  20  21
ATOM     21  C   UNL     1      46.144   4.749  13.177  0.00  0.00    +0.000 A 
ATOM     22  C   UNL     1      45.739   3.424  12.975  0.00  0.00    +0.000 A 
ATOM     23  C   UNL     1      45.214   3.018  11.742  0.00  0.00    +0.000 A 
ATOM     24  C   UNL     1      45.086   3.927  10.678  0.00  0.00    +0.000 A 
ATOM     25  C   UNL     1      45.495   5.254  10.884  0.00  0.00    +0.000 A 
ATOM     26  C   UNL     1      46.019   5.658  12.117  0.00  0.00    +0.000 A 
BRANCH  24  27
ATOM     27  C   UNL     1      44.513   3.465   9.345  0.00  0.00    +0.000 C 
BRANCH  27  28
ATOM     28  C   UNL     1      45.497   2.889   8.346  0.00  0.00    +0.000 A 
ATOM     29  C   UNL     1      45.924   3.630   7.233  0.00  0.00    +0.000 A 
ATOM     30  C   UNL     1      46.744   3.049   6.271  0.00  0.00    +0.000 A 
ATOM     31  C   UNL     1      47.114   1.728   6.442  0.00  0.00    +0.000 A 
ATOM     32  N   UNL     1      46.734   0.974   7.494  0.00  0.00    +0.000 NA
ATOM     33  C   UNL     1      45.934   1.567   8.414  0.00  0.00    +0.000 A 
ENDBRANCH  27  28
BRANCH  27  34
ATOM     34  O   UNL     1      43.787   4.535   8.730  0.00  0.00    +0.000 OA
ATOM     35  H   UNL     1      42.857   4.455   8.989  0.00  0.00    +0.000 HD
ENDBRANCH  27  34
ENDBRANCH  24  27
ENDBRANCH  20  21
ENDBRANCH   3  20
TORSDOF 6
ENDMDL
MODEL 6
REMARK VINA RESULT:    -7.704      2.241      3.040
REMARK INTER + INTRA:         -10.915
REMARK INTER:                  -9.863
REMARK INTRA:                  -1.052
REMARK UNBOUND:                -0.734
REMARK  Name = 
REMARK  6 active torsions:
REMARK  status: ('A' for Active; 'I' for Inactive)
REMARK    1  A    between atoms: C_7  and  C_8
REMARK    2  A    between atoms: N_10  and  C_11
REMARK    3  A    between atoms: C_11  and  C_12
REMARK    4  A    between atoms: C_15  and  C_16
REMARK    5  A    between atoms: C_16  and  O_17
REMARK    6  A    between atoms: C_16  and  C_18
REMARK                            x       y       z     vdW  Elec       q    Type
REMARK                         _______ _______ _______ _____ _____    ______ ____
ROOT
ATOM      1  C   UNL     1      49.327   6.760  16.436  0.00  0.00    +0.000 C 
ATOM      2  O   UNL     1      48.554   7.301  17.225  0.00  0.00    +0.000 OA
ATOM      3  N   UNL     1      49.247   6.981  15.082  0.00  0.00    +0.000 N 
ATOM      4  H   UNL     1      49.927   6.566  14.449  0.00  0.00    +0.000 HD
ENDROOT
BRANCH   1  11
ATOM      5  N   UNL     1      51.446   0.582  18.008  0.00  0.00    +0.000 N 
ATOM      6  C   UNL     1      51.155   1.874  17.706  0.00  0.00    +0.000 A 
ATOM      7  N   UNL     1      52.032   2.812  17.925  0.00  0.00    +0.000 NA
ATOM      8  C   UNL     1      51.601   4.050  17.586  0.00  0.00    +0.000 A 
ATOM      9  N   UNL     1      52.357   5.173  17.735  0.00  0.00    +0.000 N 
ATOM     10  C   UNL     1      51.623   6.257  17.322  0.00  0.00    +0.000 A 
ATOM     11  C   UNL     1      50.365   5.833  16.900  0.00  0.00    +0.000 A 
ATOM     12  C   UNL     1      50.383   4.415  17.055  0.00  0.00    +0.000 A 
ATOM     13  C   UNL     1      49.445   3.353  16.797  0.00  0.00    +0.000 A 
ATOM     14  O   UNL     1      48.341   3.519  16.283  0.00  0.00    +0.000 OA
ATOM     15  N   UNL     1      49.906   2.108  17.179  0.00  0.00    +0.000 N 
ATOM     16  H   UNL     1      52.269   0.500  18.597  0.00  0.00    +0.000 HD
ATOM     17  H   UNL     1      50.683  -0.006  18.313  0.00  0.00    +0.000 HD
ATOM     18  H   UNL     1      53.301   5.186  18.097  0.00  0.00    +0.000 HD
ATOM     19  H   UNL     1      49.292   1.337  16.980  0.00  0.00    +0.000 HD
ENDBRANCH   1  11
BRANCH   3  20
ATOM     20  C   UNL     1      48.231   7.845  14.532  0.00  0.00    +0.000 C 
BRANCH  20  21
ATOM     21  C   UNL     1      47.259   7.096  13.655  0.00  0.00    +0.000 A 
ATOM     22  C   UNL     1      46.361   7.784  12.830  0.00  0.00    +0.000 A 
ATOM     23  C   UNL     1      45.445   7.087  12.034  0.00  0.00    +0.000 A 
ATOM     24  C   UNL     1      45.401   5.682  12.046  0.00  0.00    +0.000 A 
ATOM     25  C   UNL     1      46.302   4.996  12.876  0.00  0.00    +0.000 A 
ATOM     26  C   UNL     1      47.217   5.696  13.671  0.00  0.00    +0.000 A 
BRANCH  24  27
ATOM     27  C   UNL     1      44.397   4.943  11.172  0.00  0.00    +0.000 C 
BRANCH  27  28
ATOM     28  C   UNL     1      44.967   4.110  10.041  0.00  0.00    +0.000 A 
ATOM     29  C   UNL     1      45.643   4.706   8.964  0.00  0.00    +0.000 A 
ATOM     30  C   UNL     1      46.066   3.939   7.884  0.00  0.00    +0.000 A 
ATOM     31  C   UNL     1      45.794   2.583   7.902  0.00  0.00    +0.000 A 
ATOM     32  N   UNL     1      45.151   1.962   8.912  0.00  0.00    +0.000 NA
ATOM     33  C   UNL     1      44.750   2.736   9.950  0.00  0.00    +0.000 A 
ENDBRANCH  27  28
BRANCH  27  34
ATOM     34  O   UNL     1      43.440   5.867  10.642  0.00  0.00    +0.000 OA
ATOM     35  H   UNL     1      42.879   6.170  11.372  0.00  0.00    +0.000 HD
ENDBRANCH  27  34
ENDBRANCH  24  27
ENDBRANCH  20  21
ENDBRANCH   3  20
TORSDOF 6
ENDMDL
MODEL 7
REMARK VINA RESULT:    -7.556      2.531      3.468
REMARK INTER + INTRA:         -10.719
REMARK INTER:                  -9.663
REMARK INTRA:                  -1.055
REMARK UNBOUND:                -0.734
REMARK  Name = 
REMARK  6 active torsions:
REMARK  status: ('A' for Active; 'I' for Inactive)
REMARK    1  A    between atoms: C_7  and  C_8
REMARK    2  A    between atoms: N_10  and  C_11
REMARK    3  A    between atoms: C_11  and  C_12
REMARK    4  A    between atoms: C_15  and  C_16
REMARK    5  A    between atoms: C_16  and  O_17
REMARK    6  A    between atoms: C_16  and  C_18
REMARK                            x       y       z     vdW  Elec       q    Type
REMARK                         _______ _______ _______ _____ _____    ______ ____
ROOT
ATOM      1  C   UNL     1      48.015   7.702  13.899  0.00  0.00    +0.000 C 
ATOM      2  O   UNL     1      47.099   8.515  13.997  0.00  0.00    +0.000 OA
ATOM      3  N   UNL     1      47.780   6.348  13.899  0.00  0.00    +0.000 N 
ATOM      4  H   UNL     1      48.545   5.689  13.766  0.00  0.00    +0.000 HD
ENDROOT
BRANCH   1  11
ATOM      5  N   UNL     1      54.361   7.734  16.102  0.00  0.00    +0.000 N 
ATOM      6  C   UNL     1      53.127   7.799  15.540  0.00  0.00    +0.000 A 
ATOM      7  N   UNL     1      52.911   8.577  14.519  0.00  0.00    +0.000 NA
ATOM      8  C   UNL     1      51.635   8.547  14.071  0.00  0.00    +0.000 A 
ATOM      9  N   UNL     1      51.192   9.286  13.015  0.00  0.00    +0.000 N 
ATOM     10  C   UNL     1      49.853   9.046  12.836  0.00  0.00    +0.000 A 
ATOM     11  C   UNL     1      49.413   8.135  13.796  0.00  0.00    +0.000 A 
ATOM     12  C   UNL     1      50.575   7.813  14.558  0.00  0.00    +0.000 A 
ATOM     13  C   UNL     1      50.850   6.940  15.670  0.00  0.00    +0.000 A 
ATOM     14  O   UNL     1      50.019   6.190  16.179  0.00  0.00    +0.000 OA
ATOM     15  N   UNL     1      52.155   7.014  16.118  0.00  0.00    +0.000 N 
ATOM     16  H   UNL     1      54.965   8.490  15.794  0.00  0.00    +0.000 HD
ATOM     17  H   UNL     1      54.409   7.573  17.099  0.00  0.00    +0.000 HD
ATOM     18  H   UNL     1      51.772   9.909  12.468  0.00  0.00    +0.000 HD
ATOM     19  H   UNL     1      52.393   6.392  16.870  0.00  0.00    +0.000 HD
ENDBRANCH   1  11
BRANCH   3  20
ATOM     20  C   UNL     1      46.441   5.829  14.039  0.00  0.00    +0.000 C 
BRANCH  20  21
ATOM     21  C   UNL     1      45.931   5.214  12.760  0.00  0.00    +0.000 A 
ATOM     22  C   UNL     1      45.422   3.910  12.744  0.00  0.00    +0.000 A 
ATOM     23  C   UNL     1      44.971   3.334  11.551  0.00  0.00    +0.000 A 
ATOM     24  C   UNL     1      45.021   4.047  10.341  0.00  0.00    +0.000 A 
ATOM     25  C   UNL     1      45.534   5.353  10.360  0.00  0.00    +0.000 A 
ATOM     26  C   UNL     1      45.985   5.927  11.554  0.00  0.00    +0.000 A 
BRANCH  24  27
ATOM     27  C   UNL     1      44.524   3.401   9.054  0.00  0.00    +0.000 C 
BRANCH  27  28
ATOM     28  C   UNL     1      45.578   2.799   8.147  0.00  0.00    +0.000 A 
ATOM     29  C   UNL     1      46.015   3.467   6.993  0.00  0.00    +0.000 A 
ATOM     30  C   UNL     1      46.904   2.853   6.115  0.00  0.00    +0.000 A 
ATOM     31  C   UNL     1      47.332   1.572   6.412  0.00  0.00    +0.000 A 
ATOM     32  N   UNL     1      46.943   0.888   7.508  0.00  0.00    +0.000 NA
ATOM     33  C   UNL     1      46.076   1.512   8.343  0.00  0.00    +0.000 A 
ENDBRANCH  27  28
BRANCH  27  34
ATOM     34  O   UNL     1      43.741   4.341   8.310  0.00  0.00    +0.000 OA
ATOM     35  H   UNL     1      44.346   4.984   7.908  0.00  0.00    +0.000 HD
ENDBRANCH  27  34
ENDBRANCH  24  27
ENDBRANCH  20  21
ENDBRANCH   3  20
TORSDOF 6
ENDMDL
MODEL 8
REMARK VINA RESULT:    -7.475      2.049      2.852
REMARK INTER + INTRA:         -10.613
REMARK INTER:                  -9.591
REMARK INTRA:                  -1.022
REMARK UNBOUND:                -0.734
REMARK  Name = 
REMARK  6 active torsions:
REMARK  status: ('A' for Active; 'I' for Inactive)
REMARK    1  A    between atoms: C_7  and  C_8
REMARK    2  A    between atoms: N_10  and  C_11
REMARK    3  A    between atoms: C_11  and  C_12
REMARK    4  A    between atoms: C_15  and  C_16
REMARK    5  A    between atoms: C_16  and  O_17
REMARK    6  A    between atoms: C_16  and  C_18
REMARK                            x       y       z     vdW  Elec       q    Type
REMARK                         _______ _______ _______ _____ _____    ______ ____
ROOT
ATOM      1  C   UNL     1      49.777   8.336  14.894  0.00  0.00    +0.000 C 
ATOM      2  O   UNL     1      49.816   9.563  14.823  0.00  0.00    +0.000 OA
ATOM      3  N   UNL     1      48.706   7.619  14.416  0.00  0.00    +0.000 N 
ATOM      4  H   UNL     1      48.713   6.602  14.437  0.00  0.00    +0.000 HD
ENDROOT
BRANCH   1  11
ATOM      5  N   UNL     1      52.019   3.529  19.016  0.00  0.00    +0.000 N 
ATOM      6  C   UNL     1      51.703   4.514  18.137  0.00  0.00    +0.000 A 
ATOM      7  N   UNL     1      52.643   5.214  17.570  0.00  0.00    +0.000 NA
ATOM      8  C   UNL     1      52.180   6.166  16.726  0.00  0.00    +0.000 A 
ATOM      9  N   UNL     1      52.992   7.011  16.031  0.00  0.00    +0.000 N 
ATOM     10  C   UNL     1      52.213   7.865  15.291  0.00  0.00    +0.000 A 
ATOM     11  C   UNL     1      50.868   7.573  15.510  0.00  0.00    +0.000 A 
ATOM     12  C   UNL     1      50.873   6.467  16.412  0.00  0.00    +0.000 A 
ATOM     13  C   UNL     1      49.855   5.658  17.032  0.00  0.00    +0.000 A 
ATOM     14  O   UNL     1      48.652   5.777  16.813  0.00  0.00    +0.000 OA
ATOM     15  N   UNL     1      50.360   4.715  17.906  0.00  0.00    +0.000 N 
ATOM     16  H   UNL     1      52.986   3.580  19.320  0.00  0.00    +0.000 HD
ATOM     17  H   UNL     1      51.375   3.362  19.777  0.00  0.00    +0.000 HD
ATOM     18  H   UNL     1      54.003   6.999  16.072  0.00  0.00    +0.000 HD
ATOM     19  H   UNL     1      49.682   4.106  18.330  0.00  0.00    +0.000 HD
ENDBRANCH   1  11
BRANCH   3  20
ATOM     20  C   UNL     1      47.569   8.289  13.831  0.00  0.00    +0.000 C 
BRANCH  20  21
ATOM     21  C   UNL     1      46.700   7.348  13.037  0.00  0.00    +0.000 A 
ATOM     22  C   UNL     1      46.859   5.961  13.144  0.00  0.00    +0.000 A 
ATOM     23  C   UNL     1      46.066   5.090  12.387  0.00  0.00    +0.000 A 
ATOM     24  C   UNL     1      45.094   5.586  11.500  0.00  0.00    +0.000 A 
ATOM     25  C   UNL     1      44.939   6.976  11.395  0.00  0.00    +0.000 A 
ATOM     26  C   UNL     1      45.733   7.845  12.152  0.00  0.00    +0.000 A 
BRANCH  24  27
ATOM     27  C   UNL     1      44.241   4.621  10.688  0.00  0.00    +0.000 C 
BRANCH  27  28
ATOM     28  C   UNL     1      44.933   3.898   9.549  0.00  0.00    +0.000 A 
ATOM     29  C   UNL     1      44.986   2.497   9.500  0.00  0.00    +0.000 A 
ATOM     30  C   UNL     1      45.715   1.852   8.506  0.00  0.00    +0.000 A 
ATOM     31  C   UNL     1      46.386   2.631   7.581  0.00  0.00    +0.000 A 
ATOM     32  N   UNL     1      46.365   3.980   7.583  0.00  0.00    +0.000 NA
ATOM     33  C   UNL     1      45.648   4.579   8.565  0.00  0.00    +0.000 A 
ENDBRANCH  27  28
BRANCH  27  34
ATOM     34  O   UNL     1      43.086   5.300  10.183  0.00  0.00    +0.000 OA
ATOM     35  H   UNL     1      42.954   5.026   9.263  0.00  0.00    +0.000 HD
ENDBRANCH  27  34
ENDBRANCH  24  27
ENDBRANCH  20  21
ENDBRANCH   3  20
TORSDOF 6
ENDMDL
MODEL 9
REMARK VINA RESULT:    -6.913      3.625      9.158
REMARK INTER + INTRA:          -9.870
REMARK INTER:                  -8.904
REMARK INTRA:                  -0.966
REMARK UNBOUND:                -0.734
REMARK  Name = 
REMARK  6 active torsions:
REMARK  status: ('A' for Active; 'I' for Inactive)
REMARK    1  A    between atoms: C_7  and  C_8
REMARK    2  A    between atoms: N_10  and  C_11
REMARK    3  A    between atoms: C_11  and  C_12
REMARK    4  A    between atoms: C_15  and  C_16
REMARK    5  A    between atoms: C_16  and  O_17
REMARK    6  A    between atoms: C_16  and  C_18
REMARK                            x       y       z     vdW  Elec       q    Type
REMARK                         _______ _______ _______ _____ _____    ______ ____
ROOT
ATOM      1  C   UNL     1      46.687   7.414  12.750  0.00  0.00    +0.000 C 
ATOM      2  O   UNL     1      47.221   8.344  12.149  0.00  0.00    +0.000 OA
ATOM      3  N   UNL     1      47.151   6.984  13.971  0.00  0.00    +0.000 N 
ATOM      4  H   UNL     1      46.666   6.247  14.478  0.00  0.00    +0.000 HD
ENDROOT
BRANCH   1  11
ATOM      5  N   UNL     1      43.221   1.774  11.608  0.00  0.00    +0.000 N 
ATOM      6  C   UNL     1      43.808   2.986  11.784  0.00  0.00    +0.000 A 
ATOM      7  N   UNL     1      43.300   4.048  11.228  0.00  0.00    +0.000 NA
ATOM      8  C   UNL     1      43.995   5.182  11.482  0.00  0.00    +0.000 A 
ATOM      9  N   UNL     1      43.639   6.404  10.997  0.00  0.00    +0.000 N 
ATOM     10  C   UNL     1      44.560   7.331  11.416  0.00  0.00    +0.000 A 
ATOM     11  C   UNL     1      45.536   6.701  12.186  0.00  0.00    +0.000 A 
ATOM     12  C   UNL     1      45.139   5.331  12.234  0.00  0.00    +0.000 A 
ATOM     13  C   UNL     1      45.663   4.144  12.859  0.00  0.00    +0.000 A 
ATOM     14  O   UNL     1      46.647   4.131  13.597  0.00  0.00    +0.000 OA
ATOM     15  N   UNL     1      44.946   3.003  12.559  0.00  0.00    +0.000 N 
ATOM     16  H   UNL     1      42.540   1.782  10.854  0.00  0.00    +0.000 HD
ATOM     17  H   UNL     1      43.827   0.965  11.583  0.00  0.00    +0.000 HD
ATOM     18  H   UNL     1      42.828   6.578  10.419  0.00  0.00    +0.000 HD
ATOM     19  H   UNL     1      45.260   2.160  13.008  0.00  0.00    +0.000 HD
ENDBRANCH   1  11
BRANCH   3  20
ATOM     20  C   UNL     1      48.304   7.599  14.583  0.00  0.00    +0.000 C 
BRANCH  20  21
ATOM     21  C   UNL     1      48.670   6.946  15.892  0.00  0.00    +0.000 A 
ATOM     22  C   UNL     1      48.264   5.637  16.179  0.00  0.00    +0.000 A 
ATOM     23  C   UNL     1      48.587   5.042  17.405  0.00  0.00    +0.000 A 
ATOM     24  C   UNL     1      49.321   5.743  18.376  0.00  0.00    +0.000 A 
ATOM     25  C   UNL     1      49.725   7.056  18.085  0.00  0.00    +0.000 A 
ATOM     26  C   UNL     1      49.401   7.649  16.859  0.00  0.00    +0.000 A 
BRANCH  24  27
ATOM     27  C   UNL     1      49.663   5.077  19.702  0.00  0.00    +0.000 C 
BRANCH  27  28
ATOM     28  C   UNL     1      51.082   4.568  19.860  0.00  0.00    +0.000 A 
ATOM     29  C   UNL     1      51.800   4.766  21.049  0.00  0.00    +0.000 A 
ATOM     30  C   UNL     1      53.136   4.386  21.139  0.00  0.00    +0.000 A 
ATOM     31  C   UNL     1      53.728   3.821  20.025  0.00  0.00    +0.000 A 
ATOM     32  N   UNL     1      53.082   3.607  18.860  0.00  0.00    +0.000 NA
ATOM     33  C   UNL     1      51.782   3.988  18.803  0.00  0.00    +0.000 A 
ENDBRANCH  27  28
BRANCH  27  34
ATOM     34  O   UNL     1      48.746   4.007  19.959  0.00  0.00    +0.000 OA
ATOM     35  H   UNL     1      47.911   4.393  20.265  0.00  0.00    +0.000 HD
ENDBRANCH  27  34
ENDBRANCH  24  27
ENDBRANCH  20  21
ENDBRANCH   3  20
TORSDOF 6
ENDMDL
