MODEL 1
REMARK VINA RESULT:    -7.410      0.000      0.000
REMARK INTER + INTRA:         -11.851
REMARK INTER:                 -10.660
REMARK INTRA:                  -1.191
REMARK UNBOUND:                -1.191
REMARK  Name = 
REMARK  9 active torsions:
REMARK  status: ('A' for Active; 'I' for Inactive)
REMARK    1  A    between atoms: C_1  and  N_2
REMARK    2  A    between atoms: N_2  and  C_3
REMARK    3  A    between atoms: C_3  and  C_4
REMARK    4  A    between atoms: C_7  and  C_8
REMARK    5  A    between atoms: C_8  and  N_9
REMARK    6  A    between atoms: N_9  and  C_10
REMARK    7  A    between atoms: C_10  and  C_11
REMARK    8  A    between atoms: C_13  and  O_14
REMARK    9  A    between atoms: C_19  and  C_21
REMARK                            x       y       z     vdW  Elec       q    Type
REMARK                         _______ _______ _______ _____ _____    ______ ____
ROOT
ATOM      1  C   UNL     1      46.727   6.827  13.178  0.00  0.00    +0.000 A 
ATOM      2  C   UNL     1      46.480   5.484  13.504  0.00  0.00    +0.000 A 
ATOM      3  C   UNL     1      45.814   4.651  12.607  0.00  0.00    +0.000 A 
ATOM      4  C   UNL     1      45.357   5.151  11.380  0.00  0.00    +0.000 A 
ATOM      5  C   UNL     1      45.583   6.500  11.070  0.00  0.00    +0.000 A 
ATOM      6  C   UNL     1      46.263   7.332  11.959  0.00  0.00    +0.000 A 
ENDROOT
BRANCH   1   7
ATOM      7  C   UNL     1      47.529   7.696  14.106  0.00  0.00    +0.000 C 
BRANCH   7   9
ATOM      8  C   UNL     1      49.851   7.788  13.067  0.00  0.00    +0.000 C 
ATOM      9  N   UNL     1      48.973   7.445  14.182  0.00  0.00    +0.000 N 
ATOM     10  C   UNL     1      49.614   6.880  15.299  0.00  0.00    +0.000 C 
ATOM     11  O   UNL     1      50.834   6.719  15.312  0.00  0.00    +0.000 OA
BRANCH  10  12
ATOM     12  C   UNL     1      48.820   6.441  16.454  0.00  0.00    +0.000 A 
ATOM     13  C   UNL     1      48.387   5.142  16.667  0.00  0.00    +0.000 A 
ATOM     14  S   UNL     1      47.540   4.931  18.134  0.00  0.00    +0.000 S 
ATOM     15  C   UNL     1      47.861   6.532  18.609  0.00  0.00    +0.000 A 
ATOM     16  N   UNL     1      47.500   6.981  19.838  0.00  0.00    +0.000 NA
ATOM     17  C   UNL     1      47.876   8.193  20.084  0.00  0.00    +0.000 A 
ATOM     18  N   UNL     1      48.542   9.004  19.201  0.00  0.00    +0.000 N 
ATOM     19  C   UNL     1      48.807   8.638  17.898  0.00  0.00    +0.000 A 
ATOM     20  O   UNL     1      49.189   9.462  17.077  0.00  0.00    +0.000 OA
ATOM     21  C   UNL     1      48.514   7.243  17.615  0.00  0.00    +0.000 A 
ATOM     22  H   UNL     1      48.751   9.963  19.436  0.00  0.00    +0.000 HD
ENDBRANCH  10  12
ENDBRANCH   7   9
ENDBRANCH   1   7
BRANCH   4  23
ATOM     23  C   UNL     1      44.732   4.253  10.337  0.00  0.00    +0.000 C 
BRANCH  23  24
ATOM     24  N   UNL     1      44.897   4.764   8.978  0.00  0.00    +0.000 NA
ATOM     25  H   UNL     1      45.827   5.181   8.888  0.00  0.00    +0.000 HD
BRANCH  24  26
ATOM     26  C   UNL     1      44.809   3.671   8.004  0.00  0.00    +0.000 C 
BRANCH  26  27
ATOM     27  C   UNL     1      46.217   3.143   7.685  0.00  0.00    +0.000 C 
ATOM     28  C   UNL     1      46.522   3.161   6.193  0.00  0.00    +0.000 C 
ATOM     29  C   UNL     1      47.601   2.106   6.064  0.00  0.00    +0.000 C 
ATOM     30  C   UNL     1      47.166   1.042   7.071  0.00  0.00    +0.000 C 
ATOM     31  N   UNL     1      46.403   1.740   8.119  0.00  0.00    +0.000 NA
ATOM     32  H   UNL     1      46.913   1.732   9.002  0.00  0.00    +0.000 HD
BRANCH  29  33
ATOM     33  O   UNL     1      48.869   2.656   6.418  0.00  0.00    +0.000 OA
ATOM     34  H   UNL     1      48.805   2.994   7.329  0.00  0.00    +0.000 HD
ENDBRANCH  29  33
ENDBRANCH  26  27
ENDBRANCH  24  26
ENDBRANCH  23  24
ENDBRANCH   4  23
TORSDOF 8
ENDMDL
MODEL 2
REMARK VINA RESULT:    -7.345      1.479      2.139
REMARK INTER + INTRA:         -11.756
REMARK INTER:                 -10.737
REMARK INTRA:                  -1.019
REMARK UNBOUND:                -1.191
REMARK  Name = 
REMARK  9 active torsions:
REMARK  status: ('A' for Active; 'I' for Inactive)
REMARK    1  A    between atoms: C_1  and  N_2
REMARK    2  A    between atoms: N_2  and  C_3
REMARK    3  A    between atoms: C_3  and  C_4
REMARK    4  A    between atoms: C_7  and  C_8
REMARK    5  A    between atoms: C_8  and  N_9
REMARK    6  A    between atoms: N_9  and  C_10
REMARK    7  A    between atoms: C_10  and  C_11
REMARK    8  A    between atoms: C_13  and  O_14
REMARK    9  A    between atoms: C_19  and  C_21
REMARK                            x       y       z     vdW  Elec       q    Type
REMARK                         _______ _______ _______ _____ _____    ______ ____
ROOT
ATOM      1  C   UNL     1      46.524   6.519  12.879  0.00  0.00    +0.000 A 
ATOM      2  C   UNL     1      45.774   6.856  11.741  0.00  0.00    +0.000 A 
ATOM      3  C   UNL     1      44.982   5.898  11.110  0.00  0.00    +0.000 A 
ATOM      4  C   UNL     1      44.947   4.580  11.585  0.00  0.00    +0.000 A 
ATOM      5  C   UNL     1      45.718   4.243  12.707  0.00  0.00    +0.000 A 
ATOM      6  C   UNL     1      46.500   5.203  13.350  0.00  0.00    +0.000 A 
ENDROOT
BRANCH   1   7
ATOM      7  C   UNL     1      47.301   7.577  13.613  0.00  0.00    +0.000 C 
BRANCH   7   9
ATOM      8  C   UNL     1      49.420   7.069  12.296  0.00  0.00    +0.000 C 
ATOM      9  N   UNL     1      48.765   7.521  13.520  0.00  0.00    +0.000 N 
ATOM     10  C   UNL     1      49.633   7.893  14.562  0.00  0.00    +0.000 C 
ATOM     11  O   UNL     1      50.853   7.850  14.413  0.00  0.00    +0.000 OA
BRANCH  10  12
ATOM     12  C   UNL     1      49.082   8.306  15.860  0.00  0.00    +0.000 A 
ATOM     13  C   UNL     1      48.693   9.598  16.178  0.00  0.00    +0.000 A 
ATOM     14  S   UNL     1      48.031   9.750  17.744  0.00  0.00    +0.000 S 
ATOM     15  C   UNL     1      48.094   8.069  17.990  0.00  0.00    +0.000 A 
ATOM     16  N   UNL     1      47.571   7.507  19.110  0.00  0.00    +0.000 NA
ATOM     17  C   UNL     1      47.626   6.216  19.123  0.00  0.00    +0.000 A 
ATOM     18  N   UNL     1      48.190   5.443  18.140  0.00  0.00    +0.000 N 
ATOM     19  C   UNL     1      48.852   5.975  17.054  0.00  0.00    +0.000 A 
ATOM     20  O   UNL     1      49.539   5.268  16.326  0.00  0.00    +0.000 OA
ATOM     21  C   UNL     1      48.709   7.416  16.934  0.00  0.00    +0.000 A 
ATOM     22  H   UNL     1      48.254   4.441  18.243  0.00  0.00    +0.000 HD
ENDBRANCH  10  12
ENDBRANCH   7   9
ENDBRANCH   1   7
BRANCH   4  23
ATOM     23  C   UNL     1      44.017   3.545  10.997  0.00  0.00    +0.000 C 
BRANCH  23  24
ATOM     24  N   UNL     1      44.708   2.583  10.141  0.00  0.00    +0.000 NA
ATOM     25  H   UNL     1      44.158   1.722  10.094  0.00  0.00    +0.000 HD
BRANCH  24  26
ATOM     26  C   UNL     1      44.829   3.104   8.776  0.00  0.00    +0.000 C 
BRANCH  26  27
ATOM     27  C   UNL     1      46.193   2.711   8.188  0.00  0.00    +0.000 C 
ATOM     28  C   UNL     1      46.310   3.051   6.708  0.00  0.00    +0.000 C 
ATOM     29  C   UNL     1      47.380   2.090   6.233  0.00  0.00    +0.000 C 
ATOM     30  C   UNL     1      47.089   0.824   7.037  0.00  0.00    +0.000 C 
ATOM     31  N   UNL     1      46.453   1.257   8.292  0.00  0.00    +0.000 NA
ATOM     32  H   UNL     1      47.069   1.088   9.087  0.00  0.00    +0.000 HD
BRANCH  29  33
ATOM     33  O   UNL     1      48.675   2.605   6.541  0.00  0.00    +0.000 OA
ATOM     34  H   UNL     1      49.256   2.425   5.781  0.00  0.00    +0.000 HD
ENDBRANCH  29  33
ENDBRANCH  26  27
ENDBRANCH  24  26
ENDBRANCH  23  24
ENDBRANCH   4  23
TORSDOF 8
ENDMDL
MODEL 3
REMARK VINA RESULT:    -7.162      1.964      2.545
REMARK INTER + INTRA:         -11.494
REMARK INTER:                 -10.568
REMARK INTRA:                  -0.926
REMARK UNBOUND:                -1.191
REMARK  Name = 
REMARK  9 active torsions:
REMARK  status: ('A' for Active; 'I' for Inactive)
REMARK    1  A    between atoms: C_1  and  N_2
REMARK    2  A    between atoms: N_2  and  C_3
REMARK    3  A    between atoms: C_3  and  C_4
REMARK    4  A    between atoms: C_7  and  C_8
REMARK    5  A    between atoms: C_8  and  N_9
REMARK    6  A    between atoms: N_9  and  C_10
REMARK    7  A    between atoms: C_10  and  C_11
REMARK    8  A    between atoms: C_13  and  O_14
REMARK    9  A    between atoms: C_19  and  C_21
REMARK                            x       y       z     vdW  Elec       q    Type
REMARK                         _______ _______ _______ _____ _____    ______ ____
ROOT
ATOM      1  C   UNL     1      47.342   5.903  12.939  0.00  0.00    +0.000 A 
ATOM      2  C   UNL     1      46.480   4.861  13.318  0.00  0.00    +0.000 A 
ATOM      3  C   UNL     1      45.378   4.536  12.529  0.00  0.00    +0.000 A 
ATOM      4  C   UNL     1      45.101   5.262  11.362  0.00  0.00    +0.000 A 
ATOM      5  C   UNL     1      45.952   6.318  11.002  0.00  0.00    +0.000 A 
ATOM      6  C   UNL     1      47.063   6.636  11.782  0.00  0.00    +0.000 A 
ENDROOT
BRANCH   1   7
ATOM      7  C   UNL     1      48.581   6.188  13.742  0.00  0.00    +0.000 C 
BRANCH   7   9
ATOM      8  C   UNL     1      48.448   8.651  14.372  0.00  0.00    +0.000 C 
ATOM      9  N   UNL     1      48.496   7.244  14.758  0.00  0.00    +0.000 N 
ATOM     10  C   UNL     1      48.447   7.000  16.141  0.00  0.00    +0.000 C 
ATOM     11  O   UNL     1      48.348   7.928  16.943  0.00  0.00    +0.000 OA
BRANCH  10  12
ATOM     12  C   UNL     1      48.550   5.624  16.646  0.00  0.00    +0.000 A 
ATOM     13  C   UNL     1      47.521   4.695  16.624  0.00  0.00    +0.000 A 
ATOM     14  S   UNL     1      47.968   3.160  17.222  0.00  0.00    +0.000 S 
ATOM     15  C   UNL     1      49.592   3.638  17.381  0.00  0.00    +0.000 A 
ATOM     16  N   UNL     1      50.549   2.748  17.750  0.00  0.00    +0.000 NA
ATOM     17  C   UNL     1      51.745   3.236  17.756  0.00  0.00    +0.000 A 
ATOM     18  N   UNL     1      52.064   4.538  17.465  0.00  0.00    +0.000 N 
ATOM     19  C   UNL     1      51.114   5.507  17.220  0.00  0.00    +0.000 A 
ATOM     20  O   UNL     1      51.415   6.694  17.196  0.00  0.00    +0.000 OA
ATOM     21  C   UNL     1      49.767   4.979  17.081  0.00  0.00    +0.000 A 
ATOM     22  H   UNL     1      53.013   4.869  17.550  0.00  0.00    +0.000 HD
ENDBRANCH  10  12
ENDBRANCH   7   9
ENDBRANCH   1   7
BRANCH   4  23
ATOM     23  C   UNL     1      43.984   4.868  10.424  0.00  0.00    +0.000 C 
BRANCH  23  24
ATOM     24  N   UNL     1      44.457   4.569   9.074  0.00  0.00    +0.000 NA
ATOM     25  H   UNL     1      45.367   5.013   8.932  0.00  0.00    +0.000 HD
BRANCH  24  26
ATOM     26  C   UNL     1      44.640   3.124   8.902  0.00  0.00    +0.000 C 
BRANCH  26  27
ATOM     27  C   UNL     1      46.015   2.844   8.276  0.00  0.00    +0.000 C 
ATOM     28  C   UNL     1      46.094   3.287   6.821  0.00  0.00    +0.000 C 
ATOM     29  C   UNL     1      47.208   2.419   6.272  0.00  0.00    +0.000 C 
ATOM     30  C   UNL     1      46.994   1.088   6.992  0.00  0.00    +0.000 C 
ATOM     31  N   UNL     1      46.352   1.403   8.279  0.00  0.00    +0.000 NA
ATOM     32  H   UNL     1      46.987   1.214   9.055  0.00  0.00    +0.000 HD
BRANCH  29  33
ATOM     33  O   UNL     1      48.477   2.980   6.602  0.00  0.00    +0.000 OA
ATOM     34  H   UNL     1      48.875   2.429   7.298  0.00  0.00    +0.000 HD
ENDBRANCH  29  33
ENDBRANCH  26  27
ENDBRANCH  24  26
ENDBRANCH  23  24
ENDBRANCH   4  23
TORSDOF 8
ENDMDL
MODEL 4
REMARK VINA RESULT:    -7.132      2.178      2.751
REMARK INTER + INTRA:         -11.450
REMARK INTER:                 -10.645
REMARK INTRA:                  -0.805
REMARK UNBOUND:                -1.191
REMARK  Name = 
REMARK  9 active torsions:
REMARK  status: ('A' for Active; 'I' for Inactive)
REMARK    1  A    between atoms: C_1  and  N_2
REMARK    2  A    between atoms: N_2  and  C_3
REMARK    3  A    between atoms: C_3  and  C_4
REMARK    4  A    between atoms: C_7  and  C_8
REMARK    5  A    between atoms: C_8  and  N_9
REMARK    6  A    between atoms: N_9  and  C_10
REMARK    7  A    between atoms: C_10  and  C_11
REMARK    8  A    between atoms: C_13  and  O_14
REMARK    9  A    between atoms: C_19  and  C_21
REMARK                            x       y       z     vdW  Elec       q    Type
REMARK                         _______ _______ _______ _____ _____    ______ ____
ROOT
ATOM      1  C   UNL     1      47.111   5.887  12.738  0.00  0.00    +0.000 A 
ATOM      2  C   UNL     1      46.677   4.724  13.393  0.00  0.00    +0.000 A 
ATOM      3  C   UNL     1      45.669   3.937  12.838  0.00  0.00    +0.000 A 
ATOM      4  C   UNL     1      45.057   4.312  11.634  0.00  0.00    +0.000 A 
ATOM      5  C   UNL     1      45.477   5.489  10.997  0.00  0.00    +0.000 A 
ATOM      6  C   UNL     1      46.496   6.270  11.542  0.00  0.00    +0.000 A 
ENDROOT
BRANCH   1   7
ATOM      7  C   UNL     1      48.263   6.681  13.290  0.00  0.00    +0.000 C 
BRANCH   7   9
ATOM      8  C   UNL     1      46.767   8.674  13.811  0.00  0.00    +0.000 C 
ATOM      9  N   UNL     1      47.939   7.856  14.108  0.00  0.00    +0.000 N 
ATOM     10  C   UNL     1      48.698   8.275  15.215  0.00  0.00    +0.000 C 
ATOM     11  O   UNL     1      48.359   9.254  15.878  0.00  0.00    +0.000 OA
BRANCH  10  12
ATOM     12  C   UNL     1      49.933   7.561  15.569  0.00  0.00    +0.000 A 
ATOM     13  C   UNL     1      51.214   8.032  15.330  0.00  0.00    +0.000 A 
ATOM     14  S   UNL     1      52.444   7.005  15.916  0.00  0.00    +0.000 S 
ATOM     15  C   UNL     1      51.307   5.975  16.648  0.00  0.00    +0.000 A 
ATOM     16  N   UNL     1      51.705   4.932  17.421  0.00  0.00    +0.000 NA
ATOM     17  C   UNL     1      50.731   4.285  17.970  0.00  0.00    +0.000 A 
ATOM     18  N   UNL     1      49.400   4.561  17.785  0.00  0.00    +0.000 N 
ATOM     19  C   UNL     1      48.948   5.521  16.904  0.00  0.00    +0.000 A 
ATOM     20  O   UNL     1      47.765   5.583  16.590  0.00  0.00    +0.000 OA
ATOM     21  C   UNL     1      50.006   6.355  16.359  0.00  0.00    +0.000 A 
ATOM     22  H   UNL     1      48.688   3.975  18.196  0.00  0.00    +0.000 HD
ENDBRANCH  10  12
ENDBRANCH   7   9
ENDBRANCH   1   7
BRANCH   4  23
ATOM     23  C   UNL     1      44.042   3.429  10.947  0.00  0.00    +0.000 C 
BRANCH  23  24
ATOM     24  N   UNL     1      44.654   2.470  10.031  0.00  0.00    +0.000 NA
ATOM     25  H   UNL     1      44.043   1.655   9.941  0.00  0.00    +0.000 HD
BRANCH  24  26
ATOM     26  C   UNL     1      44.803   3.057   8.695  0.00  0.00    +0.000 C 
BRANCH  26  27
ATOM     27  C   UNL     1      46.176   2.686   8.113  0.00  0.00    +0.000 C 
ATOM     28  C   UNL     1      46.300   3.044   6.638  0.00  0.00    +0.000 C 
ATOM     29  C   UNL     1      47.385   2.101   6.161  0.00  0.00    +0.000 C 
ATOM     30  C   UNL     1      47.102   0.822   6.948  0.00  0.00    +0.000 C 
ATOM     31  N   UNL     1      46.451   1.234   8.202  0.00  0.00    +0.000 NA
ATOM     32  H   UNL     1      47.063   1.062   9.000  0.00  0.00    +0.000 HD
BRANCH  29  33
ATOM     33  O   UNL     1      48.671   2.626   6.485  0.00  0.00    +0.000 OA
ATOM     34  H   UNL     1      48.990   2.165   7.281  0.00  0.00    +0.000 HD
ENDBRANCH  29  33
ENDBRANCH  26  27
ENDBRANCH  24  26
ENDBRANCH  23  24
ENDBRANCH   4  23
TORSDOF 8
ENDMDL
MODEL 5
REMARK VINA RESULT:    -7.067      2.663      9.553
REMARK INTER + INTRA:         -11.357
REMARK INTER:                 -10.047
REMARK INTRA:                  -1.310
REMARK UNBOUND:                -1.191
REMARK  Name = 
REMARK  9 active torsions:
REMARK  status: ('A' for Active; 'I' for Inactive)
REMARK    1  A    between atoms: C_1  and  N_2
REMARK    2  A    between atoms: N_2  and  C_3
REMARK    3  A    between atoms: C_3  and  C_4
REMARK    4  A    between atoms: C_7  and  C_8
REMARK    5  A    between atoms: C_8  and  N_9
REMARK    6  A    between atoms: N_9  and  C_10
REMARK    7  A    between atoms: C_10  and  C_11
REMARK    8  A    between atoms: C_13  and  O_14
REMARK    9  A    between atoms: C_19  and  C_21
REMARK                            x       y       z     vdW  Elec       q    Type
REMARK                         _______ _______ _______ _____ _____    ______ ____
ROOT
ATOM      1  C   UNL     1      47.517   5.775  13.639  0.00  0.00    +0.000 A 
ATOM      2  C   UNL     1      46.927   4.604  14.139  0.00  0.00    +0.000 A 
ATOM      3  C   UNL     1      47.072   4.260  15.482  0.00  0.00    +0.000 A 
ATOM      4  C   UNL     1      47.833   5.062  16.343  0.00  0.00    +0.000 A 
ATOM      5  C   UNL     1      48.441   6.218  15.832  0.00  0.00    +0.000 A 
ATOM      6  C   UNL     1      48.285   6.574  14.493  0.00  0.00    +0.000 A 
ENDROOT
BRANCH   1   7
ATOM      7  C   UNL     1      47.279   6.194  12.214  0.00  0.00    +0.000 C 
BRANCH   7   9
ATOM      8  C   UNL     1      46.370   8.568  12.087  0.00  0.00    +0.000 C 
ATOM      9  N   UNL     1      46.174   7.127  11.964  0.00  0.00    +0.000 N 
ATOM     10  C   UNL     1      44.879   6.727  11.590  0.00  0.00    +0.000 C 
ATOM     11  O   UNL     1      44.001   7.560  11.367  0.00  0.00    +0.000 OA
BRANCH  10  12
ATOM     12  C   UNL     1      44.553   5.298  11.495  0.00  0.00    +0.000 A 
ATOM     13  C   UNL     1      43.797   4.597  12.421  0.00  0.00    +0.000 A 
ATOM     14  S   UNL     1      43.535   2.964  11.999  0.00  0.00    +0.000 S 
ATOM     15  C   UNL     1      44.286   3.179  10.490  0.00  0.00    +0.000 A 
ATOM     16  N   UNL     1      44.307   2.179   9.571  0.00  0.00    +0.000 NA
ATOM     17  C   UNL     1      44.846   2.513   8.446  0.00  0.00    +0.000 A 
ATOM     18  N   UNL     1      45.398   3.739   8.171  0.00  0.00    +0.000 N 
ATOM     19  C   UNL     1      45.521   4.736   9.115  0.00  0.00    +0.000 A 
ATOM     20  O   UNL     1      46.220   5.719   8.907  0.00  0.00    +0.000 OA
ATOM     21  C   UNL     1      44.820   4.451  10.356  0.00  0.00    +0.000 A 
ATOM     22  H   UNL     1      45.859   3.912   7.290  0.00  0.00    +0.000 HD
ENDBRANCH  10  12
ENDBRANCH   7   9
ENDBRANCH   1   7
BRANCH   4  23
ATOM     23  C   UNL     1      47.919   4.782  17.825  0.00  0.00    +0.000 C 
BRANCH  23  24
ATOM     24  N   UNL     1      46.761   5.279  18.565  0.00  0.00    +0.000 NA
ATOM     25  H   UNL     1      46.176   4.487  18.841  0.00  0.00    +0.000 HD
BRANCH  24  26
ATOM     26  C   UNL     1      47.188   5.960  19.791  0.00  0.00    +0.000 C 
BRANCH  26  27
ATOM     27  C   UNL     1      47.974   7.232  19.434  0.00  0.00    +0.000 C 
ATOM     28  C   UNL     1      48.424   8.005  20.666  0.00  0.00    +0.000 C 
ATOM     29  C   UNL     1      48.601   9.410  20.127  0.00  0.00    +0.000 C 
ATOM     30  C   UNL     1      47.459   9.540  19.120  0.00  0.00    +0.000 C 
ATOM     31  N   UNL     1      47.172   8.182  18.630  0.00  0.00    +0.000 NA
ATOM     32  H   UNL     1      47.436   8.089  17.649  0.00  0.00    +0.000 HD
BRANCH  29  33
ATOM     33  O   UNL     1      49.868   9.532  19.482  0.00  0.00    +0.000 OA
ATOM     34  H   UNL     1      50.200  10.433  19.644  0.00  0.00    +0.000 HD
ENDBRANCH  29  33
ENDBRANCH  26  27
ENDBRANCH  24  26
ENDBRANCH  23  24
ENDBRANCH   4  23
TORSDOF 8
ENDMDL
MODEL 6
REMARK VINA RESULT:    -7.048      2.581      3.928
REMARK INTER + INTRA:         -11.329
REMARK INTER:                 -10.102
REMARK INTRA:                  -1.227
REMARK UNBOUND:                -1.191
REMARK  Name = 
REMARK  9 active torsions:
REMARK  status: ('A' for Active; 'I' for Inactive)
REMARK    1  A    between atoms: C_1  and  N_2
REMARK    2  A    between atoms: N_2  and  C_3
REMARK    3  A    between atoms: C_3  and  C_4
REMARK    4  A    between atoms: C_7  and  C_8
REMARK    5  A    between atoms: C_8  and  N_9
REMARK    6  A    between atoms: N_9  and  C_10
REMARK    7  A    between atoms: C_10  and  C_11
REMARK    8  A    between atoms: C_13  and  O_14
REMARK    9  A    between atoms: C_19  and  C_21
REMARK                            x       y       z     vdW  Elec       q    Type
REMARK                         _______ _______ _______ _____ _____    ______ ____
ROOT
ATOM      1  C   UNL     1      48.269   6.999  14.353  0.00  0.00    +0.000 A 
ATOM      2  C   UNL     1      47.897   8.244  13.821  0.00  0.00    +0.000 A 
ATOM      3  C   UNL     1      46.783   8.350  12.990  0.00  0.00    +0.000 A 
ATOM      4  C   UNL     1      46.037   7.212  12.652  0.00  0.00    +0.000 A 
ATOM      5  C   UNL     1      46.429   5.968  13.166  0.00  0.00    +0.000 A 
ATOM      6  C   UNL     1      47.534   5.860  14.010  0.00  0.00    +0.000 A 
ENDROOT
BRANCH   1   7
ATOM      7  C   UNL     1      49.413   6.903  15.324  0.00  0.00    +0.000 C 
BRANCH   7   9
ATOM      8  C   UNL     1      49.414   8.869  16.943  0.00  0.00    +0.000 C 
ATOM      9  N   UNL     1      49.199   7.451  16.670  0.00  0.00    +0.000 N 
ATOM     10  C   UNL     1      48.777   6.685  17.771  0.00  0.00    +0.000 C 
ATOM     11  O   UNL     1      48.590   7.208  18.868  0.00  0.00    +0.000 OA
BRANCH  10  12
ATOM     12  C   UNL     1      48.589   5.235  17.625  0.00  0.00    +0.000 A 
ATOM     13  C   UNL     1      47.385   4.622  17.315  0.00  0.00    +0.000 A 
ATOM     14  S   UNL     1      47.500   2.927  17.150  0.00  0.00    +0.000 S 
ATOM     15  C   UNL     1      49.190   2.972  17.330  0.00  0.00    +0.000 A 
ATOM     16  N   UNL     1      49.938   1.849  17.182  0.00  0.00    +0.000 NA
ATOM     17  C   UNL     1      51.211   2.051  17.273  0.00  0.00    +0.000 A 
ATOM     18  N   UNL     1      51.798   3.263  17.535  0.00  0.00    +0.000 N 
ATOM     19  C   UNL     1      51.074   4.400  17.827  0.00  0.00    +0.000 A 
ATOM     20  O   UNL     1      51.622   5.397  18.281  0.00  0.00    +0.000 OA
ATOM     21  C   UNL     1      49.644   4.250  17.615  0.00  0.00    +0.000 A 
ATOM     22  H   UNL     1      52.797   3.339  17.655  0.00  0.00    +0.000 HD
ENDBRANCH  10  12
ENDBRANCH   7   9
ENDBRANCH   1   7
BRANCH   4  23
ATOM     23  C   UNL     1      44.762   7.305  11.847  0.00  0.00    +0.000 C 
BRANCH  23  24
ATOM     24  N   UNL     1      44.689   6.306  10.784  0.00  0.00    +0.000 NA
ATOM     25  H   UNL     1      45.549   5.753  10.785  0.00  0.00    +0.000 HD
BRANCH  24  26
ATOM     26  C   UNL     1      43.573   5.384  11.021  0.00  0.00    +0.000 C 
BRANCH  26  27
ATOM     27  C   UNL     1      43.751   4.119  10.166  0.00  0.00    +0.000 C 
ATOM     28  C   UNL     1      44.985   3.319  10.561  0.00  0.00    +0.000 C 
ATOM     29  C   UNL     1      45.291   2.541   9.297  0.00  0.00    +0.000 C 
ATOM     30  C   UNL     1      44.950   3.536   8.188  0.00  0.00    +0.000 C 
ATOM     31  N   UNL     1      43.912   4.430   8.728  0.00  0.00    +0.000 NA
ATOM     32  H   UNL     1      43.022   4.276   8.255  0.00  0.00    +0.000 HD
BRANCH  29  33
ATOM     33  O   UNL     1      44.460   1.385   9.218  0.00  0.00    +0.000 OA
ATOM     34  H   UNL     1      43.880   1.485   8.443  0.00  0.00    +0.000 HD
ENDBRANCH  29  33
ENDBRANCH  26  27
ENDBRANCH  24  26
ENDBRANCH  23  24
ENDBRANCH   4  23
TORSDOF 8
ENDMDL
MODEL 7
REMARK VINA RESULT:    -6.981      3.749      9.014
REMARK INTER + INTRA:         -11.233
REMARK INTER:                 -10.220
REMARK INTRA:                  -1.013
REMARK UNBOUND:                -1.191
REMARK  Name = 
REMARK  9 active torsions:
REMARK  status: ('A' for Active; 'I' for Inactive)
REMARK    1  A    between atoms: C_1  and  N_2
REMARK    2  A    between atoms: N_2  and  C_3
REMARK    3  A    between atoms: C_3  and  C_4
REMARK    4  A    between atoms: C_7  and  C_8
REMARK    5  A    between atoms: C_8  and  N_9
REMARK    6  A    between atoms: N_9  and  C_10
REMARK    7  A    between atoms: C_10  and  C_11
REMARK    8  A    between atoms: C_13  and  O_14
REMARK    9  A    between atoms: C_19  and  C_21
REMARK                            x       y       z     vdW  Elec       q    Type
REMARK                         _______ _______ _______ _____ _____    ______ ____
ROOT
ATOM      1  C   UNL     1      47.490   5.804  13.623  0.00  0.00    +0.000 A 
ATOM      2  C   UNL     1      46.940   4.660  14.223  0.00  0.00    +0.000 A 
ATOM      3  C   UNL     1      47.188   4.380  15.565  0.00  0.00    +0.000 A 
ATOM      4  C   UNL     1      48.011   5.221  16.327  0.00  0.00    +0.000 A 
ATOM      5  C   UNL     1      48.578   6.349  15.715  0.00  0.00    +0.000 A 
ATOM      6  C   UNL     1      48.320   6.641  14.376  0.00  0.00    +0.000 A 
ENDROOT
BRANCH   1   7
ATOM      7  C   UNL     1      47.144   6.154  12.202  0.00  0.00    +0.000 C 
BRANCH   7   9
ATOM      8  C   UNL     1      46.137   8.493  12.163  0.00  0.00    +0.000 C 
ATOM      9  N   UNL     1      46.000   7.049  11.990  0.00  0.00    +0.000 N 
ATOM     10  C   UNL     1      44.720   6.610  11.609  0.00  0.00    +0.000 C 
ATOM     11  O   UNL     1      43.807   7.413  11.420  0.00  0.00    +0.000 OA
BRANCH  10  12
ATOM     12  C   UNL     1      44.452   5.173  11.466  0.00  0.00    +0.000 A 
ATOM     13  C   UNL     1      43.704   4.416  12.354  0.00  0.00    +0.000 A 
ATOM     14  S   UNL     1      43.515   2.787  11.880  0.00  0.00    +0.000 S 
ATOM     15  C   UNL     1      44.290   3.075  10.395  0.00  0.00    +0.000 A 
ATOM     16  N   UNL     1      44.371   2.104   9.449  0.00  0.00    +0.000 NA
ATOM     17  C   UNL     1      44.921   2.492   8.347  0.00  0.00    +0.000 A 
ATOM     18  N   UNL     1      45.431   3.745   8.120  0.00  0.00    +0.000 N 
ATOM     19  C   UNL     1      45.494   4.718   9.095  0.00  0.00    +0.000 A 
ATOM     20  O   UNL     1      46.159   5.733   8.931  0.00  0.00    +0.000 OA
ATOM     21  C   UNL     1      44.777   4.370  10.310  0.00  0.00    +0.000 A 
ATOM     22  H   UNL     1      45.904   3.962   7.255  0.00  0.00    +0.000 HD
ENDBRANCH  10  12
ENDBRANCH   7   9
ENDBRANCH   1   7
BRANCH   4  23
ATOM     23  C   UNL     1      48.210   5.013  17.809  0.00  0.00    +0.000 C 
BRANCH  23  24
ATOM     24  N   UNL     1      49.073   3.872  18.110  0.00  0.00    +0.000 NA
ATOM     25  H   UNL     1      48.699   3.039  17.650  0.00  0.00    +0.000 HD
BRANCH  24  26
ATOM     26  C   UNL     1      50.424   4.097  17.585  0.00  0.00    +0.000 C 
BRANCH  26  27
ATOM     27  C   UNL     1      51.397   3.077  18.197  0.00  0.00    +0.000 C 
ATOM     28  C   UNL     1      52.841   3.328  17.783  0.00  0.00    +0.000 C 
ATOM     29  C   UNL     1      53.476   1.963  17.960  0.00  0.00    +0.000 C 
ATOM     30  C   UNL     1      52.369   1.008  17.517  0.00  0.00    +0.000 C 
ATOM     31  N   UNL     1      51.091   1.689  17.782  0.00  0.00    +0.000 NA
ATOM     32  H   UNL     1      50.582   1.224  18.533  0.00  0.00    +0.000 HD
BRANCH  29  33
ATOM     33  O   UNL     1      53.814   1.753  19.330  0.00  0.00    +0.000 OA
ATOM     34  H   UNL     1      53.553   2.548  19.827  0.00  0.00    +0.000 HD
ENDBRANCH  29  33
ENDBRANCH  26  27
ENDBRANCH  24  26
ENDBRANCH  23  24
ENDBRANCH   4  23
TORSDOF 8
ENDMDL
MODEL 8
REMARK VINA RESULT:    -6.734      2.666      4.524
REMARK INTER + INTRA:         -10.878
REMARK INTER:                  -9.543
REMARK INTRA:                  -1.334
REMARK UNBOUND:                -1.191
REMARK  Name = 
REMARK  9 active torsions:
REMARK  status: ('A' for Active; 'I' for Inactive)
REMARK    1  A    between atoms: C_1  and  N_2
REMARK    2  A    between atoms: N_2  and  C_3
REMARK    3  A    between atoms: C_3  and  C_4
REMARK    4  A    between atoms: C_7  and  C_8
REMARK    5  A    between atoms: C_8  and  N_9
REMARK    6  A    between atoms: N_9  and  C_10
REMARK    7  A    between atoms: C_10  and  C_11
REMARK    8  A    between atoms: C_13  and  O_14
REMARK    9  A    between atoms: C_19  and  C_21
REMARK                            x       y       z     vdW  Elec       q    Type
REMARK                         _______ _______ _______ _____ _____    ______ ____
ROOT
ATOM      1  C   UNL     1      47.213   5.951  12.559  0.00  0.00    +0.000 A 
ATOM      2  C   UNL     1      46.406   4.940  13.104  0.00  0.00    +0.000 A 
ATOM      3  C   UNL     1      45.225   4.561  12.468  0.00  0.00    +0.000 A 
ATOM      4  C   UNL     1      44.813   5.203  11.293  0.00  0.00    +0.000 A 
ATOM      5  C   UNL     1      45.611   6.230  10.766  0.00  0.00    +0.000 A 
ATOM      6  C   UNL     1      46.801   6.601  11.392  0.00  0.00    +0.000 A 
ENDROOT
BRANCH   1   7
ATOM      7  C   UNL     1      48.533   6.291  13.194  0.00  0.00    +0.000 C 
BRANCH   7   9
ATOM      8  C   UNL     1      48.458   6.323  15.739  0.00  0.00    +0.000 C 
ATOM      9  N   UNL     1      48.497   7.030  14.462  0.00  0.00    +0.000 N 
ATOM     10  C   UNL     1      48.506   8.433  14.553  0.00  0.00    +0.000 C 
ATOM     11  O   UNL     1      48.502   8.994  15.648  0.00  0.00    +0.000 OA
BRANCH  10  12
ATOM     12  C   UNL     1      48.483   9.246  13.330  0.00  0.00    +0.000 A 
ATOM     13  C   UNL     1      47.378   9.938  12.861  0.00  0.00    +0.000 A 
ATOM     14  S   UNL     1      47.683  10.846  11.449  0.00  0.00    +0.000 S 
ATOM     15  C   UNL     1      49.340  10.474  11.506  0.00  0.00    +0.000 A 
ATOM     16  N   UNL     1      50.213  11.032  10.627  0.00  0.00    +0.000 NA
ATOM     17  C   UNL     1      51.446  10.714  10.839  0.00  0.00    +0.000 A 
ATOM     18  N   UNL     1      51.881   9.861  11.822  0.00  0.00    +0.000 N 
ATOM     19  C   UNL     1      51.021   9.166  12.647  0.00  0.00    +0.000 A 
ATOM     20  O   UNL     1      51.426   8.247  13.348  0.00  0.00    +0.000 OA
ATOM     21  C   UNL     1      49.635   9.585  12.528  0.00  0.00    +0.000 A 
ATOM     22  H   UNL     1      52.855   9.607  11.893  0.00  0.00    +0.000 HD
ENDBRANCH  10  12
ENDBRANCH   7   9
ENDBRANCH   1   7
BRANCH   4  23
ATOM     23  C   UNL     1      43.601   4.745  10.516  0.00  0.00    +0.000 C 
BRANCH  23  24
ATOM     24  N   UNL     1      43.936   4.244   9.185  0.00  0.00    +0.000 NA
ATOM     25  H   UNL     1      44.701   4.803   8.800  0.00  0.00    +0.000 HD
BRANCH  24  26
ATOM     26  C   UNL     1      44.401   2.855   9.260  0.00  0.00    +0.000 C 
BRANCH  26  27
ATOM     27  C   UNL     1      45.764   2.723   8.562  0.00  0.00    +0.000 C 
ATOM     28  C   UNL     1      45.764   3.327   7.164  0.00  0.00    +0.000 C 
ATOM     29  C   UNL     1      46.899   2.587   6.486  0.00  0.00    +0.000 C 
ATOM     30  C   UNL     1      46.782   1.176   7.059  0.00  0.00    +0.000 C 
ATOM     31  N   UNL     1      46.175   1.311   8.394  0.00  0.00    +0.000 NA
ATOM     32  H   UNL     1      46.848   1.073   9.123  0.00  0.00    +0.000 HD
BRANCH  29  33
ATOM     33  O   UNL     1      48.149   3.179   6.836  0.00  0.00    +0.000 OA
ATOM     34  H   UNL     1      48.498   3.629   6.045  0.00  0.00    +0.000 HD
ENDBRANCH  29  33
ENDBRANCH  26  27
ENDBRANCH  24  26
ENDBRANCH  23  24
ENDBRANCH   4  23
TORSDOF 8
ENDMDL
MODEL 9
REMARK VINA RESULT:    -6.731      3.518      9.160
REMARK INTER + INTRA:         -10.873
REMARK INTER:                  -9.308
REMARK INTRA:                  -1.565
REMARK UNBOUND:                -1.191
REMARK  Name = 
REMARK  9 active torsions:
REMARK  status: ('A' for Active; 'I' for Inactive)
REMARK    1  A    between atoms: C_1  and  N_2
REMARK    2  A    between atoms: N_2  and  C_3
REMARK    3  A    between atoms: C_3  and  C_4
REMARK    4  A    between atoms: C_7  and  C_8
REMARK    5  A    between atoms: C_8  and  N_9
REMARK    6  A    between atoms: N_9  and  C_10
REMARK    7  A    between atoms: C_10  and  C_11
REMARK    8  A    between atoms: C_13  and  O_14
REMARK    9  A    between atoms: C_19  and  C_21
REMARK                            x       y       z     vdW  Elec       q    Type
REMARK                         _______ _______ _______ _____ _____    ______ ____
ROOT
ATOM      1  C   UNL     1      47.652   5.784  13.937  0.00  0.00    +0.000 A 
ATOM      2  C   UNL     1      46.929   4.655  14.354  0.00  0.00    +0.000 A 
ATOM      3  C   UNL     1      47.036   4.195  15.666  0.00  0.00    +0.000 A 
ATOM      4  C   UNL     1      47.888   4.835  16.576  0.00  0.00    +0.000 A 
ATOM      5  C   UNL     1      48.627   5.947  16.146  0.00  0.00    +0.000 A 
ATOM      6  C   UNL     1      48.511   6.419  14.839  0.00  0.00    +0.000 A 
ENDROOT
BRANCH   1   7
ATOM      7  C   UNL     1      47.461   6.334  12.551  0.00  0.00    +0.000 C 
BRANCH   7   9
ATOM      8  C   UNL     1      46.573   8.658  13.094  0.00  0.00    +0.000 C 
ATOM      9  N   UNL     1      46.455   7.390  12.380  0.00  0.00    +0.000 N 
ATOM     10  C   UNL     1      45.335   7.278  11.537  0.00  0.00    +0.000 C 
ATOM     11  O   UNL     1      44.541   8.210  11.416  0.00  0.00    +0.000 OA
BRANCH  10  12
ATOM     12  C   UNL     1      45.084   6.022  10.817  0.00  0.00    +0.000 A 
ATOM     13  C   UNL     1      45.619   5.701   9.579  0.00  0.00    +0.000 A 
ATOM     14  S   UNL     1      45.194   4.141   9.031  0.00  0.00    +0.000 S 
ATOM     15  C   UNL     1      44.415   3.782  10.497  0.00  0.00    +0.000 A 
ATOM     16  N   UNL     1      43.913   2.543  10.737  0.00  0.00    +0.000 NA
ATOM     17  C   UNL     1      43.417   2.398  11.920  0.00  0.00    +0.000 A 
ATOM     18  N   UNL     1      43.342   3.386  12.868  0.00  0.00    +0.000 N 
ATOM     19  C   UNL     1      43.712   4.692  12.623  0.00  0.00    +0.000 A 
ATOM     20  O   UNL     1      43.418   5.589  13.403  0.00  0.00    +0.000 OA
ATOM     21  C   UNL     1      44.390   4.874  11.350  0.00  0.00    +0.000 A 
ATOM     22  H   UNL     1      42.884   3.221  13.752  0.00  0.00    +0.000 HD
ENDBRANCH  10  12
ENDBRANCH   7   9
ENDBRANCH   1   7
BRANCH   4  23
ATOM     23  C   UNL     1      47.945   4.434  18.031  0.00  0.00    +0.000 C 
BRANCH  23  24
ATOM     24  N   UNL     1      47.076   5.249  18.878  0.00  0.00    +0.000 NA
ATOM     25  H   UNL     1      46.259   4.697  19.147  0.00  0.00    +0.000 HD
BRANCH  24  26
ATOM     26  C   UNL     1      47.773   5.634  20.109  0.00  0.00    +0.000 C 
BRANCH  26  27
ATOM     27  C   UNL     1      48.197   7.109  20.028  0.00  0.00    +0.000 C 
ATOM     28  C   UNL     1      47.342   7.910  19.055  0.00  0.00    +0.000 C 
ATOM     29  C   UNL     1      48.253   9.063  18.687  0.00  0.00    +0.000 C 
ATOM     30  C   UNL     1      49.633   8.410  18.636  0.00  0.00    +0.000 C 
ATOM     31  N   UNL     1      49.594   7.267  19.564  0.00  0.00    +0.000 NA
ATOM     32  H   UNL     1      50.194   7.438  20.371  0.00  0.00    +0.000 HD
BRANCH  29  33
ATOM     33  O   UNL     1      48.201  10.071  19.696  0.00  0.00    +0.000 OA
ATOM     34  H   UNL     1      48.494  10.909  19.296  0.00  0.00    +0.000 HD
ENDBRANCH  29  33
ENDBRANCH  26  27
ENDBRANCH  24  26
ENDBRANCH  23  24
ENDBRANCH   4  23
TORSDOF 8
ENDMDL
