MODEL 1
REMARK VINA RESULT:    -7.901      0.000      0.000
REMARK INTER + INTRA:         -12.939
REMARK INTER:                 -11.596
REMARK INTRA:                  -1.343
REMARK UNBOUND:                -1.343
REMARK  Name = 
REMARK  9 active torsions:
REMARK  status: ('A' for Active; 'I' for Inactive)
REMARK    1  A    between atoms: C_1  and  O_2
REMARK    2  A    between atoms: O_2  and  C_3
REMARK    3  A    between atoms: C_10  and  C_11
REMARK    4  A    between atoms: N_13  and  C_14
REMARK    5  A    between atoms: C_14  and  C_15
REMARK    6  A    between atoms: C_18  and  C_19
REMARK    7  A    between atoms: C_19  and  O_20
REMARK    8  A    between atoms: O_20  and  C_21
REMARK    9  A    between atoms: C_21  and  C_22
REMARK                            x       y       z     vdW  Elec       q    Type
REMARK                         _______ _______ _______ _____ _____    ______ ____
ROOT
ATOM      1  C   UNL     1      47.755   7.105  13.129  0.00  0.00    +0.000 C 
ENDROOT
BRANCH   1   2
ATOM      2  C   UNL     1      46.697   6.164  12.617  0.00  0.00    +0.000 A 
ATOM      3  C   UNL     1      46.298   5.058  13.379  0.00  0.00    +0.000 A 
ATOM      4  C   UNL     1      45.354   4.160  12.880  0.00  0.00    +0.000 A 
ATOM      5  C   UNL     1      44.794   4.349  11.609  0.00  0.00    +0.000 A 
ATOM      6  C   UNL     1      45.197   5.451  10.844  0.00  0.00    +0.000 A 
ATOM      7  C   UNL     1      46.142   6.350  11.344  0.00  0.00    +0.000 A 
BRANCH   5   8
ATOM      8  C   UNL     1      43.744   3.397  11.089  0.00  0.00    +0.000 C 
BRANCH   8   9
ATOM      9  O   UNL     1      43.859   3.197   9.680  0.00  0.00    +0.000 OA
BRANCH   9  10
ATOM     10  C   UNL     1      44.511   1.968   9.353  0.00  0.00    +0.000 C 
BRANCH  10  11
ATOM     11  C   UNL     1      45.640   2.217   8.388  0.00  0.00    +0.000 A 
ATOM     12  C   UNL     1      46.467   1.160   7.995  0.00  0.00    +0.000 A 
ATOM     13  C   UNL     1      47.479   1.409   7.079  0.00  0.00    +0.000 A 
ATOM     14  N   UNL     1      47.712   2.618   6.530  0.00  0.00    +0.000 NA
ATOM     15  C   UNL     1      46.897   3.625   6.916  0.00  0.00    +0.000 A 
ATOM     16  C   UNL     1      45.859   3.474   7.822  0.00  0.00    +0.000 A 
ENDBRANCH  10  11
ENDBRANCH   9  10
ENDBRANCH   8   9
ENDBRANCH   5   8
ENDBRANCH   1   2
BRANCH   1  19
ATOM     17  C   UNL     1      48.849   6.985  15.320  0.00  0.00    +0.000 C 
ATOM     18  O   UNL     1      49.931   6.746  14.788  0.00  0.00    +0.000 OA
ATOM     19  N   UNL     1      47.722   7.170  14.571  0.00  0.00    +0.000 N 
ATOM     20  H   UNL     1      46.827   7.322  15.018  0.00  0.00    +0.000 HD
BRANCH  17  28
ATOM     21  C   UNL     1      48.846   4.651  17.861  0.00  0.00    +0.000 A 
ATOM     22  N   UNL     1      48.820   3.976  19.028  0.00  0.00    +0.000 NA
ATOM     23  C   UNL     1      48.662   4.673  20.156  0.00  0.00    +0.000 A 
ATOM     24  N   UNL     1      48.523   5.991  20.268  0.00  0.00    +0.000 NA
ATOM     25  C   UNL     1      48.563   6.626  19.084  0.00  0.00    +0.000 A 
ATOM     26  S   UNL     1      48.399   8.315  19.040  0.00  0.00    +0.000 S 
ATOM     27  C   UNL     1      48.541   8.332  17.348  0.00  0.00    +0.000 A 
ATOM     28  C   UNL     1      48.721   7.074  16.783  0.00  0.00    +0.000 A 
ATOM     29  C   UNL     1      48.730   6.051  17.827  0.00  0.00    +0.000 A 
BRANCH  21  31
ATOM     30  C   UNL     1      47.856   3.282  16.245  0.00  0.00    +0.000 C 
ATOM     31  O   UNL     1      49.044   3.928  16.702  0.00  0.00    +0.000 OA
ENDBRANCH  21  31
ENDBRANCH  17  28
ENDBRANCH   1  19
TORSDOF 8
ENDMDL
MODEL 2
REMARK VINA RESULT:    -7.492      1.987      3.594
REMARK INTER + INTRA:         -12.338
REMARK INTER:                 -10.936
REMARK INTRA:                  -1.402
REMARK UNBOUND:                -1.343
REMARK  Name = 
REMARK  9 active torsions:
REMARK  status: ('A' for Active; 'I' for Inactive)
REMARK    1  A    between atoms: C_1  and  O_2
REMARK    2  A    between atoms: O_2  and  C_3
REMARK    3  A    between atoms: C_10  and  C_11
REMARK    4  A    between atoms: N_13  and  C_14
REMARK    5  A    between atoms: C_14  and  C_15
REMARK    6  A    between atoms: C_18  and  C_19
REMARK    7  A    between atoms: C_19  and  O_20
REMARK    8  A    between atoms: O_20  and  C_21
REMARK    9  A    between atoms: C_21  and  C_22
REMARK                            x       y       z     vdW  Elec       q    Type
REMARK                         _______ _______ _______ _____ _____    ______ ____
ROOT
ATOM      1  C   UNL     1      46.905   4.397  14.984  0.00  0.00    +0.000 C 
ENDROOT
BRANCH   1   2
ATOM      2  C   UNL     1      46.100   4.407  13.711  0.00  0.00    +0.000 A 
ATOM      3  C   UNL     1      45.399   5.556  13.321  0.00  0.00    +0.000 A 
ATOM      4  C   UNL     1      44.613   5.547  12.168  0.00  0.00    +0.000 A 
ATOM      5  C   UNL     1      44.510   4.389  11.386  0.00  0.00    +0.000 A 
ATOM      6  C   UNL     1      45.206   3.238  11.779  0.00  0.00    +0.000 A 
ATOM      7  C   UNL     1      45.992   3.248  12.932  0.00  0.00    +0.000 A 
BRANCH   5   8
ATOM      8  C   UNL     1      43.691   4.395  10.119  0.00  0.00    +0.000 C 
BRANCH   8   9
ATOM      9  O   UNL     1      44.205   3.481   9.149  0.00  0.00    +0.000 OA
BRANCH   9  10
ATOM     10  C   UNL     1      45.145   4.094   8.265  0.00  0.00    +0.000 C 
BRANCH  10  11
ATOM     11  C   UNL     1      46.063   3.054   7.677  0.00  0.00    +0.000 A 
ATOM     12  C   UNL     1      46.115   1.774   8.234  0.00  0.00    +0.000 A 
ATOM     13  C   UNL     1      46.944   0.825   7.653  0.00  0.00    +0.000 A 
ATOM     14  N   UNL     1      47.704   1.060   6.564  0.00  0.00    +0.000 NA
ATOM     15  C   UNL     1      47.633   2.301   6.033  0.00  0.00    +0.000 A 
ATOM     16  C   UNL     1      46.834   3.314   6.542  0.00  0.00    +0.000 A 
ENDBRANCH  10  11
ENDBRANCH   9  10
ENDBRANCH   8   9
ENDBRANCH   5   8
ENDBRANCH   1   2
BRANCH   1  19
ATOM     17  C   UNL     1      48.645   5.779  16.019  0.00  0.00    +0.000 C 
ATOM     18  O   UNL     1      49.044   4.819  16.675  0.00  0.00    +0.000 OA
ATOM     19  N   UNL     1      47.588   5.656  15.162  0.00  0.00    +0.000 N 
ATOM     20  H   UNL     1      47.238   6.461  14.658  0.00  0.00    +0.000 HD
BRANCH  17  28
ATOM     21  C   UNL     1      49.986   7.984  13.729  0.00  0.00    +0.000 A 
ATOM     22  N   UNL     1      50.556   9.015  13.071  0.00  0.00    +0.000 NA
ATOM     23  C   UNL     1      50.993  10.054  13.787  0.00  0.00    +0.000 A 
ATOM     24  N   UNL     1      50.932  10.197  15.108  0.00  0.00    +0.000 NA
ATOM     25  C   UNL     1      50.350   9.153  15.724  0.00  0.00    +0.000 A 
ATOM     26  S   UNL     1      50.191   9.166  17.413  0.00  0.00    +0.000 S 
ATOM     27  C   UNL     1      49.437   7.645  17.402  0.00  0.00    +0.000 A 
ATOM     28  C   UNL     1      49.284   7.100  16.132  0.00  0.00    +0.000 A 
ATOM     29  C   UNL     1      49.836   8.005  15.126  0.00  0.00    +0.000 A 
BRANCH  21  31
ATOM     30  C   UNL     1      48.448   7.313  12.102  0.00  0.00    +0.000 C 
ATOM     31  O   UNL     1      49.505   6.929  12.981  0.00  0.00    +0.000 OA
ENDBRANCH  21  31
ENDBRANCH  17  28
ENDBRANCH   1  19
TORSDOF 8
ENDMDL
MODEL 3
REMARK VINA RESULT:    -7.347      1.634      3.099
REMARK INTER + INTRA:         -12.125
REMARK INTER:                 -10.860
REMARK INTRA:                  -1.265
REMARK UNBOUND:                -1.343
REMARK  Name = 
REMARK  9 active torsions:
REMARK  status: ('A' for Active; 'I' for Inactive)
REMARK    1  A    between atoms: C_1  and  O_2
REMARK    2  A    between atoms: O_2  and  C_3
REMARK    3  A    between atoms: C_10  and  C_11
REMARK    4  A    between atoms: N_13  and  C_14
REMARK    5  A    between atoms: C_14  and  C_15
REMARK    6  A    between atoms: C_18  and  C_19
REMARK    7  A    between atoms: C_19  and  O_20
REMARK    8  A    between atoms: O_20  and  C_21
REMARK    9  A    between atoms: C_21  and  C_22
REMARK                            x       y       z     vdW  Elec       q    Type
REMARK                         _______ _______ _______ _____ _____    ______ ____
ROOT
ATOM      1  C   UNL     1      47.360   4.004  15.176  0.00  0.00    +0.000 C 
ENDROOT
BRANCH   1   2
ATOM      2  C   UNL     1      46.693   4.390  13.882  0.00  0.00    +0.000 A 
ATOM      3  C   UNL     1      45.966   3.446  13.146  0.00  0.00    +0.000 A 
ATOM      4  C   UNL     1      45.393   3.792  11.922  0.00  0.00    +0.000 A 
ATOM      5  C   UNL     1      45.539   5.088  11.410  0.00  0.00    +0.000 A 
ATOM      6  C   UNL     1      46.271   6.032  12.142  0.00  0.00    +0.000 A 
ATOM      7  C   UNL     1      46.845   5.684  13.367  0.00  0.00    +0.000 A 
BRANCH   5   8
ATOM      8  C   UNL     1      44.884   5.471  10.105  0.00  0.00    +0.000 C 
BRANCH   8   9
ATOM      9  O   UNL     1      45.609   4.972   8.980  0.00  0.00    +0.000 OA
BRANCH   9  10
ATOM     10  C   UNL     1      44.908   3.933   8.295  0.00  0.00    +0.000 C 
BRANCH  10  11
ATOM     11  C   UNL     1      45.881   2.947   7.705  0.00  0.00    +0.000 A 
ATOM     12  C   UNL     1      46.720   3.338   6.657  0.00  0.00    +0.000 A 
ATOM     13  C   UNL     1      47.631   2.420   6.153  0.00  0.00    +0.000 A 
ATOM     14  N   UNL     1      47.767   1.164   6.623  0.00  0.00    +0.000 NA
ATOM     15  C   UNL     1      46.954   0.807   7.641  0.00  0.00    +0.000 A 
ATOM     16  C   UNL     1      46.015   1.653   8.211  0.00  0.00    +0.000 A 
ENDBRANCH  10  11
ENDBRANCH   9  10
ENDBRANCH   8   9
ENDBRANCH   5   8
ENDBRANCH   1   2
BRANCH   1  19
ATOM     17  C   UNL     1      48.613   5.278  16.855  0.00  0.00    +0.000 C 
ATOM     18  O   UNL     1      49.462   4.391  16.921  0.00  0.00    +0.000 OA
ATOM     19  N   UNL     1      47.538   5.162  16.020  0.00  0.00    +0.000 N 
ATOM     20  H   UNL     1      46.822   5.876  16.002  0.00  0.00    +0.000 HD
BRANCH  17  28
ATOM     21  C   UNL     1      48.780   8.643  16.112  0.00  0.00    +0.000 A 
ATOM     22  N   UNL     1      48.848   9.990  16.116  0.00  0.00    +0.000 NA
ATOM     23  C   UNL     1      48.934  10.613  17.293  0.00  0.00    +0.000 A 
ATOM     24  N   UNL     1      48.961  10.048  18.497  0.00  0.00    +0.000 NA
ATOM     25  C   UNL     1      48.882   8.707  18.450  0.00  0.00    +0.000 A 
ATOM     26  S   UNL     1      48.906   7.821  19.897  0.00  0.00    +0.000 S 
ATOM     27  C   UNL     1      48.783   6.352  19.055  0.00  0.00    +0.000 A 
ATOM     28  C   UNL     1      48.716   6.496  17.674  0.00  0.00    +0.000 A 
ATOM     29  C   UNL     1      48.779   7.911  17.312  0.00  0.00    +0.000 A 
BRANCH  21  31
ATOM     30  C   UNL     1      49.919   7.701  14.302  0.00  0.00    +0.000 C 
ATOM     31  O   UNL     1      48.657   8.006  14.894  0.00  0.00    +0.000 OA
ENDBRANCH  21  31
ENDBRANCH  17  28
ENDBRANCH   1  19
TORSDOF 8
ENDMDL
MODEL 4
REMARK VINA RESULT:    -7.177      1.543      2.648
REMARK INTER + INTRA:         -11.876
REMARK INTER:                 -10.525
REMARK INTRA:                  -1.351
REMARK UNBOUND:                -1.343
REMARK  Name = 
REMARK  9 active torsions:
REMARK  status: ('A' for Active; 'I' for Inactive)
REMARK    1  A    between atoms: C_1  and  O_2
REMARK    2  A    between atoms: O_2  and  C_3
REMARK    3  A    between atoms: C_10  and  C_11
REMARK    4  A    between atoms: N_13  and  C_14
REMARK    5  A    between atoms: C_14  and  C_15
REMARK    6  A    between atoms: C_18  and  C_19
REMARK    7  A    between atoms: C_19  and  O_20
REMARK    8  A    between atoms: O_20  and  C_21
REMARK    9  A    between atoms: C_21  and  C_22
REMARK                            x       y       z     vdW  Elec       q    Type
REMARK                         _______ _______ _______ _____ _____    ______ ____
ROOT
ATOM      1  C   UNL     1      47.616   7.900  13.165  0.00  0.00    +0.000 C 
ENDROOT
BRANCH   1   2
ATOM      2  C   UNL     1      46.605   7.074  12.415  0.00  0.00    +0.000 A 
ATOM      3  C   UNL     1      45.429   6.644  13.044  0.00  0.00    +0.000 A 
ATOM      4  C   UNL     1      44.518   5.836  12.362  0.00  0.00    +0.000 A 
ATOM      5  C   UNL     1      44.767   5.440  11.042  0.00  0.00    +0.000 A 
ATOM      6  C   UNL     1      45.946   5.865  10.414  0.00  0.00    +0.000 A 
ATOM      7  C   UNL     1      46.857   6.673  11.097  0.00  0.00    +0.000 A 
BRANCH   5   8
ATOM      8  C   UNL     1      43.761   4.599  10.295  0.00  0.00    +0.000 C 
BRANCH   8   9
ATOM      9  O   UNL     1      44.284   4.119   9.055  0.00  0.00    +0.000 OA
BRANCH   9  10
ATOM     10  C   UNL     1      44.477   2.704   9.055  0.00  0.00    +0.000 C 
BRANCH  10  11
ATOM     11  C   UNL     1      45.679   2.341   8.223  0.00  0.00    +0.000 A 
ATOM     12  C   UNL     1      46.388   3.339   7.549  0.00  0.00    +0.000 A 
ATOM     13  C   UNL     1      47.511   2.983   6.816  0.00  0.00    +0.000 A 
ATOM     14  N   UNL     1      47.973   1.719   6.720  0.00  0.00    +0.000 NA
ATOM     15  C   UNL     1      47.280   0.769   7.385  0.00  0.00    +0.000 A 
ATOM     16  C   UNL     1      46.148   1.028   8.144  0.00  0.00    +0.000 A 
ENDBRANCH  10  11
ENDBRANCH   9  10
ENDBRANCH   8   9
ENDBRANCH   5   8
ENDBRANCH   1   2
BRANCH   1  19
ATOM     17  C   UNL     1      48.776   7.005  15.131  0.00  0.00    +0.000 C 
ATOM     18  O   UNL     1      49.801   6.839  14.473  0.00  0.00    +0.000 OA
ATOM     19  N   UNL     1      47.649   7.521  14.558  0.00  0.00    +0.000 N 
ATOM     20  H   UNL     1      46.796   7.615  15.095  0.00  0.00    +0.000 HD
BRANCH  17  28
ATOM     21  C   UNL     1      48.008   8.769  17.994  0.00  0.00    +0.000 A 
ATOM     22  N   UNL     1      47.751   9.199  19.247  0.00  0.00    +0.000 NA
ATOM     23  C   UNL     1      47.879   8.327  20.250  0.00  0.00    +0.000 A 
ATOM     24  N   UNL     1      48.240   7.051  20.159  0.00  0.00    +0.000 NA
ATOM     25  C   UNL     1      48.478   6.660  18.895  0.00  0.00    +0.000 A 
ATOM     26  S   UNL     1      48.953   5.060  18.593  0.00  0.00    +0.000 S 
ATOM     27  C   UNL     1      49.047   5.352  16.924  0.00  0.00    +0.000 A 
ATOM     28  C   UNL     1      48.719   6.652  16.558  0.00  0.00    +0.000 A 
ATOM     29  C   UNL     1      48.381   7.438  17.743  0.00  0.00    +0.000 A 
BRANCH  21  31
ATOM     30  C   UNL     1      49.022  10.414  16.680  0.00  0.00    +0.000 C 
ATOM     31  O   UNL     1      47.840   9.665  16.958  0.00  0.00    +0.000 OA
ENDBRANCH  21  31
ENDBRANCH  17  28
ENDBRANCH   1  19
TORSDOF 8
ENDMDL
MODEL 5
REMARK VINA RESULT:    -7.051      1.659      2.119
REMARK INTER + INTRA:         -11.691
REMARK INTER:                 -10.475
REMARK INTRA:                  -1.216
REMARK UNBOUND:                -1.343
REMARK  Name = 
REMARK  9 active torsions:
REMARK  status: ('A' for Active; 'I' for Inactive)
REMARK    1  A    between atoms: C_1  and  O_2
REMARK    2  A    between atoms: O_2  and  C_3
REMARK    3  A    between atoms: C_10  and  C_11
REMARK    4  A    between atoms: N_13  and  C_14
REMARK    5  A    between atoms: C_14  and  C_15
REMARK    6  A    between atoms: C_18  and  C_19
REMARK    7  A    between atoms: C_19  and  O_20
REMARK    8  A    between atoms: O_20  and  C_21
REMARK    9  A    between atoms: C_21  and  C_22
REMARK                            x       y       z     vdW  Elec       q    Type
REMARK                         _______ _______ _______ _____ _____    ______ ____
ROOT
ATOM      1  C   UNL     1      46.971   7.701  13.252  0.00  0.00    +0.000 C 
ENDROOT
BRANCH   1   2
ATOM      2  C   UNL     1      46.133   6.574  12.709  0.00  0.00    +0.000 A 
ATOM      3  C   UNL     1      45.553   6.666  11.438  0.00  0.00    +0.000 A 
ATOM      4  C   UNL     1      44.735   5.642  10.958  0.00  0.00    +0.000 A 
ATOM      5  C   UNL     1      44.480   4.509  11.742  0.00  0.00    +0.000 A 
ATOM      6  C   UNL     1      45.055   4.419  13.017  0.00  0.00    +0.000 A 
ATOM      7  C   UNL     1      45.873   5.444  13.496  0.00  0.00    +0.000 A 
BRANCH   5   8
ATOM      8  C   UNL     1      43.627   3.386  11.205  0.00  0.00    +0.000 C 
BRANCH   8   9
ATOM      9  O   UNL     1      43.874   3.147   9.818  0.00  0.00    +0.000 OA
BRANCH   9  10
ATOM     10  C   UNL     1      44.696   1.999   9.599  0.00  0.00    +0.000 C 
BRANCH  10  11
ATOM     11  C   UNL     1      45.690   2.270   8.501  0.00  0.00    +0.000 A 
ATOM     12  C   UNL     1      46.521   1.244   8.043  0.00  0.00    +0.000 A 
ATOM     13  C   UNL     1      47.404   1.511   7.007  0.00  0.00    +0.000 A 
ATOM     14  N   UNL     1      47.507   2.711   6.400  0.00  0.00    +0.000 NA
ATOM     15  C   UNL     1      46.690   3.688   6.851  0.00  0.00    +0.000 A 
ATOM     16  C   UNL     1      45.774   3.517   7.878  0.00  0.00    +0.000 A 
ENDBRANCH  10  11
ENDBRANCH   9  10
ENDBRANCH   8   9
ENDBRANCH   5   8
ENDBRANCH   1   2
BRANCH   1  19
ATOM     17  C   UNL     1      48.617   7.719  15.069  0.00  0.00    +0.000 C 
ATOM     18  O   UNL     1      48.041   8.663  15.606  0.00  0.00    +0.000 OA
ATOM     19  N   UNL     1      48.155   7.187  13.899  0.00  0.00    +0.000 N 
ATOM     20  H   UNL     1      48.659   6.439  13.440  0.00  0.00    +0.000 HD
BRANCH  17  28
ATOM     21  C   UNL     1      49.187   5.011  17.129  0.00  0.00    +0.000 A 
ATOM     22  N   UNL     1      49.694   4.028  17.901  0.00  0.00    +0.000 NA
ATOM     23  C   UNL     1      51.014   3.999  18.097  0.00  0.00    +0.000 A 
ATOM     24  N   UNL     1      51.915   4.847  17.609  0.00  0.00    +0.000 NA
ATOM     25  C   UNL     1      51.370   5.805  16.838  0.00  0.00    +0.000 A 
ATOM     26  S   UNL     1      52.375   6.976  16.133  0.00  0.00    +0.000 S 
ATOM     27  C   UNL     1      51.049   7.739  15.397  0.00  0.00    +0.000 A 
ATOM     28  C   UNL     1      49.828   7.128  15.659  0.00  0.00    +0.000 A 
ATOM     29  C   UNL     1      50.022   5.968  16.528  0.00  0.00    +0.000 A 
BRANCH  21  31
ATOM     30  C   UNL     1      47.067   5.124  18.104  0.00  0.00    +0.000 C 
ATOM     31  O   UNL     1      47.826   5.015  16.901  0.00  0.00    +0.000 OA
ENDBRANCH  21  31
ENDBRANCH  17  28
ENDBRANCH   1  19
TORSDOF 8
ENDMDL
MODEL 6
REMARK VINA RESULT:    -6.922      2.120      2.817
REMARK INTER + INTRA:         -11.502
REMARK INTER:                 -10.501
REMARK INTRA:                  -1.002
REMARK UNBOUND:                -1.343
REMARK  Name = 
REMARK  9 active torsions:
REMARK  status: ('A' for Active; 'I' for Inactive)
REMARK    1  A    between atoms: C_1  and  O_2
REMARK    2  A    between atoms: O_2  and  C_3
REMARK    3  A    between atoms: C_10  and  C_11
REMARK    4  A    between atoms: N_13  and  C_14
REMARK    5  A    between atoms: C_14  and  C_15
REMARK    6  A    between atoms: C_18  and  C_19
REMARK    7  A    between atoms: C_19  and  O_20
REMARK    8  A    between atoms: O_20  and  C_21
REMARK    9  A    between atoms: C_21  and  C_22
REMARK                            x       y       z     vdW  Elec       q    Type
REMARK                         _______ _______ _______ _____ _____    ______ ____
ROOT
ATOM      1  C   UNL     1      47.563   7.394  13.818  0.00  0.00    +0.000 C 
ENDROOT
BRANCH   1   2
ATOM      2  C   UNL     1      46.607   6.689  12.894  0.00  0.00    +0.000 A 
ATOM      3  C   UNL     1      45.944   7.394  11.881  0.00  0.00    +0.000 A 
ATOM      4  C   UNL     1      45.021   6.749  11.058  0.00  0.00    +0.000 A 
ATOM      5  C   UNL     1      44.740   5.388  11.235  0.00  0.00    +0.000 A 
ATOM      6  C   UNL     1      45.398   4.683  12.251  0.00  0.00    +0.000 A 
ATOM      7  C   UNL     1      46.322   5.329  13.074  0.00  0.00    +0.000 A 
BRANCH   5   8
ATOM      8  C   UNL     1      43.770   4.684  10.317  0.00  0.00    +0.000 C 
BRANCH   8   9
ATOM      9  O   UNL     1      44.403   4.229   9.121  0.00  0.00    +0.000 OA
BRANCH   9  10
ATOM     10  C   UNL     1      44.529   2.807   9.075  0.00  0.00    +0.000 C 
BRANCH  10  11
ATOM     11  C   UNL     1      45.727   2.414   8.253  0.00  0.00    +0.000 A 
ATOM     12  C   UNL     1      46.101   1.070   8.161  0.00  0.00    +0.000 A 
ATOM     13  C   UNL     1      47.190   0.732   7.370  0.00  0.00    +0.000 A 
ATOM     14  N   UNL     1      47.912   1.627   6.667  0.00  0.00    +0.000 NA
ATOM     15  C   UNL     1      47.531   2.920   6.761  0.00  0.00    +0.000 A 
ATOM     16  C   UNL     1      46.458   3.355   7.523  0.00  0.00    +0.000 A 
ENDBRANCH  10  11
ENDBRANCH   9  10
ENDBRANCH   8   9
ENDBRANCH   5   8
ENDBRANCH   1   2
BRANCH   1  19
ATOM     17  C   UNL     1      48.690   6.838  15.924  0.00  0.00    +0.000 C 
ATOM     18  O   UNL     1      48.620   8.008  16.292  0.00  0.00    +0.000 OA
ATOM     19  N   UNL     1      48.195   6.451  14.711  0.00  0.00    +0.000 N 
ATOM     20  H   UNL     1      48.295   5.495  14.396  0.00  0.00    +0.000 HD
BRANCH  17  28
ATOM     21  C   UNL     1      51.956   6.042  16.698  0.00  0.00    +0.000 A 
ATOM     22  N   UNL     1      53.108   5.525  17.173  0.00  0.00    +0.000 NA
ATOM     23  C   UNL     1      53.036   4.477  17.996  0.00  0.00    +0.000 A 
ATOM     24  N   UNL     1      51.933   3.864  18.416  0.00  0.00    +0.000 NA
ATOM     25  C   UNL     1      50.808   4.415  17.928  0.00  0.00    +0.000 A 
ATOM     26  S   UNL     1      49.305   3.756  18.360  0.00  0.00    +0.000 S 
ATOM     27  C   UNL     1      48.479   4.904  17.420  0.00  0.00    +0.000 A 
ATOM     28  C   UNL     1      49.312   5.806  16.769  0.00  0.00    +0.000 A 
ATOM     29  C   UNL     1      50.711   5.509  17.072  0.00  0.00    +0.000 A 
BRANCH  21  31
ATOM     30  C   UNL     1      52.099   8.372  16.604  0.00  0.00    +0.000 C 
ATOM     31  O   UNL     1      52.035   7.147  15.876  0.00  0.00    +0.000 OA
ENDBRANCH  21  31
ENDBRANCH  17  28
ENDBRANCH   1  19
TORSDOF 8
ENDMDL
MODEL 7
REMARK VINA RESULT:    -6.525      3.519      8.074
REMARK INTER + INTRA:         -10.920
REMARK INTER:                  -9.189
REMARK INTRA:                  -1.731
REMARK UNBOUND:                -1.343
REMARK  Name = 
REMARK  9 active torsions:
REMARK  status: ('A' for Active; 'I' for Inactive)
REMARK    1  A    between atoms: C_1  and  O_2
REMARK    2  A    between atoms: O_2  and  C_3
REMARK    3  A    between atoms: C_10  and  C_11
REMARK    4  A    between atoms: N_13  and  C_14
REMARK    5  A    between atoms: C_14  and  C_15
REMARK    6  A    between atoms: C_18  and  C_19
REMARK    7  A    between atoms: C_19  and  O_20
REMARK    8  A    between atoms: O_20  and  C_21
REMARK    9  A    between atoms: C_21  and  C_22
REMARK                            x       y       z     vdW  Elec       q    Type
REMARK                         _______ _______ _______ _____ _____    ______ ____
ROOT
ATOM      1  C   UNL     1      47.372   8.652  12.926  0.00  0.00    +0.000 C 
ENDROOT
BRANCH   1   2
ATOM      2  C   UNL     1      48.038   8.181  14.192  0.00  0.00    +0.000 A 
ATOM      3  C   UNL     1      47.769   8.809  15.415  0.00  0.00    +0.000 A 
ATOM      4  C   UNL     1      48.427   8.404  16.577  0.00  0.00    +0.000 A 
ATOM      5  C   UNL     1      49.367   7.366  16.538  0.00  0.00    +0.000 A 
ATOM      6  C   UNL     1      49.642   6.742  15.314  0.00  0.00    +0.000 A 
ATOM      7  C   UNL     1      48.984   7.148  14.151  0.00  0.00    +0.000 A 
BRANCH   5   8
ATOM      8  C   UNL     1      50.047   6.905  17.803  0.00  0.00    +0.000 C 
BRANCH   8   9
ATOM      9  O   UNL     1      49.169   6.139  18.630  0.00  0.00    +0.000 OA
BRANCH   9  10
ATOM     10  C   UNL     1      49.795   4.966  19.153  0.00  0.00    +0.000 C 
BRANCH  10  11
ATOM     11  C   UNL     1      49.736   3.849  18.144  0.00  0.00    +0.000 A 
ATOM     12  C   UNL     1      50.883   3.102  17.863  0.00  0.00    +0.000 A 
ATOM     13  C   UNL     1      50.794   2.057  16.955  0.00  0.00    +0.000 A 
ATOM     14  N   UNL     1      49.653   1.705  16.326  0.00  0.00    +0.000 NA
ATOM     15  C   UNL     1      48.553   2.433  16.617  0.00  0.00    +0.000 A 
ATOM     16  C   UNL     1      48.543   3.493  17.511  0.00  0.00    +0.000 A 
ENDBRANCH  10  11
ENDBRANCH   9  10
ENDBRANCH   8   9
ENDBRANCH   5   8
ENDBRANCH   1   2
BRANCH   1  19
ATOM     17  C   UNL     1      46.948   6.836  11.334  0.00  0.00    +0.000 C 
ATOM     18  O   UNL     1      48.051   7.004  10.819  0.00  0.00    +0.000 OA
ATOM     19  N   UNL     1      46.532   7.613  12.378  0.00  0.00    +0.000 N 
ATOM     20  H   UNL     1      45.606   7.497  12.768  0.00  0.00    +0.000 HD
BRANCH  17  28
ATOM     21  C   UNL     1      44.935   4.507  12.892  0.00  0.00    +0.000 A 
ATOM     22  N   UNL     1      44.069   3.528  13.225  0.00  0.00    +0.000 NA
ATOM     23  C   UNL     1      43.466   2.859  12.240  0.00  0.00    +0.000 A 
ATOM     24  N   UNL     1      43.623   3.046  10.933  0.00  0.00    +0.000 NA
ATOM     25  C   UNL     1      44.487   4.035  10.644  0.00  0.00    +0.000 A 
ATOM     26  S   UNL     1      44.810   4.410   9.021  0.00  0.00    +0.000 S 
ATOM     27  C   UNL     1      45.891   5.640   9.470  0.00  0.00    +0.000 A 
ATOM     28  C   UNL     1      46.027   5.798  10.845  0.00  0.00    +0.000 A 
ATOM     29  C   UNL     1      45.186   4.831  11.548  0.00  0.00    +0.000 A 
BRANCH  21  31
ATOM     30  C   UNL     1      46.691   4.575  14.433  0.00  0.00    +0.000 C 
ATOM     31  O   UNL     1      45.528   5.219  13.915  0.00  0.00    +0.000 OA
ENDBRANCH  21  31
ENDBRANCH  17  28
ENDBRANCH   1  19
TORSDOF 8
ENDMDL
MODEL 8
REMARK VINA RESULT:    -5.911      3.654      8.026
REMARK INTER + INTRA:         -10.018
REMARK INTER:                  -8.399
REMARK INTRA:                  -1.619
REMARK UNBOUND:                -1.343
REMARK  Name = 
REMARK  9 active torsions:
REMARK  status: ('A' for Active; 'I' for Inactive)
REMARK    1  A    between atoms: C_1  and  O_2
REMARK    2  A    between atoms: O_2  and  C_3
REMARK    3  A    between atoms: C_10  and  C_11
REMARK    4  A    between atoms: N_13  and  C_14
REMARK    5  A    between atoms: C_14  and  C_15
REMARK    6  A    between atoms: C_18  and  C_19
REMARK    7  A    between atoms: C_19  and  O_20
REMARK    8  A    between atoms: O_20  and  C_21
REMARK    9  A    between atoms: C_21  and  C_22
REMARK                            x       y       z     vdW  Elec       q    Type
REMARK                         _______ _______ _______ _____ _____    ______ ____
ROOT
ATOM      1  C   UNL     1      48.028   9.364  13.498  0.00  0.00    +0.000 C 
ENDROOT
BRANCH   1   2
ATOM      2  C   UNL     1      48.850   8.692  14.566  0.00  0.00    +0.000 A 
ATOM      3  C   UNL     1      48.477   8.781  15.914  0.00  0.00    +0.000 A 
ATOM      4  C   UNL     1      49.268   8.200  16.906  0.00  0.00    +0.000 A 
ATOM      5  C   UNL     1      50.449   7.525  16.570  0.00  0.00    +0.000 A 
ATOM      6  C   UNL     1      50.826   7.441  15.223  0.00  0.00    +0.000 A 
ATOM      7  C   UNL     1      50.034   8.022  14.231  0.00  0.00    +0.000 A 
BRANCH   5   8
ATOM      8  C   UNL     1      51.281   6.865  17.642  0.00  0.00    +0.000 C 
BRANCH   8   9
ATOM      9  O   UNL     1      51.399   5.457  17.433  0.00  0.00    +0.000 OA
BRANCH   9  10
ATOM     10  C   UNL     1      50.837   4.696  18.503  0.00  0.00    +0.000 C 
BRANCH  10  11
ATOM     11  C   UNL     1      49.456   4.220  18.137  0.00  0.00    +0.000 A 
ATOM     12  C   UNL     1      48.341   5.002  18.453  0.00  0.00    +0.000 A 
ATOM     13  C   UNL     1      47.083   4.556  18.075  0.00  0.00    +0.000 A 
ATOM     14  N   UNL     1      46.866   3.406  17.404  0.00  0.00    +0.000 NA
ATOM     15  C   UNL     1      47.956   2.668  17.100  0.00  0.00    +0.000 A 
ATOM     16  C   UNL     1      49.252   3.031  17.434  0.00  0.00    +0.000 A 
ENDBRANCH  10  11
ENDBRANCH   9  10
ENDBRANCH   8   9
ENDBRANCH   5   8
ENDBRANCH   1   2
BRANCH   1  19
ATOM     17  C   UNL     1      46.850   7.651  12.200  0.00  0.00    +0.000 C 
ATOM     18  O   UNL     1      47.852   7.452  11.516  0.00  0.00    +0.000 OA
ATOM     19  N   UNL     1      46.852   8.583  13.198  0.00  0.00    +0.000 N 
ATOM     20  H   UNL     1      46.010   8.771  13.727  0.00  0.00    +0.000 HD
BRANCH  17  28
ATOM     21  C   UNL     1      45.907   4.377  12.746  0.00  0.00    +0.000 A 
ATOM     22  N   UNL     1      45.277   3.189  12.855  0.00  0.00    +0.000 NA
ATOM     23  C   UNL     1      44.013   3.105  12.435  0.00  0.00    +0.000 A 
ATOM     24  N   UNL     1      43.280   4.080  11.905  0.00  0.00    +0.000 NA
ATOM     25  C   UNL     1      43.941   5.248  11.821  0.00  0.00    +0.000 A 
ATOM     26  S   UNL     1      43.156   6.603  11.166  0.00  0.00    +0.000 S 
ATOM     27  C   UNL     1      44.534   7.569  11.392  0.00  0.00    +0.000 A 
ATOM     28  C   UNL     1      45.606   6.898  11.968  0.00  0.00    +0.000 A 
ATOM     29  C   UNL     1      45.250   5.503  12.222  0.00  0.00    +0.000 A 
BRANCH  21  31
ATOM     30  C   UNL     1      47.280   5.076  14.503  0.00  0.00    +0.000 C 
ATOM     31  O   UNL     1      47.202   4.467  13.215  0.00  0.00    +0.000 OA
ENDBRANCH  21  31
ENDBRANCH  17  28
ENDBRANCH   1  19
TORSDOF 8
ENDMDL
MODEL 9
REMARK VINA RESULT:    -5.391      3.982      8.575
REMARK INTER + INTRA:          -9.255
REMARK INTER:                  -8.162
REMARK INTRA:                  -1.093
REMARK UNBOUND:                -1.343
REMARK  Name = 
REMARK  9 active torsions:
REMARK  status: ('A' for Active; 'I' for Inactive)
REMARK    1  A    between atoms: C_1  and  O_2
REMARK    2  A    between atoms: O_2  and  C_3
REMARK    3  A    between atoms: C_10  and  C_11
REMARK    4  A    between atoms: N_13  and  C_14
REMARK    5  A    between atoms: C_14  and  C_15
REMARK    6  A    between atoms: C_18  and  C_19
REMARK    7  A    between atoms: C_19  and  O_20
REMARK    8  A    between atoms: O_20  and  C_21
REMARK    9  A    between atoms: C_21  and  C_22
REMARK                            x       y       z     vdW  Elec       q    Type
REMARK                         _______ _______ _______ _____ _____    ______ ____
ROOT
ATOM      1  C   UNL     1      48.138   8.600  14.333  0.00  0.00    +0.000 C 
ENDROOT
BRANCH   1   2
ATOM      2  C   UNL     1      49.026   7.895  15.324  0.00  0.00    +0.000 A 
ATOM      3  C   UNL     1      50.331   7.525  14.975  0.00  0.00    +0.000 A 
ATOM      4  C   UNL     1      51.133   6.827  15.878  0.00  0.00    +0.000 A 
ATOM      5  C   UNL     1      50.645   6.483  17.145  0.00  0.00    +0.000 A 
ATOM      6  C   UNL     1      49.338   6.848  17.494  0.00  0.00    +0.000 A 
ATOM      7  C   UNL     1      48.535   7.546  16.590  0.00  0.00    +0.000 A 
BRANCH   5   8
ATOM      8  C   UNL     1      51.530   5.763  18.134  0.00  0.00    +0.000 C 
BRANCH   8   9
ATOM      9  O   UNL     1      50.956   4.527  18.560  0.00  0.00    +0.000 OA
BRANCH   9  10
ATOM     10  C   UNL     1      51.104   3.491  17.587  0.00  0.00    +0.000 C 
BRANCH  10  11
ATOM     11  C   UNL     1      52.183   2.529  18.008  0.00  0.00    +0.000 A 
ATOM     12  C   UNL     1      52.133   1.197  17.588  0.00  0.00    +0.000 A 
ATOM     13  C   UNL     1      53.157   0.339  17.963  0.00  0.00    +0.000 A 
ATOM     14  N   UNL     1      54.217   0.717  18.706  0.00  0.00    +0.000 NA
ATOM     15  C   UNL     1      54.253   2.010  19.094  0.00  0.00    +0.000 A 
ATOM     16  C   UNL     1      53.279   2.942  18.769  0.00  0.00    +0.000 A 
ENDBRANCH  10  11
ENDBRANCH   9  10
ENDBRANCH   8   9
ENDBRANCH   5   8
ENDBRANCH   1   2
BRANCH   1  19
ATOM     17  C   UNL     1      46.423   7.960  12.702  0.00  0.00    +0.000 C 
ATOM     18  O   UNL     1      46.673   8.952  12.022  0.00  0.00    +0.000 OA
ATOM     19  N   UNL     1      47.099   7.714  13.864  0.00  0.00    +0.000 N 
ATOM     20  H   UNL     1      46.858   6.919  14.441  0.00  0.00    +0.000 HD
BRANCH  17  28
ATOM     21  C   UNL     1      46.038   4.555  13.104  0.00  0.00    +0.000 A 
ATOM     22  N   UNL     1      45.630   3.269  13.123  0.00  0.00    +0.000 NA
ATOM     23  C   UNL     1      44.472   2.967  12.531  0.00  0.00    +0.000 A 
ATOM     24  N   UNL     1      43.650   3.805  11.907  0.00  0.00    +0.000 NA
ATOM     25  C   UNL     1      44.088   5.077  11.919  0.00  0.00    +0.000 A 
ATOM     26  S   UNL     1      43.163   6.283  11.165  0.00  0.00    +0.000 S 
ATOM     27  C   UNL     1      44.293   7.478  11.582  0.00  0.00    +0.000 A 
ATOM     28  C   UNL     1      45.383   6.999  12.299  0.00  0.00    +0.000 A 
ATOM     29  C   UNL     1      45.261   5.556  12.498  0.00  0.00    +0.000 A 
BRANCH  21  31
ATOM     30  C   UNL     1      47.264   4.370  15.085  0.00  0.00    +0.000 C 
ATOM     31  O   UNL     1      47.218   4.867  13.748  0.00  0.00    +0.000 OA
ENDBRANCH  21  31
ENDBRANCH  17  28
ENDBRANCH   1  19
TORSDOF 8
ENDMDL
