MODEL 1
REMARK VINA RESULT:    -7.868      0.000      0.000
REMARK INTER + INTRA:         -12.739
REMARK INTER:                 -11.778
REMARK INTRA:                  -0.961
REMARK UNBOUND:                -0.961
REMARK  Name = 
REMARK  9 active torsions:
REMARK  status: ('A' for Active; 'I' for Inactive)
REMARK    1  A    between atoms: C_2  and  C_22
REMARK    2  A    between atoms: N_3  and  C_4
REMARK    3  A    between atoms: C_4  and  C_5
REMARK    4  A    between atoms: C_8  and  C_9
REMARK    5  A    between atoms: C_9  and  O_10
REMARK    6  A    between atoms: O_10  and  C_11
REMARK    7  A    between atoms: C_11  and  C_12
REMARK    8  A    between atoms: C_15  and  C_16
REMARK    9  A    between atoms: C_16  and  O_17
REMARK                            x       y       z     vdW  Elec       q    Type
REMARK                         _______ _______ _______ _____ _____    ______ ____
ROOT
ATOM      1  C   UNL     1      46.973   6.101  12.905  0.00  0.00    +0.000 A 
ATOM      2  C   UNL     1      46.161   5.178  13.578  0.00  0.00    +0.000 A 
ATOM      3  C   UNL     1      44.985   4.707  12.988  0.00  0.00    +0.000 A 
ATOM      4  C   UNL     1      44.607   5.140  11.711  0.00  0.00    +0.000 A 
ATOM      5  C   UNL     1      45.426   6.052  11.034  0.00  0.00    +0.000 A 
ATOM      6  C   UNL     1      46.602   6.521  11.622  0.00  0.00    +0.000 A 
ENDROOT
BRANCH   1   7
ATOM      7  C   UNL     1      48.235   6.619  13.541  0.00  0.00    +0.000 C 
BRANCH   7  10
ATOM      8  O   UNL     1      50.415   6.901  15.222  0.00  0.00    +0.000 OA
ATOM      9  C   UNL     1      49.307   6.747  15.729  0.00  0.00    +0.000 C 
ATOM     10  N   UNL     1      48.185   6.518  14.976  0.00  0.00    +0.000 N 
ATOM     11  H   UNL     1      47.270   6.602  15.407  0.00  0.00    +0.000 HD
BRANCH   9  12
ATOM     12  C   UNL     1      49.126   6.763  17.184  0.00  0.00    +0.000 A 
ATOM     13  C   UNL     1      49.104   7.970  17.869  0.00  0.00    +0.000 A 
ATOM     14  S   UNL     1      48.886   7.794  19.552  0.00  0.00    +0.000 S 
ATOM     15  C   UNL     1      48.772   6.102  19.414  0.00  0.00    +0.000 A 
ATOM     16  N   UNL     1      48.547   5.323  20.510  0.00  0.00    +0.000 NA
ATOM     17  C   UNL     1      48.443   4.061  20.253  0.00  0.00    +0.000 A 
ATOM     18  N   UNL     1      48.549   3.506  19.006  0.00  0.00    +0.000 N 
ATOM     19  C   UNL     1      48.818   4.247  17.881  0.00  0.00    +0.000 A 
ATOM     20  O   UNL     1      48.977   3.709  16.790  0.00  0.00    +0.000 OA
ATOM     21  C   UNL     1      48.920   5.675  18.109  0.00  0.00    +0.000 A 
ATOM     22  H   UNL     1      48.475   2.507  18.874  0.00  0.00    +0.000 HD
ENDBRANCH   9  12
ENDBRANCH   7  10
ENDBRANCH   1   7
BRANCH   4  23
ATOM     23  C   UNL     1      43.363   4.604  11.059  0.00  0.00    +0.000 C 
BRANCH  23  24
ATOM     24  O   UNL     1      43.471   3.191  10.907  0.00  0.00    +0.000 OA
BRANCH  24  25
ATOM     25  C   UNL     1      44.684   2.851  10.241  0.00  0.00    +0.000 C 
BRANCH  25  26
ATOM     26  C   UNL     1      44.421   2.656   8.741  0.00  0.00    +0.000 C 
ATOM     27  C   UNL     1      44.807   3.895   7.915  0.00  0.00    +0.000 C 
ATOM     28  C   UNL     1      46.322   4.097   7.835  0.00  0.00    +0.000 C 
ATOM     29  C   UNL     1      47.050   2.853   7.302  0.00  0.00    +0.000 C 
ATOM     30  C   UNL     1      46.664   1.606   8.116  0.00  0.00    +0.000 C 
ATOM     31  C   UNL     1      45.152   1.404   8.231  0.00  0.00    +0.000 C 
BRANCH  29  32
ATOM     32  C   UNL     1      46.814   2.695   5.792  0.00  0.00    +0.000 C 
BRANCH  32  33
ATOM     33  O   UNL     1      48.036   2.767   5.071  0.00  0.00    +0.000 OA
ATOM     34  H   UNL     1      48.754   2.821   5.723  0.00  0.00    +0.000 HD
ENDBRANCH  32  33
ENDBRANCH  29  32
ENDBRANCH  25  26
ENDBRANCH  24  25
ENDBRANCH  23  24
ENDBRANCH   4  23
TORSDOF 9
ENDMDL
MODEL 2
REMARK VINA RESULT:    -7.669      1.478      2.146
REMARK INTER + INTRA:         -12.442
REMARK INTER:                 -11.441
REMARK INTRA:                  -1.000
REMARK UNBOUND:                -0.961
REMARK  Name = 
REMARK  9 active torsions:
REMARK  status: ('A' for Active; 'I' for Inactive)
REMARK    1  A    between atoms: C_2  and  C_22
REMARK    2  A    between atoms: N_3  and  C_4
REMARK    3  A    between atoms: C_4  and  C_5
REMARK    4  A    between atoms: C_8  and  C_9
REMARK    5  A    between atoms: C_9  and  O_10
REMARK    6  A    between atoms: O_10  and  C_11
REMARK    7  A    between atoms: C_11  and  C_12
REMARK    8  A    between atoms: C_15  and  C_16
REMARK    9  A    between atoms: C_16  and  O_17
REMARK                            x       y       z     vdW  Elec       q    Type
REMARK                         _______ _______ _______ _____ _____    ______ ____
ROOT
ATOM      1  C   UNL     1      46.874   6.058  13.166  0.00  0.00    +0.000 A 
ATOM      2  C   UNL     1      46.088   5.019  13.683  0.00  0.00    +0.000 A 
ATOM      3  C   UNL     1      44.985   4.543  12.969  0.00  0.00    +0.000 A 
ATOM      4  C   UNL     1      44.658   5.086  11.720  0.00  0.00    +0.000 A 
ATOM      5  C   UNL     1      45.453   6.114  11.199  0.00  0.00    +0.000 A 
ATOM      6  C   UNL     1      46.555   6.589  11.911  0.00  0.00    +0.000 A 
ENDROOT
BRANCH   1   7
ATOM      7  C   UNL     1      48.056   6.582  13.937  0.00  0.00    +0.000 C 
BRANCH   7  10
ATOM      8  O   UNL     1      50.115   6.246  15.755  0.00  0.00    +0.000 OA
ATOM      9  C   UNL     1      48.968   6.327  16.186  0.00  0.00    +0.000 C 
ATOM     10  N   UNL     1      47.880   6.412  15.356  0.00  0.00    +0.000 N 
ATOM     11  H   UNL     1      46.980   6.682  15.739  0.00  0.00    +0.000 HD
BRANCH   9  12
ATOM     12  C   UNL     1      48.690   6.300  17.626  0.00  0.00    +0.000 A 
ATOM     13  C   UNL     1      48.942   5.149  18.361  0.00  0.00    +0.000 A 
ATOM     14  S   UNL     1      48.557   5.301  20.016  0.00  0.00    +0.000 S 
ATOM     15  C   UNL     1      48.084   6.922  19.812  0.00  0.00    +0.000 A 
ATOM     16  N   UNL     1      47.665   7.669  20.874  0.00  0.00    +0.000 NA
ATOM     17  C   UNL     1      47.375   8.893  20.581  0.00  0.00    +0.000 A 
ATOM     18  N   UNL     1      47.459   9.438  19.328  0.00  0.00    +0.000 N 
ATOM     19  C   UNL     1      47.834   8.712  18.223  0.00  0.00    +0.000 A 
ATOM     20  O   UNL     1      47.829   9.213  17.103  0.00  0.00    +0.000 OA
ATOM     21  C   UNL     1      48.195   7.335  18.499  0.00  0.00    +0.000 A 
ATOM     22  H   UNL     1      47.200  10.400  19.162  0.00  0.00    +0.000 HD
ENDBRANCH   9  12
ENDBRANCH   7  10
ENDBRANCH   1   7
BRANCH   4  23
ATOM     23  C   UNL     1      43.497   4.547  10.933  0.00  0.00    +0.000 C 
BRANCH  23  24
ATOM     24  O   UNL     1      43.607   3.130  10.822  0.00  0.00    +0.000 OA
BRANCH  24  25
ATOM     25  C   UNL     1      44.819   2.772  10.166  0.00  0.00    +0.000 C 
BRANCH  25  26
ATOM     26  C   UNL     1      44.551   2.511   8.677  0.00  0.00    +0.000 C 
ATOM     27  C   UNL     1      44.858   3.740   7.804  0.00  0.00    +0.000 C 
ATOM     28  C   UNL     1      46.358   4.023   7.698  0.00  0.00    +0.000 C 
ATOM     29  C   UNL     1      47.148   2.804   7.198  0.00  0.00    +0.000 C 
ATOM     30  C   UNL     1      46.842   1.566   8.058  0.00  0.00    +0.000 C 
ATOM     31  C   UNL     1      45.345   1.285   8.200  0.00  0.00    +0.000 C 
BRANCH  29  32
ATOM     32  C   UNL     1      46.905   2.582   5.697  0.00  0.00    +0.000 C 
BRANCH  32  33
ATOM     33  O   UNL     1      48.113   2.694   4.958  0.00  0.00    +0.000 OA
ATOM     34  H   UNL     1      47.928   2.392   4.053  0.00  0.00    +0.000 HD
ENDBRANCH  32  33
ENDBRANCH  29  32
ENDBRANCH  25  26
ENDBRANCH  24  25
ENDBRANCH  23  24
ENDBRANCH   4  23
TORSDOF 9
ENDMDL
MODEL 3
REMARK VINA RESULT:    -7.613      1.194      1.295
REMARK INTER + INTRA:         -12.358
REMARK INTER:                 -11.551
REMARK INTRA:                  -0.806
REMARK UNBOUND:                -0.961
REMARK  Name = 
REMARK  9 active torsions:
REMARK  status: ('A' for Active; 'I' for Inactive)
REMARK    1  A    between atoms: C_2  and  C_22
REMARK    2  A    between atoms: N_3  and  C_4
REMARK    3  A    between atoms: C_4  and  C_5
REMARK    4  A    between atoms: C_8  and  C_9
REMARK    5  A    between atoms: C_9  and  O_10
REMARK    6  A    between atoms: O_10  and  C_11
REMARK    7  A    between atoms: C_11  and  C_12
REMARK    8  A    between atoms: C_15  and  C_16
REMARK    9  A    between atoms: C_16  and  O_17
REMARK                            x       y       z     vdW  Elec       q    Type
REMARK                         _______ _______ _______ _____ _____    ______ ____
ROOT
ATOM      1  C   UNL     1      45.874   7.013  12.662  0.00  0.00    +0.000 A 
ATOM      2  C   UNL     1      45.611   5.820  13.350  0.00  0.00    +0.000 A 
ATOM      3  C   UNL     1      44.667   4.914  12.862  0.00  0.00    +0.000 A 
ATOM      4  C   UNL     1      43.979   5.176  11.670  0.00  0.00    +0.000 A 
ATOM      5  C   UNL     1      44.253   6.361  10.976  0.00  0.00    +0.000 A 
ATOM      6  C   UNL     1      45.198   7.266  11.463  0.00  0.00    +0.000 A 
ENDROOT
BRANCH   1   7
ATOM      7  C   UNL     1      46.883   7.996  13.190  0.00  0.00    +0.000 C 
BRANCH   7  10
ATOM      8  O   UNL     1      49.006   6.248  13.502  0.00  0.00    +0.000 OA
ATOM      9  C   UNL     1      48.525   6.761  14.508  0.00  0.00    +0.000 C 
ATOM     10  N   UNL     1      47.422   7.574  14.457  0.00  0.00    +0.000 N 
ATOM     11  H   UNL     1      47.180   8.138  15.265  0.00  0.00    +0.000 HD
BRANCH   9  12
ATOM     12  C   UNL     1      49.085   6.502  15.839  0.00  0.00    +0.000 A 
ATOM     13  C   UNL     1      50.056   7.344  16.361  0.00  0.00    +0.000 A 
ATOM     14  S   UNL     1      50.590   6.887  17.915  0.00  0.00    +0.000 S 
ATOM     15  C   UNL     1      49.510   5.574  17.958  0.00  0.00    +0.000 A 
ATOM     16  N   UNL     1      49.432   4.766  19.054  0.00  0.00    +0.000 NA
ATOM     17  C   UNL     1      48.541   3.834  18.964  0.00  0.00    +0.000 A 
ATOM     18  N   UNL     1      47.728   3.631  17.883  0.00  0.00    +0.000 N 
ATOM     19  C   UNL     1      47.801   4.393  16.741  0.00  0.00    +0.000 A 
ATOM     20  O   UNL     1      47.107   4.139  15.763  0.00  0.00    +0.000 OA
ATOM     21  C   UNL     1      48.769   5.471  16.797  0.00  0.00    +0.000 A 
ATOM     22  H   UNL     1      47.062   2.871  17.869  0.00  0.00    +0.000 HD
ENDBRANCH   9  12
ENDBRANCH   7  10
ENDBRANCH   1   7
BRANCH   4  23
ATOM     23  C   UNL     1      42.992   4.184  11.122  0.00  0.00    +0.000 C 
BRANCH  23  24
ATOM     24  O   UNL     1      43.563   2.877  11.143  0.00  0.00    +0.000 OA
BRANCH  24  25
ATOM     25  C   UNL     1      44.763   2.843  10.378  0.00  0.00    +0.000 C 
BRANCH  25  26
ATOM     26  C   UNL     1      44.430   2.693   8.886  0.00  0.00    +0.000 C 
ATOM     27  C   UNL     1      44.751   3.966   8.085  0.00  0.00    +0.000 C 
ATOM     28  C   UNL     1      46.255   4.202   7.938  0.00  0.00    +0.000 C 
ATOM     29  C   UNL     1      46.979   2.992   7.328  0.00  0.00    +0.000 C 
ATOM     30  C   UNL     1      46.658   1.711   8.116  0.00  0.00    +0.000 C 
ATOM     31  C   UNL     1      45.158   1.474   8.299  0.00  0.00    +0.000 C 
BRANCH  29  32
ATOM     32  C   UNL     1      46.671   2.879   5.826  0.00  0.00    +0.000 C 
BRANCH  32  33
ATOM     33  O   UNL     1      47.865   2.768   5.063  0.00  0.00    +0.000 OA
ATOM     34  H   UNL     1      48.464   3.473   5.359  0.00  0.00    +0.000 HD
ENDBRANCH  32  33
ENDBRANCH  29  32
ENDBRANCH  25  26
ENDBRANCH  24  25
ENDBRANCH  23  24
ENDBRANCH   4  23
TORSDOF 9
ENDMDL
MODEL 4
REMARK VINA RESULT:    -7.429      3.468      9.058
REMARK INTER + INTRA:         -12.082
REMARK INTER:                 -10.036
REMARK INTRA:                  -2.046
REMARK UNBOUND:                -0.961
REMARK  Name = 
REMARK  9 active torsions:
REMARK  status: ('A' for Active; 'I' for Inactive)
REMARK    1  A    between atoms: C_2  and  C_22
REMARK    2  A    between atoms: N_3  and  C_4
REMARK    3  A    between atoms: C_4  and  C_5
REMARK    4  A    between atoms: C_8  and  C_9
REMARK    5  A    between atoms: C_9  and  O_10
REMARK    6  A    between atoms: O_10  and  C_11
REMARK    7  A    between atoms: C_11  and  C_12
REMARK    8  A    between atoms: C_15  and  C_16
REMARK    9  A    between atoms: C_16  and  O_17
REMARK                            x       y       z     vdW  Elec       q    Type
REMARK                         _______ _______ _______ _____ _____    ______ ____
ROOT
ATOM      1  C   UNL     1      48.576   8.246  13.151  0.00  0.00    +0.000 A 
ATOM      2  C   UNL     1      49.941   8.066  13.410  0.00  0.00    +0.000 A 
ATOM      3  C   UNL     1      50.473   8.388  14.662  0.00  0.00    +0.000 A 
ATOM      4  C   UNL     1      49.648   8.881  15.680  0.00  0.00    +0.000 A 
ATOM      5  C   UNL     1      48.281   9.047  15.423  0.00  0.00    +0.000 A 
ATOM      6  C   UNL     1      47.749   8.724  14.174  0.00  0.00    +0.000 A 
ENDROOT
BRANCH   1   7
ATOM      7  C   UNL     1      48.001   7.910  11.801  0.00  0.00    +0.000 C 
BRANCH   7  10
ATOM      8  O   UNL     1      45.236   7.809  11.803  0.00  0.00    +0.000 OA
ATOM      9  C   UNL     1      45.855   6.749  11.765  0.00  0.00    +0.000 C 
ATOM     10  N   UNL     1      47.223   6.700  11.843  0.00  0.00    +0.000 N 
ATOM     11  H   UNL     1      47.705   5.840  11.603  0.00  0.00    +0.000 HD
BRANCH   9  12
ATOM     12  C   UNL     1      45.158   5.462  11.671  0.00  0.00    +0.000 A 
ATOM     13  C   UNL     1      44.451   4.973  12.760  0.00  0.00    +0.000 A 
ATOM     14  S   UNL     1      43.708   3.466  12.469  0.00  0.00    +0.000 S 
ATOM     15  C   UNL     1      44.273   3.438  10.865  0.00  0.00    +0.000 A 
ATOM     16  N   UNL     1      43.957   2.407  10.028  0.00  0.00    +0.000 NA
ATOM     17  C   UNL     1      44.420   2.537   8.829  0.00  0.00    +0.000 A 
ATOM     18  N   UNL     1      45.170   3.593   8.389  0.00  0.00    +0.000 N 
ATOM     19  C   UNL     1      45.547   4.631   9.208  0.00  0.00    +0.000 A 
ATOM     20  O   UNL     1      46.280   5.526   8.801  0.00  0.00    +0.000 OA
ATOM     21  C   UNL     1      45.034   4.549  10.562  0.00  0.00    +0.000 A 
ATOM     22  H   UNL     1      45.516   3.626   7.441  0.00  0.00    +0.000 HD
ENDBRANCH   9  12
ENDBRANCH   7  10
ENDBRANCH   1   7
BRANCH   4  23
ATOM     23  C   UNL     1      50.210   9.189  17.039  0.00  0.00    +0.000 C 
BRANCH  23  24
ATOM     24  O   UNL     1      50.707   7.994  17.636  0.00  0.00    +0.000 OA
BRANCH  24  25
ATOM     25  C   UNL     1      49.733   7.429  18.509  0.00  0.00    +0.000 C 
BRANCH  25  26
ATOM     26  C   UNL     1      49.861   5.899  18.515  0.00  0.00    +0.000 C 
ATOM     27  C   UNL     1      48.708   5.220  19.276  0.00  0.00    +0.000 C 
ATOM     28  C   UNL     1      47.377   5.314  18.528  0.00  0.00    +0.000 C 
ATOM     29  C   UNL     1      47.471   4.760  17.097  0.00  0.00    +0.000 C 
ATOM     30  C   UNL     1      48.626   5.425  16.330  0.00  0.00    +0.000 C 
ATOM     31  C   UNL     1      49.960   5.367  17.078  0.00  0.00    +0.000 C 
BRANCH  29  32
ATOM     32  C   UNL     1      47.553   3.225  17.118  0.00  0.00    +0.000 C 
BRANCH  32  33
ATOM     33  O   UNL     1      46.425   2.659  17.770  0.00  0.00    +0.000 OA
ATOM     34  H   UNL     1      45.774   3.369  17.891  0.00  0.00    +0.000 HD
ENDBRANCH  32  33
ENDBRANCH  29  32
ENDBRANCH  25  26
ENDBRANCH  24  25
ENDBRANCH  23  24
ENDBRANCH   4  23
TORSDOF 9
ENDMDL
MODEL 5
REMARK VINA RESULT:    -6.898      3.971      9.542
REMARK INTER + INTRA:         -11.287
REMARK INTER:                  -9.418
REMARK INTRA:                  -1.869
REMARK UNBOUND:                -0.961
REMARK  Name = 
REMARK  9 active torsions:
REMARK  status: ('A' for Active; 'I' for Inactive)
REMARK    1  A    between atoms: C_2  and  C_22
REMARK    2  A    between atoms: N_3  and  C_4
REMARK    3  A    between atoms: C_4  and  C_5
REMARK    4  A    between atoms: C_8  and  C_9
REMARK    5  A    between atoms: C_9  and  O_10
REMARK    6  A    between atoms: O_10  and  C_11
REMARK    7  A    between atoms: C_11  and  C_12
REMARK    8  A    between atoms: C_15  and  C_16
REMARK    9  A    between atoms: C_16  and  O_17
REMARK                            x       y       z     vdW  Elec       q    Type
REMARK                         _______ _______ _______ _____ _____    ______ ____
ROOT
ATOM      1  C   UNL     1      48.256   3.870  17.636  0.00  0.00    +0.000 A 
ATOM      2  C   UNL     1      47.905   4.492  18.842  0.00  0.00    +0.000 A 
ATOM      3  C   UNL     1      48.893   4.912  19.736  0.00  0.00    +0.000 A 
ATOM      4  C   UNL     1      50.249   4.732  19.434  0.00  0.00    +0.000 A 
ATOM      5  C   UNL     1      50.598   4.124  18.223  0.00  0.00    +0.000 A 
ATOM      6  C   UNL     1      49.613   3.705  17.328  0.00  0.00    +0.000 A 
ENDROOT
BRANCH   1   7
ATOM      7  C   UNL     1      47.196   3.406  16.675  0.00  0.00    +0.000 C 
BRANCH   7  10
ATOM      8  O   UNL     1      47.248   3.174  13.917  0.00  0.00    +0.000 OA
ATOM      9  C   UNL     1      46.810   4.213  14.404  0.00  0.00    +0.000 C 
ATOM     10  N   UNL     1      46.822   4.448  15.754  0.00  0.00    +0.000 N 
ATOM     11  H   UNL     1      46.273   5.214  16.132  0.00  0.00    +0.000 HD
BRANCH   9  12
ATOM     12  C   UNL     1      46.280   5.287  13.557  0.00  0.00    +0.000 A 
ATOM     13  C   UNL     1      47.059   6.402  13.280  0.00  0.00    +0.000 A 
ATOM     14  S   UNL     1      46.279   7.546  12.284  0.00  0.00    +0.000 S 
ATOM     15  C   UNL     1      44.893   6.568  12.155  0.00  0.00    +0.000 A 
ATOM     16  N   UNL     1      43.829   6.956  11.395  0.00  0.00    +0.000 NA
ATOM     17  C   UNL     1      42.863   6.099  11.356  0.00  0.00    +0.000 A 
ATOM     18  N   UNL     1      42.859   4.896  12.008  0.00  0.00    +0.000 N 
ATOM     19  C   UNL     1      43.889   4.483  12.818  0.00  0.00    +0.000 A 
ATOM     20  O   UNL     1      43.822   3.431  13.444  0.00  0.00    +0.000 OA
ATOM     21  C   UNL     1      45.013   5.398  12.878  0.00  0.00    +0.000 A 
ATOM     22  H   UNL     1      42.063   4.276  11.950  0.00  0.00    +0.000 HD
ENDBRANCH   9  12
ENDBRANCH   7  10
ENDBRANCH   1   7
BRANCH   4  23
ATOM     23  C   UNL     1      51.313   5.220  20.377  0.00  0.00    +0.000 C 
BRANCH  23  24
ATOM     24  O   UNL     1      51.733   6.527  19.992  0.00  0.00    +0.000 OA
BRANCH  24  25
ATOM     25  C   UNL     1      50.779   7.501  20.403  0.00  0.00    +0.000 C 
BRANCH  25  26
ATOM     26  C   UNL     1      50.763   8.671  19.408  0.00  0.00    +0.000 C 
ATOM     27  C   UNL     1      50.792   8.194  17.945  0.00  0.00    +0.000 C 
ATOM     28  C   UNL     1      49.478   7.540  17.516  0.00  0.00    +0.000 C 
ATOM     29  C   UNL     1      48.265   8.453  17.755  0.00  0.00    +0.000 C 
ATOM     30  C   UNL     1      48.231   8.943  19.212  0.00  0.00    +0.000 C 
ATOM     31  C   UNL     1      49.548   9.574  19.669  0.00  0.00    +0.000 C 
BRANCH  29  32
ATOM     32  C   UNL     1      48.238   9.594  16.725  0.00  0.00    +0.000 C 
BRANCH  32  33
ATOM     33  O   UNL     1      47.467   9.239  15.585  0.00  0.00    +0.000 OA
ATOM     34  H   UNL     1      46.556   9.534  15.750  0.00  0.00    +0.000 HD
ENDBRANCH  32  33
ENDBRANCH  29  32
ENDBRANCH  25  26
ENDBRANCH  24  25
ENDBRANCH  23  24
ENDBRANCH   4  23
TORSDOF 9
ENDMDL
MODEL 6
REMARK VINA RESULT:    -6.838      4.229      8.868
REMARK INTER + INTRA:         -11.197
REMARK INTER:                  -8.779
REMARK INTRA:                  -2.419
REMARK UNBOUND:                -0.961
REMARK  Name = 
REMARK  9 active torsions:
REMARK  status: ('A' for Active; 'I' for Inactive)
REMARK    1  A    between atoms: C_2  and  C_22
REMARK    2  A    between atoms: N_3  and  C_4
REMARK    3  A    between atoms: C_4  and  C_5
REMARK    4  A    between atoms: C_8  and  C_9
REMARK    5  A    between atoms: C_9  and  O_10
REMARK    6  A    between atoms: O_10  and  C_11
REMARK    7  A    between atoms: C_11  and  C_12
REMARK    8  A    between atoms: C_15  and  C_16
REMARK    9  A    between atoms: C_16  and  O_17
REMARK                            x       y       z     vdW  Elec       q    Type
REMARK                         _______ _______ _______ _____ _____    ______ ____
ROOT
ATOM      1  C   UNL     1      48.914   9.210  14.871  0.00  0.00    +0.000 A 
ATOM      2  C   UNL     1      50.280   8.899  14.835  0.00  0.00    +0.000 A 
ATOM      3  C   UNL     1      51.002   8.741  16.020  0.00  0.00    +0.000 A 
ATOM      4  C   UNL     1      50.369   8.876  17.262  0.00  0.00    +0.000 A 
ATOM      5  C   UNL     1      49.001   9.173  17.297  0.00  0.00    +0.000 A 
ATOM      6  C   UNL     1      48.279   9.330  16.113  0.00  0.00    +0.000 A 
ENDROOT
BRANCH   1   7
ATOM      7  C   UNL     1      48.135   9.392  13.596  0.00  0.00    +0.000 C 
BRANCH   7  10
ATOM      8  O   UNL     1      48.685   7.043  12.240  0.00  0.00    +0.000 OA
ATOM      9  C   UNL     1      47.584   7.162  12.771  0.00  0.00    +0.000 C 
ATOM     10  N   UNL     1      47.195   8.321  13.393  0.00  0.00    +0.000 N 
ATOM     11  H   UNL     1      46.375   8.315  13.990  0.00  0.00    +0.000 HD
BRANCH   9  12
ATOM     12  C   UNL     1      46.599   6.076  12.737  0.00  0.00    +0.000 A 
ATOM     13  C   UNL     1      46.915   4.834  13.269  0.00  0.00    +0.000 A 
ATOM     14  S   UNL     1      45.651   3.696  13.140  0.00  0.00    +0.000 S 
ATOM     15  C   UNL     1      44.626   4.839  12.407  0.00  0.00    +0.000 A 
ATOM     16  N   UNL     1      43.347   4.513  12.061  0.00  0.00    +0.000 NA
ATOM     17  C   UNL     1      42.670   5.489  11.551  0.00  0.00    +0.000 A 
ATOM     18  N   UNL     1      43.152   6.754  11.351  0.00  0.00    +0.000 N 
ATOM     19  C   UNL     1      44.445   7.114  11.644  0.00  0.00    +0.000 A 
ATOM     20  O   UNL     1      44.866   8.237  11.386  0.00  0.00    +0.000 OA
ATOM     21  C   UNL     1      45.244   6.063  12.243  0.00  0.00    +0.000 A 
ATOM     22  H   UNL     1      42.575   7.469  10.930  0.00  0.00    +0.000 HD
ENDBRANCH   9  12
ENDBRANCH   7  10
ENDBRANCH   1   7
BRANCH   4  23
ATOM     23  C   UNL     1      51.135   8.666  18.538  0.00  0.00    +0.000 C 
BRANCH  23  24
ATOM     24  O   UNL     1      51.360   7.273  18.741  0.00  0.00    +0.000 OA
BRANCH  24  25
ATOM     25  C   UNL     1      50.271   6.689  19.449  0.00  0.00    +0.000 C 
BRANCH  25  26
ATOM     26  C   UNL     1      50.122   5.212  19.054  0.00  0.00    +0.000 C 
ATOM     27  C   UNL     1      48.788   4.612  19.532  0.00  0.00    +0.000 C 
ATOM     28  C   UNL     1      47.589   5.156  18.753  0.00  0.00    +0.000 C 
ATOM     29  C   UNL     1      47.745   4.969  17.235  0.00  0.00    +0.000 C 
ATOM     30  C   UNL     1      49.080   5.558  16.749  0.00  0.00    +0.000 C 
ATOM     31  C   UNL     1      50.288   5.048  17.536  0.00  0.00    +0.000 C 
BRANCH  29  32
ATOM     32  C   UNL     1      47.550   3.494  16.851  0.00  0.00    +0.000 C 
BRANCH  32  33
ATOM     33  O   UNL     1      46.447   2.924  17.543  0.00  0.00    +0.000 OA
ATOM     34  H   UNL     1      46.063   3.622  18.099  0.00  0.00    +0.000 HD
ENDBRANCH  32  33
ENDBRANCH  29  32
ENDBRANCH  25  26
ENDBRANCH  24  25
ENDBRANCH  23  24
ENDBRANCH   4  23
TORSDOF 9
ENDMDL
MODEL 7
REMARK VINA RESULT:    -6.750      4.090      9.364
REMARK INTER + INTRA:         -11.066
REMARK INTER:                  -8.341
REMARK INTRA:                  -2.725
REMARK UNBOUND:                -0.961
REMARK  Name = 
REMARK  9 active torsions:
REMARK  status: ('A' for Active; 'I' for Inactive)
REMARK    1  A    between atoms: C_2  and  C_22
REMARK    2  A    between atoms: N_3  and  C_4
REMARK    3  A    between atoms: C_4  and  C_5
REMARK    4  A    between atoms: C_8  and  C_9
REMARK    5  A    between atoms: C_9  and  O_10
REMARK    6  A    between atoms: O_10  and  C_11
REMARK    7  A    between atoms: C_11  and  C_12
REMARK    8  A    between atoms: C_15  and  C_16
REMARK    9  A    between atoms: C_16  and  O_17
REMARK                            x       y       z     vdW  Elec       q    Type
REMARK                         _______ _______ _______ _____ _____    ______ ____
ROOT
ATOM      1  C   UNL     1      47.944   4.394  17.563  0.00  0.00    +0.000 A 
ATOM      2  C   UNL     1      47.029   5.203  18.252  0.00  0.00    +0.000 A 
ATOM      3  C   UNL     1      47.432   5.929  19.375  0.00  0.00    +0.000 A 
ATOM      4  C   UNL     1      48.758   5.871  19.822  0.00  0.00    +0.000 A 
ATOM      5  C   UNL     1      49.674   5.074  19.124  0.00  0.00    +0.000 A 
ATOM      6  C   UNL     1      49.273   4.350  18.001  0.00  0.00    +0.000 A 
ENDROOT
BRANCH   1   7
ATOM      7  C   UNL     1      47.511   3.602  16.359  0.00  0.00    +0.000 C 
BRANCH   7  10
ATOM      8  O   UNL     1      47.502   3.270  13.611  0.00  0.00    +0.000 OA
ATOM      9  C   UNL     1      46.761   4.121  14.095  0.00  0.00    +0.000 C 
ATOM     10  N   UNL     1      46.759   4.411  15.435  0.00  0.00    +0.000 N 
ATOM     11  H   UNL     1      46.001   4.961  15.825  0.00  0.00    +0.000 HD
BRANCH   9  12
ATOM     12  C   UNL     1      45.854   4.910  13.254  0.00  0.00    +0.000 A 
ATOM     13  C   UNL     1      44.735   4.314  12.689  0.00  0.00    +0.000 A 
ATOM     14  S   UNL     1      43.800   5.381  11.743  0.00  0.00    +0.000 S 
ATOM     15  C   UNL     1      44.836   6.684  12.093  0.00  0.00    +0.000 A 
ATOM     16  N   UNL     1      44.582   7.933  11.607  0.00  0.00    +0.000 NA
ATOM     17  C   UNL     1      45.428   8.833  11.985  0.00  0.00    +0.000 A 
ATOM     18  N   UNL     1      46.505   8.602  12.797  0.00  0.00    +0.000 N 
ATOM     19  C   UNL     1      46.824   7.353  13.275  0.00  0.00    +0.000 A 
ATOM     20  O   UNL     1      47.836   7.168  13.942  0.00  0.00    +0.000 OA
ATOM     21  C   UNL     1      45.891   6.307  12.900  0.00  0.00    +0.000 A 
ATOM     22  H   UNL     1      47.140   9.348  13.043  0.00  0.00    +0.000 HD
ENDBRANCH   9  12
ENDBRANCH   7  10
ENDBRANCH   1   7
BRANCH   4  23
ATOM     23  C   UNL     1      49.203   6.683  21.006  0.00  0.00    +0.000 C 
BRANCH  23  24
ATOM     24  O   UNL     1      50.068   7.730  20.573  0.00  0.00    +0.000 OA
BRANCH  24  25
ATOM     25  C   UNL     1      49.320   8.899  20.254  0.00  0.00    +0.000 C 
BRANCH  25  26
ATOM     26  C   UNL     1      50.013   9.672  19.122  0.00  0.00    +0.000 C 
ATOM     27  C   UNL     1      50.433   8.755  17.961  0.00  0.00    +0.000 C 
ATOM     28  C   UNL     1      49.237   8.241  17.158  0.00  0.00    +0.000 C 
ATOM     29  C   UNL     1      48.347   9.382  16.641  0.00  0.00    +0.000 C 
ATOM     30  C   UNL     1      47.928  10.311  17.793  0.00  0.00    +0.000 C 
ATOM     31  C   UNL     1      49.110  10.811  18.626  0.00  0.00    +0.000 C 
BRANCH  29  32
ATOM     32  C   UNL     1      49.035  10.119  15.480  0.00  0.00    +0.000 C 
BRANCH  32  33
ATOM     33  O   UNL     1      48.150  10.284  14.381  0.00  0.00    +0.000 OA
ATOM     34  H   UNL     1      47.480  10.937  14.644  0.00  0.00    +0.000 HD
ENDBRANCH  32  33
ENDBRANCH  29  32
ENDBRANCH  25  26
ENDBRANCH  24  25
ENDBRANCH  23  24
ENDBRANCH   4  23
TORSDOF 9
ENDMDL
MODEL 8
REMARK VINA RESULT:    -6.644      3.450      4.262
REMARK INTER + INTRA:         -10.906
REMARK INTER:                  -9.879
REMARK INTRA:                  -1.027
REMARK UNBOUND:                -0.961
REMARK  Name = 
REMARK  9 active torsions:
REMARK  status: ('A' for Active; 'I' for Inactive)
REMARK    1  A    between atoms: C_2  and  C_22
REMARK    2  A    between atoms: N_3  and  C_4
REMARK    3  A    between atoms: C_4  and  C_5
REMARK    4  A    between atoms: C_8  and  C_9
REMARK    5  A    between atoms: C_9  and  O_10
REMARK    6  A    between atoms: O_10  and  C_11
REMARK    7  A    between atoms: C_11  and  C_12
REMARK    8  A    between atoms: C_15  and  C_16
REMARK    9  A    between atoms: C_16  and  O_17
REMARK                            x       y       z     vdW  Elec       q    Type
REMARK                         _______ _______ _______ _____ _____    ______ ____
ROOT
ATOM      1  C   UNL     1      45.823   7.073  12.639  0.00  0.00    +0.000 A 
ATOM      2  C   UNL     1      46.375   5.905  13.183  0.00  0.00    +0.000 A 
ATOM      3  C   UNL     1      45.704   4.686  13.071  0.00  0.00    +0.000 A 
ATOM      4  C   UNL     1      44.476   4.609  12.402  0.00  0.00    +0.000 A 
ATOM      5  C   UNL     1      43.932   5.774  11.847  0.00  0.00    +0.000 A 
ATOM      6  C   UNL     1      44.603   6.992  11.957  0.00  0.00    +0.000 A 
ENDROOT
BRANCH   1   7
ATOM      7  C   UNL     1      46.538   8.391  12.766  0.00  0.00    +0.000 C 
BRANCH   7  10
ATOM      8  O   UNL     1      48.276  10.364  11.901  0.00  0.00    +0.000 OA
ATOM      9  C   UNL     1      48.752   9.295  12.275  0.00  0.00    +0.000 C 
ATOM     10  N   UNL     1      47.964   8.234  12.642  0.00  0.00    +0.000 N 
ATOM     11  H   UNL     1      48.381   7.451  13.134  0.00  0.00    +0.000 HD
BRANCH   9  12
ATOM     12  C   UNL     1      50.201   9.077  12.313  0.00  0.00    +0.000 A 
ATOM     13  C   UNL     1      50.986   9.426  11.223  0.00  0.00    +0.000 A 
ATOM     14  S   UNL     1      52.645   9.100  11.446  0.00  0.00    +0.000 S 
ATOM     15  C   UNL     1      52.374   8.523  13.023  0.00  0.00    +0.000 A 
ATOM     16  N   UNL     1      53.411   8.103  13.804  0.00  0.00    +0.000 NA
ATOM     17  C   UNL     1      53.064   7.730  14.992  0.00  0.00    +0.000 A 
ATOM     18  N   UNL     1      51.781   7.730  15.468  0.00  0.00    +0.000 N 
ATOM     19  C   UNL     1      50.702   8.103  14.703  0.00  0.00    +0.000 A 
ATOM     20  O   UNL     1      49.558   8.024  15.138  0.00  0.00    +0.000 OA
ATOM     21  C   UNL     1      51.037   8.557  13.367  0.00  0.00    +0.000 A 
ATOM     22  H   UNL     1      51.573   7.408  16.403  0.00  0.00    +0.000 HD
ENDBRANCH   9  12
ENDBRANCH   7  10
ENDBRANCH   1   7
BRANCH   4  23
ATOM     23  C   UNL     1      43.771   3.290  12.246  0.00  0.00    +0.000 C 
BRANCH  23  24
ATOM     24  O   UNL     1      43.541   3.029  10.864  0.00  0.00    +0.000 OA
BRANCH  24  25
ATOM     25  C   UNL     1      44.770   2.778  10.190  0.00  0.00    +0.000 C 
BRANCH  25  26
ATOM     26  C   UNL     1      44.511   2.556   8.693  0.00  0.00    +0.000 C 
ATOM     27  C   UNL     1      44.915   3.773   7.843  0.00  0.00    +0.000 C 
ATOM     28  C   UNL     1      46.432   3.956   7.765  0.00  0.00    +0.000 C 
ATOM     29  C   UNL     1      47.147   2.693   7.261  0.00  0.00    +0.000 C 
ATOM     30  C   UNL     1      46.743   1.467   8.098  0.00  0.00    +0.000 C 
ATOM     31  C   UNL     1      45.228   1.286   8.212  0.00  0.00    +0.000 C 
BRANCH  29  32
ATOM     32  C   UNL     1      46.915   2.507   5.753  0.00  0.00    +0.000 C 
BRANCH  32  33
ATOM     33  O   UNL     1      48.094   2.793   5.013  0.00  0.00    +0.000 OA
ATOM     34  H   UNL     1      48.600   1.966   4.944  0.00  0.00    +0.000 HD
ENDBRANCH  32  33
ENDBRANCH  29  32
ENDBRANCH  25  26
ENDBRANCH  24  25
ENDBRANCH  23  24
ENDBRANCH   4  23
TORSDOF 9
ENDMDL
MODEL 9
REMARK VINA RESULT:    -6.534      3.107      4.837
REMARK INTER + INTRA:         -10.742
REMARK INTER:                  -9.582
REMARK INTRA:                  -1.160
REMARK UNBOUND:                -0.961
REMARK  Name = 
REMARK  9 active torsions:
REMARK  status: ('A' for Active; 'I' for Inactive)
REMARK    1  A    between atoms: C_2  and  C_22
REMARK    2  A    between atoms: N_3  and  C_4
REMARK    3  A    between atoms: C_4  and  C_5
REMARK    4  A    between atoms: C_8  and  C_9
REMARK    5  A    between atoms: C_9  and  O_10
REMARK    6  A    between atoms: O_10  and  C_11
REMARK    7  A    between atoms: C_11  and  C_12
REMARK    8  A    between atoms: C_15  and  C_16
REMARK    9  A    between atoms: C_16  and  O_17
REMARK                            x       y       z     vdW  Elec       q    Type
REMARK                         _______ _______ _______ _____ _____    ______ ____
ROOT
ATOM      1  C   UNL     1      48.911   7.855  16.218  0.00  0.00    +0.000 A 
ATOM      2  C   UNL     1      48.940   6.652  15.499  0.00  0.00    +0.000 A 
ATOM      3  C   UNL     1      48.399   6.582  14.213  0.00  0.00    +0.000 A 
ATOM      4  C   UNL     1      47.832   7.716  13.617  0.00  0.00    +0.000 A 
ATOM      5  C   UNL     1      47.816   8.920  14.331  0.00  0.00    +0.000 A 
ATOM      6  C   UNL     1      48.358   8.991  15.615  0.00  0.00    +0.000 A 
ENDROOT
BRANCH   1   7
ATOM      7  C   UNL     1      49.483   7.931  17.608  0.00  0.00    +0.000 C 
BRANCH   7  10
ATOM      8  O   UNL     1      49.400   5.877  19.460  0.00  0.00    +0.000 OA
ATOM      9  C   UNL     1      50.362   5.933  18.698  0.00  0.00    +0.000 C 
ATOM     10  N   UNL     1      50.527   6.960  17.805  0.00  0.00    +0.000 N 
ATOM     11  H   UNL     1      51.210   6.868  17.061  0.00  0.00    +0.000 HD
BRANCH   9  12
ATOM     12  C   UNL     1      51.417   4.915  18.726  0.00  0.00    +0.000 A 
ATOM     13  C   UNL     1      52.592   5.150  19.426  0.00  0.00    +0.000 A 
ATOM     14  S   UNL     1      53.702   3.858  19.346  0.00  0.00    +0.000 S 
ATOM     15  C   UNL     1      52.632   2.925  18.410  0.00  0.00    +0.000 A 
ATOM     16  N   UNL     1      52.963   1.662  18.016  0.00  0.00    +0.000 NA
ATOM     17  C   UNL     1      52.039   1.056  17.345  0.00  0.00    +0.000 A 
ATOM     18  N   UNL     1      50.822   1.595  17.028  0.00  0.00    +0.000 N 
ATOM     19  C   UNL     1      50.463   2.877  17.366  0.00  0.00    +0.000 A 
ATOM     20  O   UNL     1      49.393   3.353  17.004  0.00  0.00    +0.000 OA
ATOM     21  C   UNL     1      51.454   3.596  18.143  0.00  0.00    +0.000 A 
ATOM     22  H   UNL     1      50.149   1.073  16.484  0.00  0.00    +0.000 HD
ENDBRANCH   9  12
ENDBRANCH   7  10
ENDBRANCH   1   7
BRANCH   4  23
ATOM     23  C   UNL     1      47.285   7.652  12.218  0.00  0.00    +0.000 C 
BRANCH  23  24
ATOM     24  O   UNL     1      45.999   8.265  12.176  0.00  0.00    +0.000 OA
BRANCH  24  25
ATOM     25  C   UNL     1      45.048   7.391  11.577  0.00  0.00    +0.000 C 
BRANCH  25  26
ATOM     26  C   UNL     1      45.451   5.930  11.823  0.00  0.00    +0.000 C 
ATOM     27  C   UNL     1      44.748   5.330  13.053  0.00  0.00    +0.000 C 
ATOM     28  C   UNL     1      43.255   5.095  12.818  0.00  0.00    +0.000 C 
ATOM     29  C   UNL     1      42.988   4.230  11.576  0.00  0.00    +0.000 C 
ATOM     30  C   UNL     1      43.693   4.817  10.342  0.00  0.00    +0.000 C 
ATOM     31  C   UNL     1      45.182   5.086  10.568  0.00  0.00    +0.000 C 
BRANCH  29  32
ATOM     32  C   UNL     1      43.354   2.763  11.851  0.00  0.00    +0.000 C 
BRANCH  32  33
ATOM     33  O   UNL     1      43.701   2.087  10.651  0.00  0.00    +0.000 OA
ATOM     34  H   UNL     1      43.208   2.508   9.928  0.00  0.00    +0.000 HD
ENDBRANCH  32  33
ENDBRANCH  29  32
ENDBRANCH  25  26
ENDBRANCH  24  25
ENDBRANCH  23  24
ENDBRANCH   4  23
TORSDOF 9
ENDMDL
