MODEL 1
REMARK VINA RESULT:    -9.250      0.000      0.000
REMARK INTER + INTRA:         -11.525
REMARK INTER:                 -10.872
REMARK INTRA:                  -0.653
REMARK UNBOUND:                -0.653
REMARK  Name = 
REMARK  5 active torsions:
REMARK  status: ('A' for Active; 'I' for Inactive)
REMARK    1  A    between atoms: C_1  and  C_2
REMARK    2  A    between atoms: C_9  and  C_10
REMARK    3  A    between atoms: C_10  and  N_11
REMARK    4  A    between atoms: C_15  and  C_16
REMARK    5  A    between atoms: C_25  and  C_26
REMARK                            x       y       z     vdW  Elec       q    Type
REMARK                         _______ _______ _______ _____ _____    ______ ____
ROOT
ATOM      1  C   UNL     1      44.064   4.836  11.487  0.00  0.00    +0.000 C 
ATOM      2  C   UNL     1      43.312   6.147  11.378  0.00  0.00    +0.000 C 
ATOM      3  C   UNL     1      42.644   5.007  12.061  0.00  0.00    +0.000 C 
ENDROOT
BRANCH   1  12
ATOM      4  C   UNL     1      49.522   7.362  11.768  0.00  0.00    +0.000 C 
ATOM      5  C   UNL     1      49.261   8.365  12.896  0.00  0.00    +0.000 C 
ATOM      6  C   UNL     1      48.573   7.720  14.133  0.00  0.00    +0.000 C 
ATOM      7  N   UNL     1      47.147   7.486  13.913  0.00  0.00    +0.000 N 
ATOM      8  C   UNL     1      46.745   6.200  13.602  0.00  0.00    +0.000 A 
ATOM      9  N   UNL     1      47.481   5.144  13.974  0.00  0.00    +0.000 NA
ATOM     10  C   UNL     1      47.036   3.921  13.616  0.00  0.00    +0.000 A 
ATOM     11  C   UNL     1      45.908   3.712  12.864  0.00  0.00    +0.000 A 
ATOM     12  C   UNL     1      45.215   4.846  12.496  0.00  0.00    +0.000 A 
ATOM     13  N   UNL     1      45.609   6.063  12.923  0.00  0.00    +0.000 NA
ATOM     14  C   UNL     1      46.394   8.605  13.321  0.00  0.00    +0.000 C 
ATOM     15  C   UNL     1      47.126   9.226  12.099  0.00  0.00    +0.000 C 
ATOM     16  C   UNL     1      46.416  10.508  11.652  0.00  0.00    +0.000 C 
ATOM     17  N   UNL     1      48.542   9.560  12.387  0.00  0.00    +0.000 NA
ATOM     18  H   UNL     1      48.547  10.259  13.131  0.00  0.00    +0.000 HD
ENDBRANCH   1  12
BRANCH   1  19
ATOM     19  N   UNL     1      44.090   3.738  10.521  0.00  0.00    +0.000 N 
ATOM     20  C   UNL     1      45.033   3.509   9.533  0.00  0.00    +0.000 A 
ATOM     21  C   UNL     1      45.634   4.509   8.780  0.00  0.00    +0.000 A 
ATOM     22  C   UNL     1      46.447   4.151   7.696  0.00  0.00    +0.000 A 
ATOM     23  C   UNL     1      46.646   2.802   7.405  0.00  0.00    +0.000 A 
ATOM     24  C   UNL     1      46.051   1.871   8.240  0.00  0.00    +0.000 A 
ATOM     25  N   UNL     1      45.246   2.198   9.277  0.00  0.00    +0.000 NA
ATOM     26  H   UNL     1      43.856   2.820  10.903  0.00  0.00    +0.000 HD
BRANCH  23  27
ATOM     27  C   UNL     1      47.427   2.312   6.252  0.00  0.00    +0.000 C 
ATOM     28  N   UNL     1      47.196   2.899   5.040  0.00  0.00    +0.000 N 
ATOM     29  O   UNL     1      48.220   1.385   6.365  0.00  0.00    +0.000 OA
ATOM     30  H   UNL     1      46.387   3.474   4.858  0.00  0.00    +0.000 HD
ATOM     31  H   UNL     1      47.645   2.461   4.244  0.00  0.00    +0.000 HD
ENDBRANCH  23  27
ENDBRANCH   1  19
TORSDOF 3
ENDMDL
MODEL 2
REMARK VINA RESULT:    -6.687      3.506      6.087
REMARK INTER + INTRA:          -8.513
REMARK INTER:                  -8.679
REMARK INTRA:                   0.167
REMARK UNBOUND:                -0.653
REMARK  Name = 
REMARK  5 active torsions:
REMARK  status: ('A' for Active; 'I' for Inactive)
REMARK    1  A    between atoms: C_1  and  C_2
REMARK    2  A    between atoms: C_9  and  C_10
REMARK    3  A    between atoms: C_10  and  N_11
REMARK    4  A    between atoms: C_15  and  C_16
REMARK    5  A    between atoms: C_25  and  C_26
REMARK                            x       y       z     vdW  Elec       q    Type
REMARK                         _______ _______ _______ _____ _____    ______ ____
ROOT
ATOM      1  C   UNL     1      48.085   7.453  13.784  0.00  0.00    +0.000 C 
ATOM      2  C   UNL     1      48.430   8.128  12.472  0.00  0.00    +0.000 C 
ATOM      3  C   UNL     1      47.505   8.829  13.403  0.00  0.00    +0.000 C 
ENDROOT
BRANCH   1  12
ATOM      4  C   UNL     1      48.505   6.500  19.714  0.00  0.00    +0.000 C 
ATOM      5  C   UNL     1      49.276   5.176  19.686  0.00  0.00    +0.000 C 
ATOM      6  C   UNL     1      50.521   5.218  18.755  0.00  0.00    +0.000 C 
ATOM      7  N   UNL     1      50.159   5.120  17.342  0.00  0.00    +0.000 N 
ATOM      8  C   UNL     1      50.143   6.286  16.599  0.00  0.00    +0.000 A 
ATOM      9  N   UNL     1      50.887   7.340  16.961  0.00  0.00    +0.000 NA
ATOM     10  C   UNL     1      50.801   8.450  16.198  0.00  0.00    +0.000 A 
ATOM     11  C   UNL     1      49.971   8.566  15.113  0.00  0.00    +0.000 A 
ATOM     12  C   UNL     1      49.216   7.450  14.815  0.00  0.00    +0.000 A 
ATOM     13  N   UNL     1      49.361   6.312  15.523  0.00  0.00    +0.000 NA
ATOM     14  C   UNL     1      49.186   4.069  16.999  0.00  0.00    +0.000 C 
ATOM     15  C   UNL     1      47.968   4.056  17.962  0.00  0.00    +0.000 C 
ATOM     16  C   UNL     1      47.097   2.824  17.697  0.00  0.00    +0.000 C 
ATOM     17  N   UNL     1      48.367   4.040  19.391  0.00  0.00    +0.000 NA
ATOM     18  H   UNL     1      48.891   3.179  19.553  0.00  0.00    +0.000 HD
ENDBRANCH   1  12
BRANCH   1  19
ATOM     19  N   UNL     1      47.003   6.504  14.042  0.00  0.00    +0.000 N 
ATOM     20  C   UNL     1      46.416   5.631  13.141  0.00  0.00    +0.000 A 
ATOM     21  C   UNL     1      46.157   5.939  11.811  0.00  0.00    +0.000 A 
ATOM     22  C   UNL     1      45.409   5.042  11.036  0.00  0.00    +0.000 A 
ATOM     23  C   UNL     1      44.954   3.857  11.611  0.00  0.00    +0.000 A 
ATOM     24  C   UNL     1      45.302   3.605  12.928  0.00  0.00    +0.000 A 
ATOM     25  N   UNL     1      46.005   4.469  13.696  0.00  0.00    +0.000 NA
ATOM     26  H   UNL     1      47.078   5.988  14.921  0.00  0.00    +0.000 HD
BRANCH  23  27
ATOM     27  C   UNL     1      44.105   2.872  10.910  0.00  0.00    +0.000 C 
ATOM     28  N   UNL     1      44.618   2.285   9.788  0.00  0.00    +0.000 N 
ATOM     29  O   UNL     1      42.968   2.621  11.292  0.00  0.00    +0.000 OA
ATOM     30  H   UNL     1      45.428   2.645   9.306  0.00  0.00    +0.000 HD
ATOM     31  H   UNL     1      43.973   1.714   9.254  0.00  0.00    +0.000 HD
ENDBRANCH  23  27
ENDBRANCH   1  19
TORSDOF 3
ENDMDL
MODEL 3
REMARK VINA RESULT:    -6.279      4.179      7.175
REMARK INTER + INTRA:          -8.034
REMARK INTER:                  -7.188
REMARK INTRA:                  -0.845
REMARK UNBOUND:                -0.653
REMARK  Name = 
REMARK  5 active torsions:
REMARK  status: ('A' for Active; 'I' for Inactive)
REMARK    1  A    between atoms: C_1  and  C_2
REMARK    2  A    between atoms: C_9  and  C_10
REMARK    3  A    between atoms: C_10  and  N_11
REMARK    4  A    between atoms: C_15  and  C_16
REMARK    5  A    between atoms: C_25  and  C_26
REMARK                            x       y       z     vdW  Elec       q    Type
REMARK                         _______ _______ _______ _____ _____    ______ ____
ROOT
ATOM      1  C   UNL     1      49.511   8.249  14.094  0.00  0.00    +0.000 C 
ATOM      2  C   UNL     1      50.930   7.771  13.864  0.00  0.00    +0.000 C 
ATOM      3  C   UNL     1      50.571   9.148  13.428  0.00  0.00    +0.000 C 
ENDROOT
BRANCH   1  12
ATOM      4  C   UNL     1      47.037   5.222  18.672  0.00  0.00    +0.000 C 
ATOM      5  C   UNL     1      48.274   5.093  19.566  0.00  0.00    +0.000 C 
ATOM      6  C   UNL     1      49.024   6.441  19.763  0.00  0.00    +0.000 C 
ATOM      7  N   UNL     1      49.819   6.808  18.592  0.00  0.00    +0.000 N 
ATOM      8  C   UNL     1      49.299   7.757  17.731  0.00  0.00    +0.000 A 
ATOM      9  N   UNL     1      48.408   8.660  18.165  0.00  0.00    +0.000 NA
ATOM     10  C   UNL     1      47.929   9.541  17.261  0.00  0.00    +0.000 A 
ATOM     11  C   UNL     1      48.271   9.530  15.933  0.00  0.00    +0.000 A 
ATOM     12  C   UNL     1      49.173   8.558  15.554  0.00  0.00    +0.000 A 
ATOM     13  N   UNL     1      49.717   7.730  16.469  0.00  0.00    +0.000 NA
ATOM     14  C   UNL     1      50.649   5.736  18.016  0.00  0.00    +0.000 C 
ATOM     15  C   UNL     1      49.863   4.407  17.851  0.00  0.00    +0.000 C 
ATOM     16  C   UNL     1      50.815   3.275  17.451  0.00  0.00    +0.000 C 
ATOM     17  N   UNL     1      49.159   3.999  19.092  0.00  0.00    +0.000 NA
ATOM     18  H   UNL     1      49.867   3.846  19.810  0.00  0.00    +0.000 HD
ENDBRANCH   1  12
BRANCH   1  19
ATOM     19  N   UNL     1      48.359   8.087  13.207  0.00  0.00    +0.000 N 
ATOM     20  C   UNL     1      47.310   7.193  13.346  0.00  0.00    +0.000 A 
ATOM     21  C   UNL     1      47.450   5.890  13.804  0.00  0.00    +0.000 A 
ATOM     22  C   UNL     1      46.349   5.024  13.745  0.00  0.00    +0.000 A 
ATOM     23  C   UNL     1      45.137   5.492  13.242  0.00  0.00    +0.000 A 
ATOM     24  C   UNL     1      45.071   6.821  12.856  0.00  0.00    +0.000 A 
ATOM     25  N   UNL     1      46.128   7.664  12.886  0.00  0.00    +0.000 NA
ATOM     26  H   UNL     1      47.941   8.958  12.874  0.00  0.00    +0.000 HD
BRANCH  23  27
ATOM     27  C   UNL     1      43.933   4.653  13.073  0.00  0.00    +0.000 C 
ATOM     28  N   UNL     1      42.721   5.284  13.071  0.00  0.00    +0.000 N 
ATOM     29  O   UNL     1      44.012   3.434  12.983  0.00  0.00    +0.000 OA
ATOM     30  H   UNL     1      42.600   6.233  13.393  0.00  0.00    +0.000 HD
ATOM     31  H   UNL     1      41.908   4.680  13.085  0.00  0.00    +0.000 HD
ENDBRANCH  23  27
ENDBRANCH   1  19
TORSDOF 3
ENDMDL
