MODEL 1
REMARK VINA RESULT:    -8.183      0.000      0.000
REMARK INTER + INTRA:         -10.135
REMARK INTER:                  -9.857
REMARK INTRA:                  -0.277
REMARK UNBOUND:                -0.277
REMARK  Name = 
REMARK  4 active torsions:
REMARK  status: ('A' for Active; 'I' for Inactive)
REMARK    1  A    between atoms: N_1  and  C_2
REMARK    2  A    between atoms: C_2  and  C_3
REMARK    3  A    between atoms: C_7  and  C_8
REMARK    4  A    between atoms: C_8  and  N_9
REMARK                            x       y       z     vdW  Elec       q    Type
REMARK                         _______ _______ _______ _____ _____    ______ ____
ROOT
ATOM      1  C   UNL     1      44.139   4.066   9.200  0.00  0.00    +0.000 C 
ENDROOT
BRANCH   1   2
ATOM      2  N   UNL     1      44.344   4.066  10.638  0.00  0.00    +0.000 N 
ATOM      3  C   UNL     1      43.700   3.244  11.522  0.00  0.00    +0.000 A 
ATOM      4  N   UNL     1      44.074   3.471  12.760  0.00  0.00    +0.000 NA
ATOM      5  C   UNL     1      45.018   4.462  12.677  0.00  0.00    +0.000 A 
ATOM      6  C   UNL     1      45.745   5.088  13.700  0.00  0.00    +0.000 A 
ATOM      7  C   UNL     1      46.685   6.071  13.360  0.00  0.00    +0.000 A 
ATOM      8  C   UNL     1      46.891   6.417  12.024  0.00  0.00    +0.000 A 
ATOM      9 CL   UNL     1      48.067   7.617  11.637  0.00  0.00    +0.000 Cl
ATOM     10  C   UNL     1      46.169   5.815  10.988  0.00  0.00    +0.000 A 
ATOM     11  C   UNL     1      45.230   4.841  11.350  0.00  0.00    +0.000 A 
ENDBRANCH   1   2
BRANCH   1  16
ATOM     12  C   UNL     1      46.630   2.577   6.716  0.00  0.00    +0.000 A 
ATOM     13  C   UNL     1      46.743   1.314   7.284  0.00  0.00    +0.000 A 
ATOM     14  N   UNL     1      46.087   0.920   8.399  0.00  0.00    +0.000 NA
ATOM     15  C   UNL     1      45.269   1.826   8.976  0.00  0.00    +0.000 A 
ATOM     16  C   UNL     1      45.081   3.122   8.508  0.00  0.00    +0.000 A 
ATOM     17  C   UNL     1      45.782   3.490   7.354  0.00  0.00    +0.000 A 
BRANCH  12  18
ATOM     18  C   UNL     1      47.349   2.925   5.444  0.00  0.00    +0.000 C 
BRANCH  18  19
ATOM     19  N   UNL     1      48.429   1.989   5.156  0.00  0.00    +0.000 NA
ATOM     20  H   UNL     1      48.695   1.515   6.018  0.00  0.00    +0.000 HD
ATOM     21  H   UNL     1      49.252   2.512   4.857  0.00  0.00    +0.000 HD
ENDBRANCH  18  19
ENDBRANCH  12  18
ENDBRANCH   1  16
TORSDOF 4
ENDMDL
MODEL 2
REMARK VINA RESULT:    -7.414      1.709      2.237
REMARK INTER + INTRA:          -9.208
REMARK INTER:                  -8.912
REMARK INTRA:                  -0.296
REMARK UNBOUND:                -0.277
REMARK  Name = 
REMARK  4 active torsions:
REMARK  status: ('A' for Active; 'I' for Inactive)
REMARK    1  A    between atoms: N_1  and  C_2
REMARK    2  A    between atoms: C_2  and  C_3
REMARK    3  A    between atoms: C_7  and  C_8
REMARK    4  A    between atoms: C_8  and  N_9
REMARK                            x       y       z     vdW  Elec       q    Type
REMARK                         _______ _______ _______ _____ _____    ______ ____
ROOT
ATOM      1  C   UNL     1      44.214   3.208  10.425  0.00  0.00    +0.000 C 
ENDROOT
BRANCH   1   2
ATOM      2  N   UNL     1      44.944   3.788  11.539  0.00  0.00    +0.000 N 
ATOM      3  C   UNL     1      45.640   3.076  12.478  0.00  0.00    +0.000 A 
ATOM      4  N   UNL     1      46.193   3.861  13.374  0.00  0.00    +0.000 NA
ATOM      5  C   UNL     1      45.866   5.136  12.990  0.00  0.00    +0.000 A 
ATOM      6  C   UNL     1      46.194   6.360  13.591  0.00  0.00    +0.000 A 
ATOM      7  C   UNL     1      45.758   7.548  12.990  0.00  0.00    +0.000 A 
ATOM      8  C   UNL     1      45.011   7.511  11.812  0.00  0.00    +0.000 A 
ATOM      9 CL   UNL     1      44.505   8.992  11.088  0.00  0.00    +0.000 Cl
ATOM     10  C   UNL     1      44.661   6.302  11.200  0.00  0.00    +0.000 A 
ATOM     11  C   UNL     1      45.100   5.126  11.821  0.00  0.00    +0.000 A 
ENDBRANCH   1   2
BRANCH   1  16
ATOM     12  C   UNL     1      46.442   1.936   7.596  0.00  0.00    +0.000 A 
ATOM     13  C   UNL     1      46.624   3.142   6.931  0.00  0.00    +0.000 A 
ATOM     14  N   UNL     1      46.078   4.316   7.323  0.00  0.00    +0.000 NA
ATOM     15  C   UNL     1      45.320   4.293   8.439  0.00  0.00    +0.000 A 
ATOM     16  C   UNL     1      45.058   3.147   9.184  0.00  0.00    +0.000 A 
ATOM     17  C   UNL     1      45.637   1.953   8.741  0.00  0.00    +0.000 A 
BRANCH  12  18
ATOM     18  C   UNL     1      47.124   0.681   7.131  0.00  0.00    +0.000 C 
BRANCH  18  19
ATOM     19  N   UNL     1      46.711  -0.483   7.907  0.00  0.00    +0.000 NA
ATOM     20  H   UNL     1      46.780  -1.313   7.319  0.00  0.00    +0.000 HD
ATOM     21  H   UNL     1      45.724  -0.389   8.146  0.00  0.00    +0.000 HD
ENDBRANCH  18  19
ENDBRANCH  12  18
ENDBRANCH   1  16
TORSDOF 4
ENDMDL
MODEL 3
REMARK VINA RESULT:    -7.158      1.639      2.243
REMARK INTER + INTRA:          -8.900
REMARK INTER:                  -8.738
REMARK INTRA:                  -0.163
REMARK UNBOUND:                -0.277
REMARK  Name = 
REMARK  4 active torsions:
REMARK  status: ('A' for Active; 'I' for Inactive)
REMARK    1  A    between atoms: N_1  and  C_2
REMARK    2  A    between atoms: C_2  and  C_3
REMARK    3  A    between atoms: C_7  and  C_8
REMARK    4  A    between atoms: C_8  and  N_9
REMARK                            x       y       z     vdW  Elec       q    Type
REMARK                         _______ _______ _______ _____ _____    ______ ____
ROOT
ATOM      1  C   UNL     1      44.547   3.180  10.629  0.00  0.00    +0.000 C 
ENDROOT
BRANCH   1   2
ATOM      2  N   UNL     1      44.244   4.542  11.031  0.00  0.00    +0.000 N 
ATOM      3  C   UNL     1      43.012   5.131  10.944  0.00  0.00    +0.000 A 
ATOM      4  N   UNL     1      43.034   6.373  11.369  0.00  0.00    +0.000 NA
ATOM      5  C   UNL     1      44.325   6.595  11.773  0.00  0.00    +0.000 A 
ATOM      6  C   UNL     1      44.904   7.753  12.310  0.00  0.00    +0.000 A 
ATOM      7  C   UNL     1      46.258   7.728  12.674  0.00  0.00    +0.000 A 
ATOM      8  C   UNL     1      47.012   6.567  12.506  0.00  0.00    +0.000 A 
ATOM      9 CL   UNL     1      48.670   6.563  12.981  0.00  0.00    +0.000 Cl
ATOM     10  C   UNL     1      46.459   5.402  11.962  0.00  0.00    +0.000 A 
ATOM     11  C   UNL     1      45.108   5.451  11.597  0.00  0.00    +0.000 A 
ENDBRANCH   1   2
BRANCH   1  16
ATOM     12  C   UNL     1      46.517   1.961   7.592  0.00  0.00    +0.000 A 
ATOM     13  C   UNL     1      46.612   3.173   6.919  0.00  0.00    +0.000 A 
ATOM     14  N   UNL     1      46.085   4.335   7.368  0.00  0.00    +0.000 NA
ATOM     15  C   UNL     1      45.438   4.293   8.552  0.00  0.00    +0.000 A 
ATOM     16  C   UNL     1      45.269   3.140   9.312  0.00  0.00    +0.000 A 
ATOM     17  C   UNL     1      45.825   1.958   8.809  0.00  0.00    +0.000 A 
BRANCH  12  18
ATOM     18  C   UNL     1      47.175   0.721   7.057  0.00  0.00    +0.000 C 
BRANCH  18  19
ATOM     19  N   UNL     1      46.763  -0.472   7.788  0.00  0.00    +0.000 NA
ATOM     20  H   UNL     1      45.745  -0.522   7.793  0.00  0.00    +0.000 HD
ATOM     21  H   UNL     1      47.044  -0.378   8.764  0.00  0.00    +0.000 HD
ENDBRANCH  18  19
ENDBRANCH  12  18
ENDBRANCH   1  16
TORSDOF 4
ENDMDL
MODEL 4
REMARK VINA RESULT:    -7.149      2.850      5.967
REMARK INTER + INTRA:          -8.889
REMARK INTER:                  -8.524
REMARK INTRA:                  -0.365
REMARK UNBOUND:                -0.277
REMARK  Name = 
REMARK  4 active torsions:
REMARK  status: ('A' for Active; 'I' for Inactive)
REMARK    1  A    between atoms: N_1  and  C_2
REMARK    2  A    between atoms: C_2  and  C_3
REMARK    3  A    between atoms: C_7  and  C_8
REMARK    4  A    between atoms: C_8  and  N_9
REMARK                            x       y       z     vdW  Elec       q    Type
REMARK                         _______ _______ _______ _____ _____    ______ ____
ROOT
ATOM      1  C   UNL     1      44.399   6.219  11.503  0.00  0.00    +0.000 C 
ENDROOT
BRANCH   1   2
ATOM      2  N   UNL     1      44.141   4.843  11.120  0.00  0.00    +0.000 N 
ATOM      3  C   UNL     1      43.284   3.994  11.768  0.00  0.00    +0.000 A 
ATOM      4  N   UNL     1      43.257   2.807  11.208  0.00  0.00    +0.000 NA
ATOM      5  C   UNL     1      44.109   2.892  10.136  0.00  0.00    +0.000 A 
ATOM      6  C   UNL     1      44.456   1.914   9.194  0.00  0.00    +0.000 A 
ATOM      7  C   UNL     1      45.341   2.251   8.162  0.00  0.00    +0.000 A 
ATOM      8  C   UNL     1      45.865   3.542   8.075  0.00  0.00    +0.000 A 
ATOM      9 CL   UNL     1      46.937   3.930   6.782  0.00  0.00    +0.000 Cl
ATOM     10  C   UNL     1      45.542   4.531   9.010  0.00  0.00    +0.000 A 
ATOM     11  C   UNL     1      44.662   4.171  10.038  0.00  0.00    +0.000 A 
ENDBRANCH   1   2
BRANCH   1  16
ATOM     12  C   UNL     1      47.097   5.538  14.120  0.00  0.00    +0.000 A 
ATOM     13  C   UNL     1      47.890   6.653  13.880  0.00  0.00    +0.000 A 
ATOM     14  N   UNL     1      47.621   7.589  12.941  0.00  0.00    +0.000 NA
ATOM     15  C   UNL     1      46.501   7.414  12.209  0.00  0.00    +0.000 A 
ATOM     16  C   UNL     1      45.635   6.334  12.349  0.00  0.00    +0.000 A 
ATOM     17  C   UNL     1      45.952   5.386  13.328  0.00  0.00    +0.000 A 
BRANCH  12  18
ATOM     18  C   UNL     1      47.431   4.568  15.217  0.00  0.00    +0.000 C 
BRANCH  18  19
ATOM     19  N   UNL     1      47.546   3.202  14.719  0.00  0.00    +0.000 NA
ATOM     20  H   UNL     1      46.653   2.728  14.846  0.00  0.00    +0.000 HD
ATOM     21  H   UNL     1      48.217   2.694  15.295  0.00  0.00    +0.000 HD
ENDBRANCH  18  19
ENDBRANCH  12  18
ENDBRANCH   1  16
TORSDOF 4
ENDMDL
MODEL 5
REMARK VINA RESULT:    -6.962      2.834      5.547
REMARK INTER + INTRA:          -8.663
REMARK INTER:                  -8.167
REMARK INTRA:                  -0.496
REMARK UNBOUND:                -0.277
REMARK  Name = 
REMARK  4 active torsions:
REMARK  status: ('A' for Active; 'I' for Inactive)
REMARK    1  A    between atoms: N_1  and  C_2
REMARK    2  A    between atoms: C_2  and  C_3
REMARK    3  A    between atoms: C_7  and  C_8
REMARK    4  A    between atoms: C_8  and  N_9
REMARK                            x       y       z     vdW  Elec       q    Type
REMARK                         _______ _______ _______ _____ _____    ______ ____
ROOT
ATOM      1  C   UNL     1      44.503   6.097  11.623  0.00  0.00    +0.000 C 
ENDROOT
BRANCH   1   2
ATOM      2  N   UNL     1      44.218   4.737  11.201  0.00  0.00    +0.000 N 
ATOM      3  C   UNL     1      43.373   3.875  11.846  0.00  0.00    +0.000 A 
ATOM      4  N   UNL     1      43.315   2.708  11.247  0.00  0.00    +0.000 NA
ATOM      5  C   UNL     1      44.135   2.822  10.154  0.00  0.00    +0.000 A 
ATOM      6  C   UNL     1      44.443   1.872   9.169  0.00  0.00    +0.000 A 
ATOM      7  C   UNL     1      45.301   2.237   8.122  0.00  0.00    +0.000 A 
ATOM      8  C   UNL     1      45.836   3.524   8.063  0.00  0.00    +0.000 A 
ATOM      9 CL   UNL     1      46.873   3.946   6.751  0.00  0.00    +0.000 Cl
ATOM     10  C   UNL     1      45.552   4.484   9.040  0.00  0.00    +0.000 A 
ATOM     11  C   UNL     1      44.699   4.098  10.082  0.00  0.00    +0.000 A 
ENDBRANCH   1   2
BRANCH   1  16
ATOM     12  C   UNL     1      48.128   7.104  12.282  0.00  0.00    +0.000 A 
ATOM     13  C   UNL     1      48.351   6.314  13.403  0.00  0.00    +0.000 A 
ATOM     14  N   UNL     1      47.424   5.499  13.955  0.00  0.00    +0.000 NA
ATOM     15  C   UNL     1      46.215   5.459  13.358  0.00  0.00    +0.000 A 
ATOM     16  C   UNL     1      45.869   6.210  12.239  0.00  0.00    +0.000 A 
ATOM     17  C   UNL     1      46.855   7.044  11.701  0.00  0.00    +0.000 A 
BRANCH  12  18
ATOM     18  C   UNL     1      49.224   7.945  11.693  0.00  0.00    +0.000 C 
BRANCH  18  19
ATOM     19  N   UNL     1      50.545   7.407  11.996  0.00  0.00    +0.000 NA
ATOM     20  H   UNL     1      50.847   6.817  11.221  0.00  0.00    +0.000 HD
ATOM     21  H   UNL     1      50.476   6.793  12.807  0.00  0.00    +0.000 HD
ENDBRANCH  18  19
ENDBRANCH  12  18
ENDBRANCH   1  16
TORSDOF 4
ENDMDL
MODEL 6
REMARK VINA RESULT:    -6.648      2.309      3.316
REMARK INTER + INTRA:          -8.285
REMARK INTER:                  -7.850
REMARK INTRA:                  -0.435
REMARK UNBOUND:                -0.277
REMARK  Name = 
REMARK  4 active torsions:
REMARK  status: ('A' for Active; 'I' for Inactive)
REMARK    1  A    between atoms: N_1  and  C_2
REMARK    2  A    between atoms: C_2  and  C_3
REMARK    3  A    between atoms: C_7  and  C_8
REMARK    4  A    between atoms: C_8  and  N_9
REMARK                            x       y       z     vdW  Elec       q    Type
REMARK                         _______ _______ _______ _____ _____    ______ ____
ROOT
ATOM      1  C   UNL     1      43.392   5.817  11.376  0.00  0.00    +0.000 C 
ENDROOT
BRANCH   1   2
ATOM      2  N   UNL     1      44.530   6.617  11.792  0.00  0.00    +0.000 N 
ATOM      3  C   UNL     1      44.762   7.911  11.409  0.00  0.00    +0.000 A 
ATOM      4  N   UNL     1      45.872   8.382  11.929  0.00  0.00    +0.000 NA
ATOM      5  C   UNL     1      46.370   7.364  12.702  0.00  0.00    +0.000 A 
ATOM      6  C   UNL     1      47.536   7.325  13.479  0.00  0.00    +0.000 A 
ATOM      7  C   UNL     1      47.824   6.164  14.210  0.00  0.00    +0.000 A 
ATOM      8  C   UNL     1      46.962   5.068  14.164  0.00  0.00    +0.000 A 
ATOM      9 CL   UNL     1      47.335   3.662  15.088  0.00  0.00    +0.000 Cl
ATOM     10  C   UNL     1      45.798   5.080  13.386  0.00  0.00    +0.000 A 
ATOM     11  C   UNL     1      45.533   6.247  12.657  0.00  0.00    +0.000 A 
ENDBRANCH   1   2
BRANCH   1  16
ATOM     12  C   UNL     1      44.916   3.467   8.780  0.00  0.00    +0.000 A 
ATOM     13  C   UNL     1      44.531   2.262   9.354  0.00  0.00    +0.000 A 
ATOM     14  N   UNL     1      43.832   2.159  10.507  0.00  0.00    +0.000 NA
ATOM     15  C   UNL     1      43.489   3.313  11.117  0.00  0.00    +0.000 A 
ATOM     16  C   UNL     1      43.825   4.578  10.645  0.00  0.00    +0.000 A 
ATOM     17  C   UNL     1      44.553   4.640   9.451  0.00  0.00    +0.000 A 
BRANCH  12  18
ATOM     18  C   UNL     1      45.646   3.504   7.467  0.00  0.00    +0.000 C 
BRANCH  18  19
ATOM     19  N   UNL     1      46.726   4.484   7.473  0.00  0.00    +0.000 NA
ATOM     20  H   UNL     1      46.332   5.412   7.320  0.00  0.00    +0.000 HD
ATOM     21  H   UNL     1      47.340   4.306   6.679  0.00  0.00    +0.000 HD
ENDBRANCH  18  19
ENDBRANCH  12  18
ENDBRANCH   1  16
TORSDOF 4
ENDMDL
MODEL 7
REMARK VINA RESULT:    -6.600      2.313      2.654
REMARK INTER + INTRA:          -8.228
REMARK INTER:                  -7.779
REMARK INTRA:                  -0.449
REMARK UNBOUND:                -0.277
REMARK  Name = 
REMARK  4 active torsions:
REMARK  status: ('A' for Active; 'I' for Inactive)
REMARK    1  A    between atoms: N_1  and  C_2
REMARK    2  A    between atoms: C_2  and  C_3
REMARK    3  A    between atoms: C_7  and  C_8
REMARK    4  A    between atoms: C_8  and  N_9
REMARK                            x       y       z     vdW  Elec       q    Type
REMARK                         _______ _______ _______ _____ _____    ______ ____
ROOT
ATOM      1  C   UNL     1      43.673   4.981  10.725  0.00  0.00    +0.000 C 
ENDROOT
BRANCH   1   2
ATOM      2  N   UNL     1      44.578   5.638  11.651  0.00  0.00    +0.000 N 
ATOM      3  C   UNL     1      45.396   4.994  12.540  0.00  0.00    +0.000 A 
ATOM      4  N   UNL     1      46.097   5.840  13.259  0.00  0.00    +0.000 NA
ATOM      5  C   UNL     1      45.743   7.084  12.803  0.00  0.00    +0.000 A 
ATOM      6  C   UNL     1      46.187   8.346  13.221  0.00  0.00    +0.000 A 
ATOM      7  C   UNL     1      45.690   9.487  12.576  0.00  0.00    +0.000 A 
ATOM      8  C   UNL     1      44.769   9.365  11.535  0.00  0.00    +0.000 A 
ATOM      9 CL   UNL     1      44.190  10.787  10.751  0.00  0.00    +0.000 Cl
ATOM     10  C   UNL     1      44.302   8.116  11.108  0.00  0.00    +0.000 A 
ATOM     11  C   UNL     1      44.806   6.989  11.771  0.00  0.00    +0.000 A 
ENDBRANCH   1   2
BRANCH   1  16
ATOM     12  C   UNL     1      45.920   3.469   8.032  0.00  0.00    +0.000 A 
ATOM     13  C   UNL     1      45.634   2.130   8.266  0.00  0.00    +0.000 A 
ATOM     14  N   UNL     1      44.786   1.690   9.223  0.00  0.00    +0.000 NA
ATOM     15  C   UNL     1      44.183   2.629   9.982  0.00  0.00    +0.000 A 
ATOM     16  C   UNL     1      44.396   3.998   9.850  0.00  0.00    +0.000 A 
ATOM     17  C   UNL     1      45.284   4.411   8.850  0.00  0.00    +0.000 A 
BRANCH  12  18
ATOM     18  C   UNL     1      46.833   3.886   6.914  0.00  0.00    +0.000 C 
BRANCH  18  19
ATOM     19  N   UNL     1      47.950   2.962   6.750  0.00  0.00    +0.000 NA
ATOM     20  H   UNL     1      48.804   3.417   7.070  0.00  0.00    +0.000 HD
ATOM     21  H   UNL     1      48.085   2.777   5.757  0.00  0.00    +0.000 HD
ENDBRANCH  18  19
ENDBRANCH  12  18
ENDBRANCH   1  16
TORSDOF 4
ENDMDL
MODEL 8
REMARK VINA RESULT:    -6.510      2.020      2.981
REMARK INTER + INTRA:          -8.119
REMARK INTER:                  -7.686
REMARK INTRA:                  -0.434
REMARK UNBOUND:                -0.277
REMARK  Name = 
REMARK  4 active torsions:
REMARK  status: ('A' for Active; 'I' for Inactive)
REMARK    1  A    between atoms: N_1  and  C_2
REMARK    2  A    between atoms: C_2  and  C_3
REMARK    3  A    between atoms: C_7  and  C_8
REMARK    4  A    between atoms: C_8  and  N_9
REMARK                            x       y       z     vdW  Elec       q    Type
REMARK                         _______ _______ _______ _____ _____    ______ ____
ROOT
ATOM      1  C   UNL     1      44.710   5.557  11.702  0.00  0.00    +0.000 C 
ENDROOT
BRANCH   1   2
ATOM      2  N   UNL     1      45.945   5.584  12.464  0.00  0.00    +0.000 N 
ATOM      3  C   UNL     1      46.416   4.555  13.233  0.00  0.00    +0.000 A 
ATOM      4  N   UNL     1      47.552   4.862  13.817  0.00  0.00    +0.000 NA
ATOM      5  C   UNL     1      47.846   6.132  13.391  0.00  0.00    +0.000 A 
ATOM      6  C   UNL     1      48.943   6.945  13.708  0.00  0.00    +0.000 A 
ATOM      7  C   UNL     1      49.037   8.214  13.120  0.00  0.00    +0.000 A 
ATOM      8  C   UNL     1      48.054   8.657  12.234  0.00  0.00    +0.000 A 
ATOM      9 CL   UNL     1      48.208  10.216  11.514  0.00  0.00    +0.000 Cl
ATOM     10  C   UNL     1      46.944   7.867  11.912  0.00  0.00    +0.000 A 
ATOM     11  C   UNL     1      46.866   6.605  12.516  0.00  0.00    +0.000 A 
ENDBRANCH   1   2
BRANCH   1  16
ATOM     12  C   UNL     1      45.288   3.363   8.630  0.00  0.00    +0.000 A 
ATOM     13  C   UNL     1      44.526   2.270   9.022  0.00  0.00    +0.000 A 
ATOM     14  N   UNL     1      43.856   2.192  10.194  0.00  0.00    +0.000 NA
ATOM     15  C   UNL     1      43.940   3.259  11.016  0.00  0.00    +0.000 A 
ATOM     16  C   UNL     1      44.679   4.405  10.739  0.00  0.00    +0.000 A 
ATOM     17  C   UNL     1      45.361   4.443   9.518  0.00  0.00    +0.000 A 
BRANCH  12  18
ATOM     18  C   UNL     1      45.961   3.401   7.287  0.00  0.00    +0.000 C 
BRANCH  18  19
ATOM     19  N   UNL     1      46.921   4.495   7.189  0.00  0.00    +0.000 NA
ATOM     20  H   UNL     1      46.645   5.235   7.835  0.00  0.00    +0.000 HD
ATOM     21  H   UNL     1      46.866   4.902   6.256  0.00  0.00    +0.000 HD
ENDBRANCH  18  19
ENDBRANCH  12  18
ENDBRANCH   1  16
TORSDOF 4
ENDMDL
MODEL 9
REMARK VINA RESULT:    -5.822      2.824      4.937
REMARK INTER + INTRA:          -7.291
REMARK INTER:                  -6.845
REMARK INTRA:                  -0.446
REMARK UNBOUND:                -0.277
REMARK  Name = 
REMARK  4 active torsions:
REMARK  status: ('A' for Active; 'I' for Inactive)
REMARK    1  A    between atoms: N_1  and  C_2
REMARK    2  A    between atoms: C_2  and  C_3
REMARK    3  A    between atoms: C_7  and  C_8
REMARK    4  A    between atoms: C_8  and  N_9
REMARK                            x       y       z     vdW  Elec       q    Type
REMARK                         _______ _______ _______ _____ _____    ______ ____
ROOT
ATOM      1  C   UNL     1      46.536   5.845  13.246  0.00  0.00    +0.000 C 
ENDROOT
BRANCH   1   2
ATOM      2  N   UNL     1      46.663   7.240  12.862  0.00  0.00    +0.000 N 
ATOM      3  C   UNL     1      45.663   8.170  12.944  0.00  0.00    +0.000 A 
ATOM      4  N   UNL     1      46.057   9.349  12.519  0.00  0.00    +0.000 NA
ATOM      5  C   UNL     1      47.374   9.186  12.171  0.00  0.00    +0.000 A 
ATOM      6  C   UNL     1      48.281  10.122  11.654  0.00  0.00    +0.000 A 
ATOM      7  C   UNL     1      49.598   9.718  11.397  0.00  0.00    +0.000 A 
ATOM      8  C   UNL     1      49.997   8.406  11.653  0.00  0.00    +0.000 A 
ATOM      9 CL   UNL     1      51.629   7.946  11.342  0.00  0.00    +0.000 Cl
ATOM     10  C   UNL     1      49.107   7.452  12.157  0.00  0.00    +0.000 A 
ATOM     11  C   UNL     1      47.793   7.874  12.400  0.00  0.00    +0.000 A 
ENDBRANCH   1   2
BRANCH   1  16
ATOM     12  C   UNL     1      44.472   4.271  10.444  0.00  0.00    +0.000 A 
ATOM     13  C   UNL     1      43.340   3.957  11.186  0.00  0.00    +0.000 A 
ATOM     14  N   UNL     1      43.204   4.208  12.508  0.00  0.00    +0.000 NA
ATOM     15  C   UNL     1      44.243   4.810  13.124  0.00  0.00    +0.000 A 
ATOM     16  C   UNL     1      45.431   5.163  12.492  0.00  0.00    +0.000 A 
ATOM     17  C   UNL     1      45.532   4.882  11.124  0.00  0.00    +0.000 A 
BRANCH  12  18
ATOM     18  C   UNL     1      44.530   4.011   8.966  0.00  0.00    +0.000 C 
BRANCH  18  19
ATOM     19  N   UNL     1      45.514   4.858   8.302  0.00  0.00    +0.000 NA
ATOM     20  H   UNL     1      45.407   4.761   7.293  0.00  0.00    +0.000 HD
ATOM     21  H   UNL     1      46.449   4.514   8.520  0.00  0.00    +0.000 HD
ENDBRANCH  18  19
ENDBRANCH  12  18
ENDBRANCH   1  16
TORSDOF 4
ENDMDL
