MODEL 1
REMARK VINA RESULT:    -8.222      0.000      0.000
REMARK INTER + INTRA:         -11.559
REMARK INTER:                 -10.626
REMARK INTRA:                  -0.933
REMARK UNBOUND:                -0.933
REMARK  Name = 
REMARK  7 active torsions:
REMARK  status: ('A' for Active; 'I' for Inactive)
REMARK    1  A    between atoms: C_1  and  C_2
REMARK    2  A    between atoms: C_5  and  C_6
REMARK    3  A    between atoms: C_10  and  C_11
REMARK    4  A    between atoms: C_11  and  C_12
REMARK    5  A    between atoms: C_11  and  C_13
REMARK    6  A    between atoms: C_13  and  N_14
REMARK    7  A    between atoms: C_18  and  C_19
REMARK                            x       y       z     vdW  Elec       q    Type
REMARK                         _______ _______ _______ _____ _____    ______ ____
ROOT
ATOM      1  C   UNL     1      43.240   4.962  12.243  0.00  0.00    +0.000 C 
ATOM      2  C   UNL     1      42.246   6.125  12.120  0.00  0.00    +0.000 C 
ENDROOT
BRANCH   1   7
ATOM      3  C   UNL     1      46.678   5.443  13.872  0.00  0.00    +0.000 A 
ATOM      4  C   UNL     1      47.143   6.494  13.074  0.00  0.00    +0.000 A 
ATOM      5  C   UNL     1      46.348   6.969  12.047  0.00  0.00    +0.000 A 
ATOM      6  N   UNL     1      45.124   6.484  11.764  0.00  0.00    +0.000 NA
ATOM      7  C   UNL     1      44.644   5.482  12.537  0.00  0.00    +0.000 A 
ATOM      8  C   UNL     1      45.403   4.931  13.571  0.00  0.00    +0.000 A 
BRANCH   3  13
ATOM      9  C   UNL     1      49.799   3.359  18.182  0.00  0.00    +0.000 C 
ATOM     10  C   UNL     1      48.977   3.901  17.056  0.00  0.00    +0.000 A 
ATOM     11  N   UNL     1      48.195   3.046  16.376  0.00  0.00    +0.000 NA
ATOM     12  C   UNL     1      47.469   3.572  15.365  0.00  0.00    +0.000 A 
ATOM     13  C   UNL     1      47.482   4.904  14.983  0.00  0.00    +0.000 A 
ATOM     14  C   UNL     1      48.326   5.677  15.764  0.00  0.00    +0.000 A 
ATOM     15  N   UNL     1      49.073   5.215  16.792  0.00  0.00    +0.000 NA
ENDBRANCH   3  13
ENDBRANCH   1   7
BRANCH   1  16
ATOM     16  C   UNL     1      43.166   4.108  10.950  0.00  0.00    +0.000 C 
BRANCH  16  17
ATOM     17  N   UNL     1      43.878   4.715   9.816  0.00  0.00    +0.000 N 
ATOM     18  C   UNL     1      44.776   3.896   9.134  0.00  0.00    +0.000 A 
ATOM     19  C   UNL     1      45.525   4.410   8.063  0.00  0.00    +0.000 A 
ATOM     20  N   UNL     1      46.386   3.678   7.305  0.00  0.00    +0.000 NA
ATOM     21  C   UNL     1      46.447   2.364   7.650  0.00  0.00    +0.000 A 
ATOM     22  C   UNL     1      45.701   1.832   8.686  0.00  0.00    +0.000 A 
ATOM     23  N   UNL     1      44.860   2.583   9.439  0.00  0.00    +0.000 NA
ATOM     24  H   UNL     1      44.296   5.600  10.104  0.00  0.00    +0.000 HD
BRANCH  21  25
ATOM     25  C   UNL     1      47.375   1.480   6.894  0.00  0.00    +0.000 C 
ATOM     26  N   UNL     1      48.499   2.076   6.393  0.00  0.00    +0.000 N 
ATOM     27  O   UNL     1      47.154   0.286   6.732  0.00  0.00    +0.000 OA
ATOM     28  H   UNL     1      48.665   3.063   6.547  0.00  0.00    +0.000 HD
ATOM     29  H   UNL     1      49.175   1.515   5.895  0.00  0.00    +0.000 HD
ENDBRANCH  21  25
ENDBRANCH  16  17
ENDBRANCH   1  16
TORSDOF 5
ENDMDL
MODEL 2
REMARK VINA RESULT:    -8.149      1.700      2.109
REMARK INTER + INTRA:         -11.464
REMARK INTER:                 -10.621
REMARK INTRA:                  -0.842
REMARK UNBOUND:                -0.933
REMARK  Name = 
REMARK  7 active torsions:
REMARK  status: ('A' for Active; 'I' for Inactive)
REMARK    1  A    between atoms: C_1  and  C_2
REMARK    2  A    between atoms: C_5  and  C_6
REMARK    3  A    between atoms: C_10  and  C_11
REMARK    4  A    between atoms: C_11  and  C_12
REMARK    5  A    between atoms: C_11  and  C_13
REMARK    6  A    between atoms: C_13  and  N_14
REMARK    7  A    between atoms: C_18  and  C_19
REMARK                            x       y       z     vdW  Elec       q    Type
REMARK                         _______ _______ _______ _____ _____    ______ ____
ROOT
ATOM      1  C   UNL     1      44.089   4.843  12.169  0.00  0.00    +0.000 C 
ATOM      2  C   UNL     1      43.016   4.792  13.267  0.00  0.00    +0.000 C 
ENDROOT
BRANCH   1   7
ATOM      3  C   UNL     1      46.957   7.138  13.265  0.00  0.00    +0.000 A 
ATOM      4  C   UNL     1      46.511   8.328  12.677  0.00  0.00    +0.000 A 
ATOM      5  C   UNL     1      45.339   8.323  11.943  0.00  0.00    +0.000 A 
ATOM      6  N   UNL     1      44.575   7.229  11.762  0.00  0.00    +0.000 NA
ATOM      7  C   UNL     1      44.976   6.072  12.339  0.00  0.00    +0.000 A 
ATOM      8  C   UNL     1      46.164   5.994  13.069  0.00  0.00    +0.000 A 
BRANCH   3  13
ATOM      9  C   UNL     1      51.760   6.954  16.357  0.00  0.00    +0.000 C 
ATOM     10  C   UNL     1      50.500   7.002  15.553  0.00  0.00    +0.000 A 
ATOM     11  N   UNL     1      49.500   6.173  15.895  0.00  0.00    +0.000 NA
ATOM     12  C   UNL     1      48.378   6.243  15.146  0.00  0.00    +0.000 A 
ATOM     13  C   UNL     1      48.195   7.090  14.063  0.00  0.00    +0.000 A 
ATOM     14  C   UNL     1      49.298   7.891  13.817  0.00  0.00    +0.000 A 
ATOM     15  N   UNL     1      50.445   7.874  14.533  0.00  0.00    +0.000 NA
ENDBRANCH   3  13
ENDBRANCH   1   7
BRANCH   1  16
ATOM     16  C   UNL     1      43.386   4.787  10.788  0.00  0.00    +0.000 C 
BRANCH  16  17
ATOM     17  N   UNL     1      44.280   5.120   9.671  0.00  0.00    +0.000 N 
ATOM     18  C   UNL     1      45.005   4.066   9.116  0.00  0.00    +0.000 A 
ATOM     19  C   UNL     1      45.912   4.307   8.071  0.00  0.00    +0.000 A 
ATOM     20  N   UNL     1      46.624   3.339   7.433  0.00  0.00    +0.000 NA
ATOM     21  C   UNL     1      46.363   2.078   7.872  0.00  0.00    +0.000 A 
ATOM     22  C   UNL     1      45.457   1.816   8.884  0.00  0.00    +0.000 A 
ATOM     23  N   UNL     1      44.768   2.798   9.517  0.00  0.00    +0.000 NA
ATOM     24  H   UNL     1      44.874   5.910   9.927  0.00  0.00    +0.000 HD
BRANCH  21  25
ATOM     25  C   UNL     1      47.104   0.948   7.251  0.00  0.00    +0.000 C 
ATOM     26  N   UNL     1      46.738  -0.306   7.654  0.00  0.00    +0.000 N 
ATOM     27  O   UNL     1      47.987   1.124   6.420  0.00  0.00    +0.000 OA
ATOM     28  H   UNL     1      45.999  -0.428   8.335  0.00  0.00    +0.000 HD
ATOM     29  H   UNL     1      47.192  -1.109   7.242  0.00  0.00    +0.000 HD
ENDBRANCH  21  25
ENDBRANCH  16  17
ENDBRANCH   1  16
TORSDOF 5
ENDMDL
MODEL 3
REMARK VINA RESULT:    -7.461      2.214      3.348
REMARK INTER + INTRA:         -10.574
REMARK INTER:                  -9.735
REMARK INTRA:                  -0.839
REMARK UNBOUND:                -0.933
REMARK  Name = 
REMARK  7 active torsions:
REMARK  status: ('A' for Active; 'I' for Inactive)
REMARK    1  A    between atoms: C_1  and  C_2
REMARK    2  A    between atoms: C_5  and  C_6
REMARK    3  A    between atoms: C_10  and  C_11
REMARK    4  A    between atoms: C_11  and  C_12
REMARK    5  A    between atoms: C_11  and  C_13
REMARK    6  A    between atoms: C_13  and  N_14
REMARK    7  A    between atoms: C_18  and  C_19
REMARK                            x       y       z     vdW  Elec       q    Type
REMARK                         _______ _______ _______ _____ _____    ______ ____
ROOT
ATOM      1  C   UNL     1      43.653   5.698  12.130  0.00  0.00    +0.000 C 
ATOM      2  C   UNL     1      43.537   7.130  11.589  0.00  0.00    +0.000 C 
ENDROOT
BRANCH   1   7
ATOM      3  C   UNL     1      47.335   6.138  13.103  0.00  0.00    +0.000 A 
ATOM      4  C   UNL     1      47.479   5.000  13.904  0.00  0.00    +0.000 A 
ATOM      5  C   UNL     1      46.389   4.174  14.111  0.00  0.00    +0.000 A 
ATOM      6  N   UNL     1      45.174   4.392  13.571  0.00  0.00    +0.000 NA
ATOM      7  C   UNL     1      45.018   5.475  12.775  0.00  0.00    +0.000 A 
ATOM      8  C   UNL     1      46.065   6.370  12.547  0.00  0.00    +0.000 A 
BRANCH   3  13
ATOM      9  C   UNL     1      51.724   9.662  12.107  0.00  0.00    +0.000 C 
ATOM     10  C   UNL     1      50.576   8.737  12.362  0.00  0.00    +0.000 A 
ATOM     11  N   UNL     1      49.694   8.536  11.370  0.00  0.00    +0.000 NA
ATOM     12  C   UNL     1      48.670   7.696  11.637  0.00  0.00    +0.000 A 
ATOM     13  C   UNL     1      48.466   7.047  12.845  0.00  0.00    +0.000 A 
ATOM     14  C   UNL     1      49.446   7.338  13.781  0.00  0.00    +0.000 A 
ATOM     15  N   UNL     1      50.497   8.163  13.574  0.00  0.00    +0.000 NA
ENDBRANCH   3  13
ENDBRANCH   1   7
BRANCH   1  16
ATOM     16  C   UNL     1      43.358   4.707  10.974  0.00  0.00    +0.000 C 
BRANCH  16  17
ATOM     17  N   UNL     1      44.050   5.055   9.724  0.00  0.00    +0.000 N 
ATOM     18  C   UNL     1      44.848   4.063   9.157  0.00  0.00    +0.000 A 
ATOM     19  C   UNL     1      45.574   4.328   7.984  0.00  0.00    +0.000 A 
ATOM     20  N   UNL     1      46.339   3.412   7.329  0.00  0.00    +0.000 NA
ATOM     21  C   UNL     1      46.323   2.174   7.892  0.00  0.00    +0.000 A 
ATOM     22  C   UNL     1      45.597   1.885   9.033  0.00  0.00    +0.000 A 
ATOM     23  N   UNL     1      44.854   2.818   9.679  0.00  0.00    +0.000 NA
ATOM     24  H   UNL     1      44.546   5.939   9.839  0.00  0.00    +0.000 HD
BRANCH  21  25
ATOM     25  C   UNL     1      47.142   1.104   7.262  0.00  0.00    +0.000 C 
ATOM     26  N   UNL     1      48.178   1.524   6.475  0.00  0.00    +0.000 N 
ATOM     27  O   UNL     1      46.912  -0.086   7.440  0.00  0.00    +0.000 OA
ATOM     28  H   UNL     1      48.356   2.514   6.350  0.00  0.00    +0.000 HD
ATOM     29  H   UNL     1      48.783   0.838   6.046  0.00  0.00    +0.000 HD
ENDBRANCH  21  25
ENDBRANCH  16  17
ENDBRANCH   1  16
TORSDOF 5
ENDMDL
MODEL 4
REMARK VINA RESULT:    -7.183      2.763      7.920
REMARK INTER + INTRA:         -10.216
REMARK INTER:                  -9.560
REMARK INTRA:                  -0.656
REMARK UNBOUND:                -0.933
REMARK  Name = 
REMARK  7 active torsions:
REMARK  status: ('A' for Active; 'I' for Inactive)
REMARK    1  A    between atoms: C_1  and  C_2
REMARK    2  A    between atoms: C_5  and  C_6
REMARK    3  A    between atoms: C_10  and  C_11
REMARK    4  A    between atoms: C_11  and  C_12
REMARK    5  A    between atoms: C_11  and  C_13
REMARK    6  A    between atoms: C_13  and  N_14
REMARK    7  A    between atoms: C_18  and  C_19
REMARK                            x       y       z     vdW  Elec       q    Type
REMARK                         _______ _______ _______ _____ _____    ______ ____
ROOT
ATOM      1  C   UNL     1      46.187   7.744  12.215  0.00  0.00    +0.000 C 
ATOM      2  C   UNL     1      45.327   8.875  12.798  0.00  0.00    +0.000 C 
ENDROOT
BRANCH   1   7
ATOM      3  C   UNL     1      45.045   4.826  10.006  0.00  0.00    +0.000 A 
ATOM      4  C   UNL     1      43.682   4.843  10.323  0.00  0.00    +0.000 A 
ATOM      5  C   UNL     1      43.211   5.763  11.242  0.00  0.00    +0.000 A 
ATOM      6  N   UNL     1      43.992   6.672  11.858  0.00  0.00    +0.000 NA
ATOM      7  C   UNL     1      45.310   6.688  11.550  0.00  0.00    +0.000 A 
ATOM      8  C   UNL     1      45.862   5.769  10.655  0.00  0.00    +0.000 A 
BRANCH   3  13
ATOM      9  C   UNL     1      47.185   1.127   6.212  0.00  0.00    +0.000 C 
ATOM     10  C   UNL     1      46.627   2.091   7.209  0.00  0.00    +0.000 A 
ATOM     11  N   UNL     1      45.994   1.593   8.285  0.00  0.00    +0.000 NA
ATOM     12  C   UNL     1      45.502   2.495   9.162  0.00  0.00    +0.000 A 
ATOM     13  C   UNL     1      45.596   3.872   9.029  0.00  0.00    +0.000 A 
ATOM     14  C   UNL     1      46.272   4.253   7.881  0.00  0.00    +0.000 A 
ATOM     15  N   UNL     1      46.793   3.402   6.968  0.00  0.00    +0.000 NA
ENDBRANCH   3  13
ENDBRANCH   1   7
BRANCH   1  16
ATOM     16  C   UNL     1      47.081   7.169  13.344  0.00  0.00    +0.000 C 
BRANCH  16  17
ATOM     17  N   UNL     1      46.593   5.886  13.870  0.00  0.00    +0.000 N 
ATOM     18  C   UNL     1      47.314   5.330  14.925  0.00  0.00    +0.000 A 
ATOM     19  C   UNL     1      46.938   4.087  15.459  0.00  0.00    +0.000 A 
ATOM     20  N   UNL     1      47.547   3.489  16.519  0.00  0.00    +0.000 NA
ATOM     21  C   UNL     1      48.558   4.219  17.062  0.00  0.00    +0.000 A 
ATOM     22  C   UNL     1      48.930   5.456  16.567  0.00  0.00    +0.000 A 
ATOM     23  N   UNL     1      48.319   6.027  15.499  0.00  0.00    +0.000 NA
ATOM     24  H   UNL     1      46.453   5.229  13.102  0.00  0.00    +0.000 HD
BRANCH  21  25
ATOM     25  C   UNL     1      49.300   3.645  18.215  0.00  0.00    +0.000 C 
ATOM     26  N   UNL     1      48.552   3.328  19.315  0.00  0.00    +0.000 N 
ATOM     27  O   UNL     1      50.510   3.455  18.185  0.00  0.00    +0.000 OA
ATOM     28  H   UNL     1      47.551   3.485  19.314  0.00  0.00    +0.000 HD
ATOM     29  H   UNL     1      49.003   2.909  20.116  0.00  0.00    +0.000 HD
ENDBRANCH  21  25
ENDBRANCH  16  17
ENDBRANCH   1  16
TORSDOF 5
ENDMDL
MODEL 5
REMARK VINA RESULT:    -6.853      2.992      7.780
REMARK INTER + INTRA:          -9.788
REMARK INTER:                  -8.901
REMARK INTRA:                  -0.887
REMARK UNBOUND:                -0.933
REMARK  Name = 
REMARK  7 active torsions:
REMARK  status: ('A' for Active; 'I' for Inactive)
REMARK    1  A    between atoms: C_1  and  C_2
REMARK    2  A    between atoms: C_5  and  C_6
REMARK    3  A    between atoms: C_10  and  C_11
REMARK    4  A    between atoms: C_11  and  C_12
REMARK    5  A    between atoms: C_11  and  C_13
REMARK    6  A    between atoms: C_13  and  N_14
REMARK    7  A    between atoms: C_18  and  C_19
REMARK                            x       y       z     vdW  Elec       q    Type
REMARK                         _______ _______ _______ _____ _____    ______ ____
ROOT
ATOM      1  C   UNL     1      48.813   8.891  12.610  0.00  0.00    +0.000 C 
ATOM      2  C   UNL     1      48.822   9.981  13.692  0.00  0.00    +0.000 C 
ENDROOT
BRANCH   1   7
ATOM      3  C   UNL     1      45.817   6.827  11.402  0.00  0.00    +0.000 A 
ATOM      4  C   UNL     1      44.802   7.754  11.666  0.00  0.00    +0.000 A 
ATOM      5  C   UNL     1      45.128   8.970  12.239  0.00  0.00    +0.000 A 
ATOM      6  N   UNL     1      46.385   9.334  12.556  0.00  0.00    +0.000 NA
ATOM      7  C   UNL     1      47.385   8.462  12.290  0.00  0.00    +0.000 A 
ATOM      8  C   UNL     1      47.129   7.203  11.741  0.00  0.00    +0.000 A 
BRANCH   3  13
ATOM      9  C   UNL     1      44.686   1.761   9.011  0.00  0.00    +0.000 C 
ATOM     10  C   UNL     1      44.985   3.083   9.641  0.00  0.00    +0.000 A 
ATOM     11  N   UNL     1      44.822   3.202  10.969  0.00  0.00    +0.000 NA
ATOM     12  C   UNL     1      45.100   4.412  11.503  0.00  0.00    +0.000 A 
ATOM     13  C   UNL     1      45.525   5.520  10.787  0.00  0.00    +0.000 A 
ATOM     14  C   UNL     1      45.654   5.264   9.431  0.00  0.00    +0.000 A 
ATOM     15  N   UNL     1      45.399   4.077   8.837  0.00  0.00    +0.000 NA
ENDBRANCH   3  13
ENDBRANCH   1   7
BRANCH   1  16
ATOM     16  C   UNL     1      49.710   7.717  13.083  0.00  0.00    +0.000 C 
BRANCH  16  17
ATOM     17  N   UNL     1      49.958   7.727  14.531  0.00  0.00    +0.000 N 
ATOM     18  C   UNL     1      49.265   6.786  15.290  0.00  0.00    +0.000 A 
ATOM     19  C   UNL     1      49.415   6.755  16.686  0.00  0.00    +0.000 A 
ATOM     20  N   UNL     1      48.822   5.843  17.504  0.00  0.00    +0.000 NA
ATOM     21  C   UNL     1      48.074   4.915  16.848  0.00  0.00    +0.000 A 
ATOM     22  C   UNL     1      47.931   4.913  15.472  0.00  0.00    +0.000 A 
ATOM     23  N   UNL     1      48.519   5.841  14.677  0.00  0.00    +0.000 NA
ATOM     24  H   UNL     1      49.852   8.676  14.894  0.00  0.00    +0.000 HD
BRANCH  21  25
ATOM     25  C   UNL     1      47.368   3.883  17.654  0.00  0.00    +0.000 C 
ATOM     26  N   UNL     1      47.828   3.697  18.928  0.00  0.00    +0.000 N 
ATOM     27  O   UNL     1      46.424   3.241  17.211  0.00  0.00    +0.000 OA
ATOM     28  H   UNL     1      48.604   4.247  19.277  0.00  0.00    +0.000 HD
ATOM     29  H   UNL     1      47.365   3.028  19.527  0.00  0.00    +0.000 HD
ENDBRANCH  21  25
ENDBRANCH  16  17
ENDBRANCH   1  16
TORSDOF 5
ENDMDL
MODEL 6
REMARK VINA RESULT:    -6.792      3.417      6.301
REMARK INTER + INTRA:          -9.710
REMARK INTER:                  -8.972
REMARK INTRA:                  -0.738
REMARK UNBOUND:                -0.933
REMARK  Name = 
REMARK  7 active torsions:
REMARK  status: ('A' for Active; 'I' for Inactive)
REMARK    1  A    between atoms: C_1  and  C_2
REMARK    2  A    between atoms: C_5  and  C_6
REMARK    3  A    between atoms: C_10  and  C_11
REMARK    4  A    between atoms: C_11  and  C_12
REMARK    5  A    between atoms: C_11  and  C_13
REMARK    6  A    between atoms: C_13  and  N_14
REMARK    7  A    between atoms: C_18  and  C_19
REMARK                            x       y       z     vdW  Elec       q    Type
REMARK                         _______ _______ _______ _____ _____    ______ ____
ROOT
ATOM      1  C   UNL     1      47.866   3.954  17.458  0.00  0.00    +0.000 C 
ATOM      2  C   UNL     1      47.153   5.136  18.129  0.00  0.00    +0.000 C 
ENDROOT
BRANCH   1   7
ATOM      3  C   UNL     1      51.643   3.376  17.780  0.00  0.00    +0.000 A 
ATOM      4  C   UNL     1      52.083   4.655  17.420  0.00  0.00    +0.000 A 
ATOM      5  C   UNL     1      51.154   5.618  17.068  0.00  0.00    +0.000 A 
ATOM      6  N   UNL     1      49.824   5.405  17.060  0.00  0.00    +0.000 NA
ATOM      7  C   UNL     1      49.374   4.182  17.426  0.00  0.00    +0.000 A 
ATOM      8  C   UNL     1      50.255   3.152  17.763  0.00  0.00    +0.000 A 
BRANCH   3  13
ATOM      9  C   UNL     1      55.320  -0.729  19.294  0.00  0.00    +0.000 C 
ATOM     10  C   UNL     1      54.353   0.341  18.899  0.00  0.00    +0.000 A 
ATOM     11  N   UNL     1      53.315  -0.001  18.117  0.00  0.00    +0.000 NA
ATOM     12  C   UNL     1      52.464   0.993  17.780  0.00  0.00    +0.000 A 
ATOM     13  C   UNL     1      52.590   2.317  18.170  0.00  0.00    +0.000 A 
ATOM     14  C   UNL     1      53.699   2.536  18.972  0.00  0.00    +0.000 A 
ATOM     15  N   UNL     1      54.583   1.586  19.351  0.00  0.00    +0.000 NA
ENDBRANCH   3  13
ENDBRANCH   1   7
BRANCH   1  16
ATOM     16  C   UNL     1      47.254   3.742  16.049  0.00  0.00    +0.000 C 
BRANCH  16  17
ATOM     17  N   UNL     1      47.176   4.980  15.260  0.00  0.00    +0.000 N 
ATOM     18  C   UNL     1      46.588   4.882  14.001  0.00  0.00    +0.000 A 
ATOM     19  C   UNL     1      46.511   6.010  13.168  0.00  0.00    +0.000 A 
ATOM     20  N   UNL     1      45.912   6.025  11.946  0.00  0.00    +0.000 NA
ATOM     21  C   UNL     1      45.347   4.839  11.592  0.00  0.00    +0.000 A 
ATOM     22  C   UNL     1      45.391   3.722  12.406  0.00  0.00    +0.000 A 
ATOM     23  N   UNL     1      46.007   3.725  13.614  0.00  0.00    +0.000 NA
ATOM     24  H   UNL     1      48.093   5.429  15.230  0.00  0.00    +0.000 HD
BRANCH  21  25
ATOM     25  C   UNL     1      44.681   4.745  10.265  0.00  0.00    +0.000 C 
ATOM     26  N   UNL     1      45.408   5.188   9.195  0.00  0.00    +0.000 N 
ATOM     27  O   UNL     1      43.552   4.291  10.131  0.00  0.00    +0.000 OA
ATOM     28  H   UNL     1      46.344   5.552   9.329  0.00  0.00    +0.000 HD
ATOM     29  H   UNL     1      45.013   5.121   8.268  0.00  0.00    +0.000 HD
ENDBRANCH  21  25
ENDBRANCH  16  17
ENDBRANCH   1  16
TORSDOF 5
ENDMDL
MODEL 7
REMARK VINA RESULT:    -6.610      2.823      5.798
REMARK INTER + INTRA:          -9.475
REMARK INTER:                  -8.710
REMARK INTRA:                  -0.765
REMARK UNBOUND:                -0.933
REMARK  Name = 
REMARK  7 active torsions:
REMARK  status: ('A' for Active; 'I' for Inactive)
REMARK    1  A    between atoms: C_1  and  C_2
REMARK    2  A    between atoms: C_5  and  C_6
REMARK    3  A    between atoms: C_10  and  C_11
REMARK    4  A    between atoms: C_11  and  C_12
REMARK    5  A    between atoms: C_11  and  C_13
REMARK    6  A    between atoms: C_13  and  N_14
REMARK    7  A    between atoms: C_18  and  C_19
REMARK                            x       y       z     vdW  Elec       q    Type
REMARK                         _______ _______ _______ _____ _____    ______ ____
ROOT
ATOM      1  C   UNL     1      49.230   7.580  15.473  0.00  0.00    +0.000 C 
ATOM      2  C   UNL     1      50.646   7.690  14.888  0.00  0.00    +0.000 C 
ENDROOT
BRANCH   1   7
ATOM      3  C   UNL     1      50.034   4.565  17.700  0.00  0.00    +0.000 A 
ATOM      4  C   UNL     1      49.067   4.771  18.691  0.00  0.00    +0.000 A 
ATOM      5  C   UNL     1      48.235   5.873  18.607  0.00  0.00    +0.000 A 
ATOM      6  N   UNL     1      48.287   6.774  17.607  0.00  0.00    +0.000 NA
ATOM      7  C   UNL     1      49.200   6.583  16.627  0.00  0.00    +0.000 A 
ATOM      8  C   UNL     1      50.094   5.511  16.661  0.00  0.00    +0.000 A 
BRANCH   3  13
ATOM      9  C   UNL     1      53.548   0.060  17.848  0.00  0.00    +0.000 C 
ATOM     10  C   UNL     1      52.633   1.242  17.807  0.00  0.00    +0.000 A 
ATOM     11  N   UNL     1      53.093   2.414  18.276  0.00  0.00    +0.000 NA
ATOM     12  C   UNL     1      52.238   3.459  18.225  0.00  0.00    +0.000 A 
ATOM     13  C   UNL     1      50.941   3.404  17.738  0.00  0.00    +0.000 A 
ATOM     14  C   UNL     1      50.592   2.143  17.285  0.00  0.00    +0.000 A 
ATOM     15  N   UNL     1      51.401   1.060  17.302  0.00  0.00    +0.000 NA
ENDBRANCH   3  13
ENDBRANCH   1   7
BRANCH   1  16
ATOM     16  C   UNL     1      48.249   7.216  14.328  0.00  0.00    +0.000 C 
BRANCH  16  17
ATOM     17  N   UNL     1      47.541   5.948  14.556  0.00  0.00    +0.000 N 
ATOM     18  C   UNL     1      46.679   5.525  13.546  0.00  0.00    +0.000 A 
ATOM     19  C   UNL     1      45.935   4.344  13.702  0.00  0.00    +0.000 A 
ATOM     20  N   UNL     1      45.109   3.824  12.754  0.00  0.00    +0.000 NA
ATOM     21  C   UNL     1      45.079   4.536  11.595  0.00  0.00    +0.000 A 
ATOM     22  C   UNL     1      45.821   5.688  11.411  0.00  0.00    +0.000 A 
ATOM     23  N   UNL     1      46.627   6.198  12.375  0.00  0.00    +0.000 NA
ATOM     24  H   UNL     1      47.092   5.962  15.473  0.00  0.00    +0.000 HD
BRANCH  21  25
ATOM     25  C   UNL     1      44.191   4.061  10.500  0.00  0.00    +0.000 C 
ATOM     26  N   UNL     1      44.312   4.710   9.303  0.00  0.00    +0.000 N 
ATOM     27  O   UNL     1      43.403   3.137  10.652  0.00  0.00    +0.000 OA
ATOM     28  H   UNL     1      44.979   5.466   9.197  0.00  0.00    +0.000 HD
ATOM     29  H   UNL     1      43.752   4.409   8.518  0.00  0.00    +0.000 HD
ENDBRANCH  21  25
ENDBRANCH  16  17
ENDBRANCH   1  16
TORSDOF 5
ENDMDL
MODEL 8
REMARK VINA RESULT:    -6.298      4.248      8.565
REMARK INTER + INTRA:          -9.072
REMARK INTER:                  -8.531
REMARK INTRA:                  -0.540
REMARK UNBOUND:                -0.933
REMARK  Name = 
REMARK  7 active torsions:
REMARK  status: ('A' for Active; 'I' for Inactive)
REMARK    1  A    between atoms: C_1  and  C_2
REMARK    2  A    between atoms: C_5  and  C_6
REMARK    3  A    between atoms: C_10  and  C_11
REMARK    4  A    between atoms: C_11  and  C_12
REMARK    5  A    between atoms: C_11  and  C_13
REMARK    6  A    between atoms: C_13  and  N_14
REMARK    7  A    between atoms: C_18  and  C_19
REMARK                            x       y       z     vdW  Elec       q    Type
REMARK                         _______ _______ _______ _____ _____    ______ ____
ROOT
ATOM      1  C   UNL     1      49.618   6.956  17.238  0.00  0.00    +0.000 C 
ATOM      2  C   UNL     1      48.357   6.841  18.107  0.00  0.00    +0.000 C 
ENDROOT
BRANCH   1   7
ATOM      3  C   UNL     1      47.859   6.112  13.937  0.00  0.00    +0.000 A 
ATOM      4  C   UNL     1      48.675   6.847  13.070  0.00  0.00    +0.000 A 
ATOM      5  C   UNL     1      49.719   7.591  13.589  0.00  0.00    +0.000 A 
ATOM      6  N   UNL     1      50.017   7.647  14.901  0.00  0.00    +0.000 NA
ATOM      7  C   UNL     1      49.255   6.926  15.756  0.00  0.00    +0.000 A 
ATOM      8  C   UNL     1      48.165   6.177  15.308  0.00  0.00    +0.000 A 
BRANCH   3  13
ATOM      9  C   UNL     1      43.511   2.955  11.990  0.00  0.00    +0.000 C 
ATOM     10  C   UNL     1      44.652   3.777  12.497  0.00  0.00    +0.000 A 
ATOM     11  N   UNL     1      45.737   3.135  12.962  0.00  0.00    +0.000 NA
ATOM     12  C   UNL     1      46.747   3.911  13.412  0.00  0.00    +0.000 A 
ATOM     13  C   UNL     1      46.739   5.297  13.435  0.00  0.00    +0.000 A 
ATOM     14  C   UNL     1      45.566   5.834  12.928  0.00  0.00    +0.000 A 
ATOM     15  N   UNL     1      44.524   5.114  12.456  0.00  0.00    +0.000 NA
ENDBRANCH   3  13
ENDBRANCH   1   7
BRANCH   1  16
ATOM     16  C   UNL     1      50.604   5.830  17.645  0.00  0.00    +0.000 C 
BRANCH  16  17
ATOM     17  N   UNL     1      50.049   4.482  17.460  0.00  0.00    +0.000 N 
ATOM     18  C   UNL     1      50.951   3.422  17.528  0.00  0.00    +0.000 A 
ATOM     19  C   UNL     1      50.509   2.105  17.323  0.00  0.00    +0.000 A 
ATOM     20  N   UNL     1      51.302   1.003  17.419  0.00  0.00    +0.000 NA
ATOM     21  C   UNL     1      52.588   1.275  17.771  0.00  0.00    +0.000 A 
ATOM     22  C   UNL     1      53.039   2.562  18.000  0.00  0.00    +0.000 A 
ATOM     23  N   UNL     1      52.235   3.648  17.883  0.00  0.00    +0.000 NA
ATOM     24  H   UNL     1      49.478   4.456  16.615  0.00  0.00    +0.000 HD
BRANCH  21  25
ATOM     25  C   UNL     1      53.542   0.139  17.885  0.00  0.00    +0.000 C 
ATOM     26  N   UNL     1      53.944  -0.429  16.708  0.00  0.00    +0.000 N 
ATOM     27  O   UNL     1      53.953  -0.262  18.966  0.00  0.00    +0.000 OA
ATOM     28  H   UNL     1      53.598  -0.074  15.825  0.00  0.00    +0.000 HD
ATOM     29  H   UNL     1      54.612  -1.186  16.728  0.00  0.00    +0.000 HD
ENDBRANCH  21  25
ENDBRANCH  16  17
ENDBRANCH   1  16
TORSDOF 5
ENDMDL
MODEL 9
REMARK VINA RESULT:    -6.122      2.955      4.935
REMARK INTER + INTRA:          -8.845
REMARK INTER:                  -8.214
REMARK INTRA:                  -0.631
REMARK UNBOUND:                -0.933
REMARK  Name = 
REMARK  7 active torsions:
REMARK  status: ('A' for Active; 'I' for Inactive)
REMARK    1  A    between atoms: C_1  and  C_2
REMARK    2  A    between atoms: C_5  and  C_6
REMARK    3  A    between atoms: C_10  and  C_11
REMARK    4  A    between atoms: C_11  and  C_12
REMARK    5  A    between atoms: C_11  and  C_13
REMARK    6  A    between atoms: C_13  and  N_14
REMARK    7  A    between atoms: C_18  and  C_19
REMARK                            x       y       z     vdW  Elec       q    Type
REMARK                         _______ _______ _______ _____ _____    ______ ____
ROOT
ATOM      1  C   UNL     1      48.176   8.752  12.369  0.00  0.00    +0.000 C 
ATOM      2  C   UNL     1      48.922   7.707  11.526  0.00  0.00    +0.000 C 
ENDROOT
BRANCH   1   7
ATOM      3  C   UNL     1      49.886   7.779  15.659  0.00  0.00    +0.000 A 
ATOM      4  C   UNL     1      49.758   9.000  16.332  0.00  0.00    +0.000 A 
ATOM      5  C   UNL     1      49.160  10.068  15.689  0.00  0.00    +0.000 A 
ATOM      6  N   UNL     1      48.672  10.008  14.435  0.00  0.00    +0.000 NA
ATOM      7  C   UNL     1      48.766   8.832  13.773  0.00  0.00    +0.000 A 
ATOM      8  C   UNL     1      49.385   7.719  14.347  0.00  0.00    +0.000 A 
BRANCH   3  13
ATOM      9  C   UNL     1      52.296   3.234  18.149  0.00  0.00    +0.000 C 
ATOM     10  C   UNL     1      51.670   4.423  17.493  0.00  0.00    +0.000 A 
ATOM     11  N   UNL     1      52.474   5.426  17.102  0.00  0.00    +0.000 NA
ATOM     12  C   UNL     1      51.873   6.484  16.516  0.00  0.00    +0.000 A 
ATOM     13  C   UNL     1      50.508   6.608  16.301  0.00  0.00    +0.000 A 
ATOM     14  C   UNL     1      49.794   5.508  16.748  0.00  0.00    +0.000 A 
ATOM     15  N   UNL     1      50.335   4.417  17.335  0.00  0.00    +0.000 NA
ENDBRANCH   3  13
ENDBRANCH   1   7
BRANCH   1  16
ATOM     16  C   UNL     1      46.664   8.403  12.363  0.00  0.00    +0.000 C 
BRANCH  16  17
ATOM     17  N   UNL     1      46.323   7.298  13.270  0.00  0.00    +0.000 N 
ATOM     18  C   UNL     1      45.687   6.197  12.700  0.00  0.00    +0.000 A 
ATOM     19  C   UNL     1      45.292   5.116  13.504  0.00  0.00    +0.000 A 
ATOM     20  N   UNL     1      44.712   3.978  13.033  0.00  0.00    +0.000 NA
ATOM     21  C   UNL     1      44.568   3.949  11.680  0.00  0.00    +0.000 A 
ATOM     22  C   UNL     1      44.971   4.993  10.867  0.00  0.00    +0.000 A 
ATOM     23  N   UNL     1      45.533   6.125  11.360  0.00  0.00    +0.000 NA
ATOM     24  H   UNL     1      45.824   7.660  14.084  0.00  0.00    +0.000 HD
BRANCH  21  25
ATOM     25  C   UNL     1      43.927   2.755  11.066  0.00  0.00    +0.000 C 
ATOM     26  N   UNL     1      44.530   2.259   9.944  0.00  0.00    +0.000 N 
ATOM     27  O   UNL     1      42.923   2.237  11.539  0.00  0.00    +0.000 OA
ATOM     28  H   UNL     1      45.366   2.699   9.577  0.00  0.00    +0.000 HD
ATOM     29  H   UNL     1      44.152   1.433   9.504  0.00  0.00    +0.000 HD
ENDBRANCH  21  25
ENDBRANCH  16  17
ENDBRANCH   1  16
TORSDOF 5
ENDMDL
