MODEL 1
REMARK VINA RESULT:    -8.384      0.000      0.000
REMARK INTER + INTRA:         -11.561
REMARK INTER:                 -10.835
REMARK INTRA:                  -0.727
REMARK UNBOUND:                -0.727
REMARK  Name = 
REMARK  5 active torsions:
REMARK  status: ('A' for Active; 'I' for Inactive)
REMARK    1  A    between atoms: C_2  and  C_4
REMARK    2  A    between atoms: C_7  and  O_8
REMARK    3  A    between atoms: O_8  and  C_9
REMARK    4  A    between atoms: C_9  and  C_10
REMARK    5  A    between atoms: C_12  and  N_13
REMARK                            x       y       z     vdW  Elec       q    Type
REMARK                         _______ _______ _______ _____ _____    ______ ____
ROOT
ATOM      1  C   UNL     1      43.471   4.417  11.255  0.00  0.00    +0.000 C 
ENDROOT
BRANCH   1   2
ATOM      2  C   UNL     1      44.419   5.418  11.879  0.00  0.00    +0.000 A 
ATOM      3  C   UNL     1      45.311   5.024  12.876  0.00  0.00    +0.000 A 
ATOM      4  C   UNL     1      46.233   5.928  13.408  0.00  0.00    +0.000 A 
ATOM      5  C   UNL     1      46.210   7.222  12.892  0.00  0.00    +0.000 A 
ATOM      6  C   UNL     1      45.303   7.545  11.895  0.00  0.00    +0.000 A 
ATOM      7  N   UNL     1      44.414   6.674  11.371  0.00  0.00    +0.000 NA
BRANCH   4   8
ATOM      8  N   UNL     1      47.157   5.507  14.339  0.00  0.00    +0.000 N 
ATOM      9  C   UNL     1      47.222   4.119  14.807  0.00  0.00    +0.000 C 
ATOM     10  C   UNL     1      47.572   4.142  16.302  0.00  0.00    +0.000 C 
ATOM     11  O   UNL     1      48.818   4.823  16.540  0.00  0.00    +0.000 OA
ATOM     12  C   UNL     1      48.744   6.186  16.079  0.00  0.00    +0.000 C 
ATOM     13  C   UNL     1      48.396   6.266  14.582  0.00  0.00    +0.000 C 
ENDBRANCH   4   8
ENDBRANCH   1   2
BRANCH   1  14
ATOM     14  O   UNL     1      43.489   4.537   9.829  0.00  0.00    +0.000 OA
BRANCH  14  18
ATOM     15  C   UNL     1      46.390   2.289   7.858  0.00  0.00    +0.000 A 
ATOM     16  C   UNL     1      46.377   3.676   7.664  0.00  0.00    +0.000 A 
ATOM     17  C   UNL     1      45.424   4.469   8.313  0.00  0.00    +0.000 A 
ATOM     18  C   UNL     1      44.477   3.882   9.154  0.00  0.00    +0.000 A 
ATOM     19  C   UNL     1      44.492   2.497   9.344  0.00  0.00    +0.000 A 
ATOM     20  C   UNL     1      45.437   1.700   8.695  0.00  0.00    +0.000 A 
BRANCH  15  22
ATOM     21  N   UNL     1      48.450   2.015   6.590  0.00  0.00    +0.000 N 
ATOM     22  C   UNL     1      47.368   1.412   7.170  0.00  0.00    +0.000 C 
ATOM     23  O   UNL     1      47.240   0.193   7.147  0.00  0.00    +0.000 OA
ATOM     24  H   UNL     1      49.158   1.397   6.214  0.00  0.00    +0.000 HD
ATOM     25  H   UNL     1      48.722   2.961   6.809  0.00  0.00    +0.000 HD
ENDBRANCH  15  22
ENDBRANCH  14  18
ENDBRANCH   1  14
TORSDOF 5
ENDMDL
MODEL 2
REMARK VINA RESULT:    -8.349      2.109      3.263
REMARK INTER + INTRA:         -11.516
REMARK INTER:                 -10.806
REMARK INTRA:                  -0.710
REMARK UNBOUND:                -0.727
REMARK  Name = 
REMARK  5 active torsions:
REMARK  status: ('A' for Active; 'I' for Inactive)
REMARK    1  A    between atoms: C_2  and  C_4
REMARK    2  A    between atoms: C_7  and  O_8
REMARK    3  A    between atoms: O_8  and  C_9
REMARK    4  A    between atoms: C_9  and  C_10
REMARK    5  A    between atoms: C_12  and  N_13
REMARK                            x       y       z     vdW  Elec       q    Type
REMARK                         _______ _______ _______ _____ _____    ______ ____
ROOT
ATOM      1  C   UNL     1      43.753   3.605  11.725  0.00  0.00    +0.000 C 
ENDROOT
BRANCH   1   2
ATOM      2  C   UNL     1      44.979   4.212  12.373  0.00  0.00    +0.000 A 
ATOM      3  C   UNL     1      45.273   5.565  12.206  0.00  0.00    +0.000 A 
ATOM      4  C   UNL     1      46.365   6.145  12.855  0.00  0.00    +0.000 A 
ATOM      5  C   UNL     1      47.128   5.308  13.666  0.00  0.00    +0.000 A 
ATOM      6  C   UNL     1      46.776   3.973  13.794  0.00  0.00    +0.000 A 
ATOM      7  N   UNL     1      45.717   3.408  13.176  0.00  0.00    +0.000 NA
BRANCH   4   8
ATOM      8  N   UNL     1      46.601   7.498  12.740  0.00  0.00    +0.000 N 
ATOM      9  C   UNL     1      45.552   8.498  12.964  0.00  0.00    +0.000 C 
ATOM     10  C   UNL     1      45.766   9.637  11.954  0.00  0.00    +0.000 C 
ATOM     11  O   UNL     1      47.073  10.223  12.092  0.00  0.00    +0.000 OA
ATOM     12  C   UNL     1      48.096   9.234  11.869  0.00  0.00    +0.000 C 
ATOM     13  C   UNL     1      47.965   8.045  12.839  0.00  0.00    +0.000 C 
ENDBRANCH   4   8
ENDBRANCH   1   2
BRANCH   1  14
ATOM     14  O   UNL     1      43.655   4.022  10.360  0.00  0.00    +0.000 OA
BRANCH  14  18
ATOM     15  C   UNL     1      46.458   2.685   7.583  0.00  0.00    +0.000 A 
ATOM     16  C   UNL     1      45.821   1.738   8.395  0.00  0.00    +0.000 A 
ATOM     17  C   UNL     1      44.868   2.143   9.336  0.00  0.00    +0.000 A 
ATOM     18  C   UNL     1      44.549   3.496   9.474  0.00  0.00    +0.000 A 
ATOM     19  C   UNL     1      45.188   4.439   8.663  0.00  0.00    +0.000 A 
ATOM     20  C   UNL     1      46.144   4.040   7.725  0.00  0.00    +0.000 A 
BRANCH  15  22
ATOM     21  N   UNL     1      47.505   2.979   5.405  0.00  0.00    +0.000 N 
ATOM     22  C   UNL     1      47.490   2.298   6.591  0.00  0.00    +0.000 C 
ATOM     23  O   UNL     1      48.321   1.429   6.827  0.00  0.00    +0.000 OA
ATOM     24  H   UNL     1      48.275   2.774   4.780  0.00  0.00    +0.000 HD
ATOM     25  H   UNL     1      47.021   3.855   5.280  0.00  0.00    +0.000 HD
ENDBRANCH  15  22
ENDBRANCH  14  18
ENDBRANCH   1  14
TORSDOF 5
ENDMDL
MODEL 3
REMARK VINA RESULT:    -7.929      1.158      1.725
REMARK INTER + INTRA:         -10.973
REMARK INTER:                 -10.318
REMARK INTRA:                  -0.655
REMARK UNBOUND:                -0.727
REMARK  Name = 
REMARK  5 active torsions:
REMARK  status: ('A' for Active; 'I' for Inactive)
REMARK    1  A    between atoms: C_2  and  C_4
REMARK    2  A    between atoms: C_7  and  O_8
REMARK    3  A    between atoms: O_8  and  C_9
REMARK    4  A    between atoms: C_9  and  C_10
REMARK    5  A    between atoms: C_12  and  N_13
REMARK                            x       y       z     vdW  Elec       q    Type
REMARK                         _______ _______ _______ _____ _____    ______ ____
ROOT
ATOM      1  C   UNL     1      43.940   4.118  11.632  0.00  0.00    +0.000 C 
ENDROOT
BRANCH   1   2
ATOM      2  C   UNL     1      44.660   5.417  11.921  0.00  0.00    +0.000 A 
ATOM      3  C   UNL     1      45.848   5.422  12.652  0.00  0.00    +0.000 A 
ATOM      4  C   UNL     1      46.551   6.609  12.865  0.00  0.00    +0.000 A 
ATOM      5  C   UNL     1      46.007   7.767  12.314  0.00  0.00    +0.000 A 
ATOM      6  C   UNL     1      44.826   7.690  11.591  0.00  0.00    +0.000 A 
ATOM      7  N   UNL     1      44.146   6.544  11.374  0.00  0.00    +0.000 NA
BRANCH   4   8
ATOM      8  N   UNL     1      47.761   6.588  13.525  0.00  0.00    +0.000 N 
ATOM      9  C   UNL     1      47.958   5.851  14.777  0.00  0.00    +0.000 C 
ATOM     10  C   UNL     1      48.898   6.679  15.667  0.00  0.00    +0.000 C 
ATOM     11  O   UNL     1      50.157   6.928  15.014  0.00  0.00    +0.000 OA
ATOM     12  C   UNL     1      49.953   7.654  13.786  0.00  0.00    +0.000 C 
ATOM     13  C   UNL     1      49.018   6.900  12.823  0.00  0.00    +0.000 C 
ENDBRANCH   4   8
ENDBRANCH   1   2
BRANCH   1  14
ATOM     14  O   UNL     1      43.601   4.036  10.244  0.00  0.00    +0.000 OA
BRANCH  14  18
ATOM     15  C   UNL     1      46.466   2.578   7.595  0.00  0.00    +0.000 A 
ATOM     16  C   UNL     1      45.812   1.669   8.435  0.00  0.00    +0.000 A 
ATOM     17  C   UNL     1      44.837   2.115   9.335  0.00  0.00    +0.000 A 
ATOM     18  C   UNL     1      44.515   3.472   9.404  0.00  0.00    +0.000 A 
ATOM     19  C   UNL     1      45.171   4.378   8.565  0.00  0.00    +0.000 A 
ATOM     20  C   UNL     1      46.148   3.938   7.669  0.00  0.00    +0.000 A 
BRANCH  15  22
ATOM     21  N   UNL     1      47.578   2.792   5.439  0.00  0.00    +0.000 N 
ATOM     22  C   UNL     1      47.520   2.148   6.645  0.00  0.00    +0.000 C 
ATOM     23  O   UNL     1      48.333   1.277   6.932  0.00  0.00    +0.000 OA
ATOM     24  H   UNL     1      48.362   2.559   4.844  0.00  0.00    +0.000 HD
ATOM     25  H   UNL     1      47.109   3.670   5.274  0.00  0.00    +0.000 HD
ENDBRANCH  15  22
ENDBRANCH  14  18
ENDBRANCH   1  14
TORSDOF 5
ENDMDL
MODEL 4
REMARK VINA RESULT:    -6.703      2.036      7.683
REMARK INTER + INTRA:          -9.389
REMARK INTER:                  -8.863
REMARK INTRA:                  -0.525
REMARK UNBOUND:                -0.727
REMARK  Name = 
REMARK  5 active torsions:
REMARK  status: ('A' for Active; 'I' for Inactive)
REMARK    1  A    between atoms: C_2  and  C_4
REMARK    2  A    between atoms: C_7  and  O_8
REMARK    3  A    between atoms: O_8  and  C_9
REMARK    4  A    between atoms: C_9  and  C_10
REMARK    5  A    between atoms: C_12  and  N_13
REMARK                            x       y       z     vdW  Elec       q    Type
REMARK                         _______ _______ _______ _____ _____    ______ ____
ROOT
ATOM      1  C   UNL     1      45.602   6.389  12.827  0.00  0.00    +0.000 C 
ENDROOT
BRANCH   1   2
ATOM      2  C   UNL     1      44.920   5.208  12.170  0.00  0.00    +0.000 A 
ATOM      3  C   UNL     1      45.346   4.747  10.925  0.00  0.00    +0.000 A 
ATOM      4  C   UNL     1      44.765   3.617  10.345  0.00  0.00    +0.000 A 
ATOM      5  C   UNL     1      43.756   2.990  11.070  0.00  0.00    +0.000 A 
ATOM      6  C   UNL     1      43.386   3.496  12.307  0.00  0.00    +0.000 A 
ATOM      7  N   UNL     1      43.949   4.583  12.877  0.00  0.00    +0.000 NA
BRANCH   4   8
ATOM      8  N   UNL     1      45.246   3.129   9.149  0.00  0.00    +0.000 N 
ATOM      9  C   UNL     1      45.118   1.718   8.770  0.00  0.00    +0.000 C 
ATOM     10  C   UNL     1      46.398   1.316   8.020  0.00  0.00    +0.000 C 
ATOM     11  O   UNL     1      46.611   2.142   6.861  0.00  0.00    +0.000 OA
ATOM     12  C   UNL     1      46.736   3.525   7.244  0.00  0.00    +0.000 C 
ATOM     13  C   UNL     1      45.495   4.024   8.005  0.00  0.00    +0.000 C 
ENDBRANCH   4   8
ENDBRANCH   1   2
BRANCH   1  14
ATOM     14  O   UNL     1      46.997   6.125  13.001  0.00  0.00    +0.000 OA
BRANCH  14  18
ATOM     15  C   UNL     1      48.363   4.896  16.740  0.00  0.00    +0.000 A 
ATOM     16  C   UNL     1      47.495   4.051  16.037  0.00  0.00    +0.000 A 
ATOM     17  C   UNL     1      47.017   4.422  14.775  0.00  0.00    +0.000 A 
ATOM     18  C   UNL     1      47.401   5.640  14.210  0.00  0.00    +0.000 A 
ATOM     19  C   UNL     1      48.267   6.482  14.914  0.00  0.00    +0.000 A 
ATOM     20  C   UNL     1      48.742   6.119  16.176  0.00  0.00    +0.000 A 
BRANCH  15  22
ATOM     21  N   UNL     1      47.964   4.075  18.996  0.00  0.00    +0.000 N 
ATOM     22  C   UNL     1      48.871   4.550  18.088  0.00  0.00    +0.000 C 
ATOM     23  O   UNL     1      50.058   4.649  18.378  0.00  0.00    +0.000 OA
ATOM     24  H   UNL     1      48.342   3.748  19.877  0.00  0.00    +0.000 HD
ATOM     25  H   UNL     1      47.054   3.738  18.723  0.00  0.00    +0.000 HD
ENDBRANCH  15  22
ENDBRANCH  14  18
ENDBRANCH   1  14
TORSDOF 5
ENDMDL
MODEL 5
REMARK VINA RESULT:    -6.640      3.444      8.245
REMARK INTER + INTRA:          -9.308
REMARK INTER:                  -8.765
REMARK INTRA:                  -0.542
REMARK UNBOUND:                -0.727
REMARK  Name = 
REMARK  5 active torsions:
REMARK  status: ('A' for Active; 'I' for Inactive)
REMARK    1  A    between atoms: C_2  and  C_4
REMARK    2  A    between atoms: C_7  and  O_8
REMARK    3  A    between atoms: O_8  and  C_9
REMARK    4  A    between atoms: C_9  and  C_10
REMARK    5  A    between atoms: C_12  and  N_13
REMARK                            x       y       z     vdW  Elec       q    Type
REMARK                         _______ _______ _______ _____ _____    ______ ____
ROOT
ATOM      1  C   UNL     1      47.623   4.145  16.589  0.00  0.00    +0.000 C 
ENDROOT
BRANCH   1   2
ATOM      2  C   UNL     1      47.470   4.829  15.248  0.00  0.00    +0.000 A 
ATOM      3  C   UNL     1      46.508   4.394  14.336  0.00  0.00    +0.000 A 
ATOM      4  C   UNL     1      46.318   5.064  13.125  0.00  0.00    +0.000 A 
ATOM      5  C   UNL     1      47.129   6.171  12.887  0.00  0.00    +0.000 A 
ATOM      6  C   UNL     1      48.060   6.554  13.840  0.00  0.00    +0.000 A 
ATOM      7  N   UNL     1      48.244   5.916  15.016  0.00  0.00    +0.000 NA
BRANCH   4   8
ATOM      8  N   UNL     1      45.314   4.669  12.267  0.00  0.00    +0.000 N 
ATOM      9  C   UNL     1      44.811   5.536  11.197  0.00  0.00    +0.000 C 
ATOM     10  C   UNL     1      43.296   5.311  11.083  0.00  0.00    +0.000 C 
ATOM     11  O   UNL     1      42.988   3.931  10.813  0.00  0.00    +0.000 OA
ATOM     12  C   UNL     1      43.485   3.087  11.870  0.00  0.00    +0.000 C 
ATOM     13  C   UNL     1      45.004   3.243  12.061  0.00  0.00    +0.000 C 
ENDBRANCH   4   8
ENDBRANCH   1   2
BRANCH   1  14
ATOM     14  O   UNL     1      48.716   4.715  17.316  0.00  0.00    +0.000 OA
BRANCH  14  18
ATOM     15  C   UNL     1      51.983   2.158  17.700  0.00  0.00    +0.000 A 
ATOM     16  C   UNL     1      52.179   3.528  17.918  0.00  0.00    +0.000 A 
ATOM     17  C   UNL     1      51.108   4.421  17.806  0.00  0.00    +0.000 A 
ATOM     18  C   UNL     1      49.836   3.952  17.472  0.00  0.00    +0.000 A 
ATOM     19  C   UNL     1      49.643   2.584  17.254  0.00  0.00    +0.000 A 
ATOM     20  C   UNL     1      50.710   1.689  17.359  0.00  0.00    +0.000 A 
BRANCH  15  22
ATOM     21  N   UNL     1      52.788  -0.087  18.188  0.00  0.00    +0.000 N 
ATOM     22  C   UNL     1      53.097   1.184  17.786  0.00  0.00    +0.000 C 
ATOM     23  O   UNL     1      54.244   1.484  17.478  0.00  0.00    +0.000 OA
ATOM     24  H   UNL     1      53.538  -0.765  18.145  0.00  0.00    +0.000 HD
ATOM     25  H   UNL     1      51.841  -0.435  18.195  0.00  0.00    +0.000 HD
ENDBRANCH  15  22
ENDBRANCH  14  18
ENDBRANCH   1  14
TORSDOF 5
ENDMDL
MODEL 6
REMARK VINA RESULT:    -6.558      3.159      7.060
REMARK INTER + INTRA:          -9.201
REMARK INTER:                  -8.567
REMARK INTRA:                  -0.634
REMARK UNBOUND:                -0.727
REMARK  Name = 
REMARK  5 active torsions:
REMARK  status: ('A' for Active; 'I' for Inactive)
REMARK    1  A    between atoms: C_2  and  C_4
REMARK    2  A    between atoms: C_7  and  O_8
REMARK    3  A    between atoms: O_8  and  C_9
REMARK    4  A    between atoms: C_9  and  C_10
REMARK    5  A    between atoms: C_12  and  N_13
REMARK                            x       y       z     vdW  Elec       q    Type
REMARK                         _______ _______ _______ _____ _____    ______ ____
ROOT
ATOM      1  C   UNL     1      45.632   5.760  13.259  0.00  0.00    +0.000 C 
ENDROOT
BRANCH   1   2
ATOM      2  C   UNL     1      44.942   4.671  12.466  0.00  0.00    +0.000 A 
ATOM      3  C   UNL     1      45.357   4.367  11.170  0.00  0.00    +0.000 A 
ATOM      4  C   UNL     1      44.768   3.319  10.459  0.00  0.00    +0.000 A 
ATOM      5  C   UNL     1      43.762   2.608  11.109  0.00  0.00    +0.000 A 
ATOM      6  C   UNL     1      43.403   2.959  12.401  0.00  0.00    +0.000 A 
ATOM      7  N   UNL     1      43.974   3.965  13.098  0.00  0.00    +0.000 NA
BRANCH   4   8
ATOM      8  N   UNL     1      45.238   2.982   9.208  0.00  0.00    +0.000 N 
ATOM      9  C   UNL     1      45.271   1.596   8.730  0.00  0.00    +0.000 C 
ATOM     10  C   UNL     1      46.547   1.418   7.892  0.00  0.00    +0.000 C 
ATOM     11  O   UNL     1      46.585   2.343   6.789  0.00  0.00    +0.000 OA
ATOM     12  C   UNL     1      46.554   3.701   7.269  0.00  0.00    +0.000 C 
ATOM     13  C   UNL     1      45.304   3.978   8.124  0.00  0.00    +0.000 C 
ENDBRANCH   4   8
ENDBRANCH   1   2
BRANCH   1  14
ATOM     14  O   UNL     1      45.352   7.042  12.690  0.00  0.00    +0.000 OA
BRANCH  14  18
ATOM     15  C   UNL     1      48.739   9.256  11.697  0.00  0.00    +0.000 A 
ATOM     16  C   UNL     1      47.579   9.945  12.073  0.00  0.00    +0.000 A 
ATOM     17  C   UNL     1      46.421   9.240  12.421  0.00  0.00    +0.000 A 
ATOM     18  C   UNL     1      46.414   7.845  12.391  0.00  0.00    +0.000 A 
ATOM     19  C   UNL     1      47.573   7.159  12.014  0.00  0.00    +0.000 A 
ATOM     20  C   UNL     1      48.730   7.858  11.661  0.00  0.00    +0.000 A 
BRANCH  15  22
ATOM     21  N   UNL     1      49.832  11.170  10.664  0.00  0.00    +0.000 N 
ATOM     22  C   UNL     1      49.977   9.966  11.298  0.00  0.00    +0.000 C 
ATOM     23  O   UNL     1      51.090   9.520  11.553  0.00  0.00    +0.000 OA
ATOM     24  H   UNL     1      50.684  11.689  10.489  0.00  0.00    +0.000 HD
ATOM     25  H   UNL     1      48.964  11.683  10.672  0.00  0.00    +0.000 HD
ENDBRANCH  15  22
ENDBRANCH  14  18
ENDBRANCH   1  14
TORSDOF 5
ENDMDL
MODEL 7
REMARK VINA RESULT:    -6.151      2.869      8.037
REMARK INTER + INTRA:          -8.676
REMARK INTER:                  -8.041
REMARK INTRA:                  -0.634
REMARK UNBOUND:                -0.727
REMARK  Name = 
REMARK  5 active torsions:
REMARK  status: ('A' for Active; 'I' for Inactive)
REMARK    1  A    between atoms: C_2  and  C_4
REMARK    2  A    between atoms: C_7  and  O_8
REMARK    3  A    between atoms: O_8  and  C_9
REMARK    4  A    between atoms: C_9  and  C_10
REMARK    5  A    between atoms: C_12  and  N_13
REMARK                            x       y       z     vdW  Elec       q    Type
REMARK                         _______ _______ _______ _____ _____    ______ ____
ROOT
ATOM      1  C   UNL     1      48.217   7.197  13.901  0.00  0.00    +0.000 C 
ENDROOT
BRANCH   1   2
ATOM      2  C   UNL     1      46.967   7.288  13.052  0.00  0.00    +0.000 A 
ATOM      3  C   UNL     1      46.263   6.136  12.703  0.00  0.00    +0.000 A 
ATOM      4  C   UNL     1      45.073   6.219  11.976  0.00  0.00    +0.000 A 
ATOM      5  C   UNL     1      44.639   7.496  11.629  0.00  0.00    +0.000 A 
ATOM      6  C   UNL     1      45.384   8.600  12.016  0.00  0.00    +0.000 A 
ATOM      7  N   UNL     1      46.530   8.527  12.725  0.00  0.00    +0.000 NA
BRANCH   4   8
ATOM      8  N   UNL     1      44.349   5.079  11.701  0.00  0.00    +0.000 N 
ATOM      9  C   UNL     1      43.417   4.491  12.668  0.00  0.00    +0.000 C 
ATOM     10  C   UNL     1      43.512   2.962  12.542  0.00  0.00    +0.000 C 
ATOM     11  O   UNL     1      43.210   2.525  11.204  0.00  0.00    +0.000 OA
ATOM     12  C   UNL     1      44.131   3.107  10.262  0.00  0.00    +0.000 C 
ATOM     13  C   UNL     1      44.108   4.645  10.314  0.00  0.00    +0.000 C 
ENDBRANCH   4   8
ENDBRANCH   1   2
BRANCH   1  14
ATOM     14  O   UNL     1      48.440   5.845  14.314  0.00  0.00    +0.000 OA
BRANCH  14  18
ATOM     15  C   UNL     1      48.080   5.200  18.413  0.00  0.00    +0.000 A 
ATOM     16  C   UNL     1      47.417   4.327  17.541  0.00  0.00    +0.000 A 
ATOM     17  C   UNL     1      47.517   4.504  16.156  0.00  0.00    +0.000 A 
ATOM     18  C   UNL     1      48.276   5.554  15.636  0.00  0.00    +0.000 A 
ATOM     19  C   UNL     1      48.935   6.425  16.510  0.00  0.00    +0.000 A 
ATOM     20  C   UNL     1      48.834   6.256  17.892  0.00  0.00    +0.000 A 
BRANCH  15  22
ATOM     21  N   UNL     1      48.575   3.967  20.454  0.00  0.00    +0.000 N 
ATOM     22  C   UNL     1      47.979   5.060  19.886  0.00  0.00    +0.000 C 
ATOM     23  O   UNL     1      47.418   5.901  20.579  0.00  0.00    +0.000 OA
ATOM     24  H   UNL     1      48.585   3.938  21.465  0.00  0.00    +0.000 HD
ATOM     25  H   UNL     1      49.254   3.407  19.961  0.00  0.00    +0.000 HD
ENDBRANCH  15  22
ENDBRANCH  14  18
ENDBRANCH   1  14
TORSDOF 5
ENDMDL
MODEL 8
REMARK VINA RESULT:    -5.970      2.967      4.706
REMARK INTER + INTRA:          -8.442
REMARK INTER:                  -7.836
REMARK INTRA:                  -0.606
REMARK UNBOUND:                -0.727
REMARK  Name = 
REMARK  5 active torsions:
REMARK  status: ('A' for Active; 'I' for Inactive)
REMARK    1  A    between atoms: C_2  and  C_4
REMARK    2  A    between atoms: C_7  and  O_8
REMARK    3  A    between atoms: O_8  and  C_9
REMARK    4  A    between atoms: C_9  and  C_10
REMARK    5  A    between atoms: C_12  and  N_13
REMARK                            x       y       z     vdW  Elec       q    Type
REMARK                         _______ _______ _______ _____ _____    ______ ____
ROOT
ATOM      1  C   UNL     1      47.970   7.754  12.753  0.00  0.00    +0.000 C 
ENDROOT
BRANCH   1   2
ATOM      2  C   UNL     1      48.875   7.499  13.939  0.00  0.00    +0.000 A 
ATOM      3  C   UNL     1      48.465   6.661  14.976  0.00  0.00    +0.000 A 
ATOM      4  C   UNL     1      49.322   6.369  16.040  0.00  0.00    +0.000 A 
ATOM      5  C   UNL     1      50.586   6.952  16.004  0.00  0.00    +0.000 A 
ATOM      6  C   UNL     1      50.932   7.770  14.939  0.00  0.00    +0.000 A 
ATOM      7  N   UNL     1      50.111   8.049  13.903  0.00  0.00    +0.000 NA
BRANCH   4   8
ATOM      8  N   UNL     1      48.931   5.481  17.019  0.00  0.00    +0.000 N 
ATOM      9  C   UNL     1      49.017   5.802  18.447  0.00  0.00    +0.000 C 
ATOM     10  C   UNL     1      49.425   4.522  19.193  0.00  0.00    +0.000 C 
ATOM     11  O   UNL     1      48.486   3.456  18.961  0.00  0.00    +0.000 OA
ATOM     12  C   UNL     1      48.409   3.147  17.556  0.00  0.00    +0.000 C 
ATOM     13  C   UNL     1      48.005   4.375  16.721  0.00  0.00    +0.000 C 
ENDBRANCH   4   8
ENDBRANCH   1   2
BRANCH   1  14
ATOM     14  O   UNL     1      46.612   7.452  13.090  0.00  0.00    +0.000 OA
BRANCH  14  18
ATOM     15  C   UNL     1      44.746   4.123  11.421  0.00  0.00    +0.000 A 
ATOM     16  C   UNL     1      45.237   5.112  10.560  0.00  0.00    +0.000 A 
ATOM     17  C   UNL     1      45.877   6.244  11.079  0.00  0.00    +0.000 A 
ATOM     18  C   UNL     1      46.026   6.395  12.458  0.00  0.00    +0.000 A 
ATOM     19  C   UNL     1      45.533   5.406  13.316  0.00  0.00    +0.000 A 
ATOM     20  C   UNL     1      44.889   4.277  12.803  0.00  0.00    +0.000 A 
BRANCH  15  22
ATOM     21  N   UNL     1      44.618   2.253   9.867  0.00  0.00    +0.000 N 
ATOM     22  C   UNL     1      44.041   2.922  10.912  0.00  0.00    +0.000 C 
ATOM     23  O   UNL     1      43.003   2.516  11.421  0.00  0.00    +0.000 OA
ATOM     24  H   UNL     1      44.181   1.381   9.597  0.00  0.00    +0.000 HD
ATOM     25  H   UNL     1      45.581   2.397   9.600  0.00  0.00    +0.000 HD
ENDBRANCH  15  22
ENDBRANCH  14  18
ENDBRANCH   1  14
TORSDOF 5
ENDMDL
MODEL 9
REMARK VINA RESULT:    -5.865      3.086      7.190
REMARK INTER + INTRA:          -8.306
REMARK INTER:                  -7.695
REMARK INTRA:                  -0.611
REMARK UNBOUND:                -0.727
REMARK  Name = 
REMARK  5 active torsions:
REMARK  status: ('A' for Active; 'I' for Inactive)
REMARK    1  A    between atoms: C_2  and  C_4
REMARK    2  A    between atoms: C_7  and  O_8
REMARK    3  A    between atoms: O_8  and  C_9
REMARK    4  A    between atoms: C_9  and  C_10
REMARK    5  A    between atoms: C_12  and  N_13
REMARK                            x       y       z     vdW  Elec       q    Type
REMARK                         _______ _______ _______ _____ _____    ______ ____
ROOT
ATOM      1  C   UNL     1      45.546   7.725  11.888  0.00  0.00    +0.000 C 
ENDROOT
BRANCH   1   2
ATOM      2  C   UNL     1      45.041   6.309  11.713  0.00  0.00    +0.000 A 
ATOM      3  C   UNL     1      45.324   5.594  10.549  0.00  0.00    +0.000 A 
ATOM      4  C   UNL     1      44.918   4.265  10.410  0.00  0.00    +0.000 A 
ATOM      5  C   UNL     1      44.228   3.706  11.483  0.00  0.00    +0.000 A 
ATOM      6  C   UNL     1      43.987   4.470  12.614  0.00  0.00    +0.000 A 
ATOM      7  N   UNL     1      44.384   5.753  12.758  0.00  0.00    +0.000 NA
BRANCH   4   8
ATOM      8  N   UNL     1      45.268   3.549   9.286  0.00  0.00    +0.000 N 
ATOM      9  C   UNL     1      44.862   2.154   9.087  0.00  0.00    +0.000 C 
ATOM     10  C   UNL     1      46.023   1.420   8.398  0.00  0.00    +0.000 C 
ATOM     11  O   UNL     1      46.366   2.039   7.144  0.00  0.00    +0.000 OA
ATOM     12  C   UNL     1      46.765   3.408   7.350  0.00  0.00    +0.000 C 
ATOM     13  C   UNL     1      45.661   4.229   8.039  0.00  0.00    +0.000 C 
ENDBRANCH   4   8
ENDBRANCH   1   2
BRANCH   1  14
ATOM     14  O   UNL     1      46.370   7.818  13.054  0.00  0.00    +0.000 OA
BRANCH  14  18
ATOM     15  C   UNL     1      50.492   8.340  12.758  0.00  0.00    +0.000 A 
ATOM     16  C   UNL     1      49.813   7.770  11.674  0.00  0.00    +0.000 A 
ATOM     17  C   UNL     1      48.427   7.583  11.729  0.00  0.00    +0.000 A 
ATOM     18  C   UNL     1      47.713   7.960  12.867  0.00  0.00    +0.000 A 
ATOM     19  C   UNL     1      48.394   8.528  13.949  0.00  0.00    +0.000 A 
ATOM     20  C   UNL     1      49.778   8.711  13.902  0.00  0.00    +0.000 A 
BRANCH  15  22
ATOM     21  N   UNL     1      52.688   7.860  13.693  0.00  0.00    +0.000 N 
ATOM     22  C   UNL     1      51.962   8.532  12.748  0.00  0.00    +0.000 C 
ATOM     23  O   UNL     1      52.517   9.234  11.910  0.00  0.00    +0.000 OA
ATOM     24  H   UNL     1      53.695   7.921  13.611  0.00  0.00    +0.000 HD
ATOM     25  H   UNL     1      52.307   7.088  14.218  0.00  0.00    +0.000 HD
ENDBRANCH  15  22
ENDBRANCH  14  18
ENDBRANCH   1  14
TORSDOF 5
ENDMDL
