MODEL 1
REMARK VINA RESULT:    -7.471      0.000      0.000
REMARK INTER + INTRA:         -11.181
REMARK INTER:                 -10.310
REMARK INTRA:                  -0.871
REMARK UNBOUND:                -0.871
REMARK  Name = 
REMARK  7 active torsions:
REMARK  status: ('A' for Active; 'I' for Inactive)
REMARK    1  A    between atoms: N_1  and  C_2
REMARK    2  A    between atoms: C_2  and  C_3
REMARK    3  A    between atoms: C_6  and  C_7
REMARK    4  A    between atoms: C_7  and  C_8
REMARK    5  A    between atoms: C_11  and  C_12
REMARK    6  A    between atoms: C_12  and  N_13
REMARK    7  A    between atoms: C_14  and  C_16
REMARK                            x       y       z     vdW  Elec       q    Type
REMARK                         _______ _______ _______ _____ _____    ______ ____
ROOT
ATOM      1  C   UNL     1      47.194   5.601  13.509  0.00  0.00    +0.000 A 
ATOM      2  C   UNL     1      46.888   4.238  13.591  0.00  0.00    +0.000 A 
ATOM      3  C   UNL     1      47.046   3.536  14.784  0.00  0.00    +0.000 A 
ATOM      4  C   UNL     1      47.599   4.146  15.917  0.00  0.00    +0.000 A 
ATOM      5  C   UNL     1      48.016   5.486  15.797  0.00  0.00    +0.000 A 
ATOM      6  C   UNL     1      47.796   6.212  14.617  0.00  0.00    +0.000 A 
ENDROOT
BRANCH   1   7
ATOM      7  C   UNL     1      46.849   6.369  12.252  0.00  0.00    +0.000 C 
BRANCH   7  11
ATOM      8  C   UNL     1      43.021   4.335  11.437  0.00  0.00    +0.000 C 
ATOM      9  C   UNL     1      42.988   5.530  12.398  0.00  0.00    +0.000 C 
ATOM     10  C   UNL     1      44.383   5.920  12.886  0.00  0.00    +0.000 C 
ATOM     11  C   UNL     1      45.388   6.193  11.746  0.00  0.00    +0.000 C 
ATOM     12  C   UNL     1      45.352   5.068  10.688  0.00  0.00    +0.000 C 
ATOM     13  C   UNL     1      43.932   4.700  10.254  0.00  0.00    +0.000 C 
BRANCH   8  14
ATOM     14  C   UNL     1      43.441   3.050  12.183  0.00  0.00    +0.000 C 
BRANCH  14  15
ATOM     15  N   UNL     1      42.979   1.840  11.514  0.00  0.00    +0.000 NA
ATOM     16  H   UNL     1      42.167   1.473  12.012  0.00  0.00    +0.000 HD
ATOM     17  H   UNL     1      43.691   1.116  11.578  0.00  0.00    +0.000 HD
ENDBRANCH  14  15
ENDBRANCH   8  14
ENDBRANCH   7  11
ENDBRANCH   1   7
BRANCH   4  18
ATOM     18  C   UNL     1      47.755   3.409  17.229  0.00  0.00    +0.000 C 
BRANCH  18  19
ATOM     19  N   UNL     1      49.135   3.177  17.572  0.00  0.00    +0.000 N 
ATOM     20  C   UNL     1      49.902   2.249  16.917  0.00  0.00    +0.000 C 
ATOM     21  O   UNL     1      49.485   1.562  15.988  0.00  0.00    +0.000 OA
ATOM     22  H   UNL     1      49.406   3.426  18.522  0.00  0.00    +0.000 HD
BRANCH  20  23
ATOM     23  C   UNL     1      51.304   2.163  17.371  0.00  0.00    +0.000 A 
ATOM     24  C   UNL     1      51.872   0.928  17.649  0.00  0.00    +0.000 A 
ATOM     25  S   UNL     1      53.508   1.018  18.133  0.00  0.00    +0.000 S 
ATOM     26  C   UNL     1      53.504   2.718  18.023  0.00  0.00    +0.000 A 
ATOM     27  N   UNL     1      54.611   3.445  18.342  0.00  0.00    +0.000 NA
ATOM     28  C   UNL     1      54.453   4.724  18.241  0.00  0.00    +0.000 A 
ATOM     29  N   UNL     1      53.300   5.341  17.840  0.00  0.00    +0.000 N 
ATOM     30  C   UNL     1      52.175   4.649  17.451  0.00  0.00    +0.000 A 
ATOM     31  O   UNL     1      51.193   5.223  17.016  0.00  0.00    +0.000 OA
ATOM     32  C   UNL     1      52.285   3.203  17.591  0.00  0.00    +0.000 A 
ATOM     33  H   UNL     1      53.252   6.346  17.754  0.00  0.00    +0.000 HD
ENDBRANCH  20  23
ENDBRANCH  18  19
ENDBRANCH   4  18
TORSDOF 7
ENDMDL
MODEL 2
REMARK VINA RESULT:    -7.222      3.986      8.635
REMARK INTER + INTRA:         -10.837
REMARK INTER:                  -9.613
REMARK INTRA:                  -1.225
REMARK UNBOUND:                -0.871
REMARK  Name = 
REMARK  7 active torsions:
REMARK  status: ('A' for Active; 'I' for Inactive)
REMARK    1  A    between atoms: N_1  and  C_2
REMARK    2  A    between atoms: C_2  and  C_3
REMARK    3  A    between atoms: C_6  and  C_7
REMARK    4  A    between atoms: C_7  and  C_8
REMARK    5  A    between atoms: C_11  and  C_12
REMARK    6  A    between atoms: C_12  and  N_13
REMARK    7  A    between atoms: C_14  and  C_16
REMARK                            x       y       z     vdW  Elec       q    Type
REMARK                         _______ _______ _______ _____ _____    ______ ____
ROOT
ATOM      1  C   UNL     1      49.853   7.305  16.116  0.00  0.00    +0.000 A 
ATOM      2  C   UNL     1      50.769   7.617  15.106  0.00  0.00    +0.000 A 
ATOM      3  C   UNL     1      50.348   7.847  13.798  0.00  0.00    +0.000 A 
ATOM      4  C   UNL     1      49.006   7.689  13.430  0.00  0.00    +0.000 A 
ATOM      5  C   UNL     1      48.105   7.260  14.423  0.00  0.00    +0.000 A 
ATOM      6  C   UNL     1      48.516   7.093  15.753  0.00  0.00    +0.000 A 
ENDROOT
BRANCH   1   7
ATOM      7  C   UNL     1      50.320   7.231  17.553  0.00  0.00    +0.000 C 
BRANCH   7  11
ATOM      8  C   UNL     1      48.956   3.093  18.240  0.00  0.00    +0.000 C 
ATOM      9  C   UNL     1      50.394   3.282  17.741  0.00  0.00    +0.000 C 
ATOM     10  C   UNL     1      50.638   4.690  17.198  0.00  0.00    +0.000 C 
ATOM     11  C   UNL     1      50.278   5.813  18.193  0.00  0.00    +0.000 C 
ATOM     12  C   UNL     1      48.884   5.582  18.816  0.00  0.00    +0.000 C 
ATOM     13  C   UNL     1      48.684   4.151  19.320  0.00  0.00    +0.000 C 
BRANCH   8  14
ATOM     14  C   UNL     1      47.963   3.128  17.058  0.00  0.00    +0.000 C 
BRANCH  14  15
ATOM     15  N   UNL     1      46.574   3.092  17.496  0.00  0.00    +0.000 NA
ATOM     16  H   UNL     1      45.975   2.908  16.690  0.00  0.00    +0.000 HD
ATOM     17  H   UNL     1      46.296   4.008  17.840  0.00  0.00    +0.000 HD
ENDBRANCH  14  15
ENDBRANCH   8  14
ENDBRANCH   7  11
ENDBRANCH   1   7
BRANCH   4  18
ATOM     18  C   UNL     1      48.524   7.960  12.022  0.00  0.00    +0.000 C 
BRANCH  18  19
ATOM     19  N   UNL     1      47.739   6.876  11.488  0.00  0.00    +0.000 N 
ATOM     20  C   UNL     1      46.371   6.929  11.427  0.00  0.00    +0.000 C 
ATOM     21  O   UNL     1      45.714   7.896  11.805  0.00  0.00    +0.000 OA
ATOM     22  H   UNL     1      48.174   5.955  11.514  0.00  0.00    +0.000 HD
BRANCH  20  23
ATOM     23  C   UNL     1      45.725   5.749  10.819  0.00  0.00    +0.000 A 
ATOM     24  C   UNL     1      45.845   5.514   9.456  0.00  0.00    +0.000 A 
ATOM     25  S   UNL     1      45.059   4.091   8.935  0.00  0.00    +0.000 S 
ATOM     26  C   UNL     1      44.496   3.758  10.508  0.00  0.00    +0.000 A 
ATOM     27  N   UNL     1      43.713   2.672  10.758  0.00  0.00    +0.000 NA
ATOM     28  C   UNL     1      43.336   2.563  11.990  0.00  0.00    +0.000 A 
ATOM     29  N   UNL     1      43.680   3.427  12.993  0.00  0.00    +0.000 N 
ATOM     30  C   UNL     1      44.518   4.503  12.802  0.00  0.00    +0.000 A 
ATOM     31  O   UNL     1      44.876   5.204  13.731  0.00  0.00    +0.000 OA
ATOM     32  C   UNL     1      44.933   4.699  11.420  0.00  0.00    +0.000 A 
ATOM     33  H   UNL     1      43.376   3.267  13.942  0.00  0.00    +0.000 HD
ENDBRANCH  20  23
ENDBRANCH  18  19
ENDBRANCH   4  18
TORSDOF 7
ENDMDL
MODEL 3
REMARK VINA RESULT:    -7.157      4.150      8.775
REMARK INTER + INTRA:         -10.748
REMARK INTER:                  -9.534
REMARK INTRA:                  -1.213
REMARK UNBOUND:                -0.871
REMARK  Name = 
REMARK  7 active torsions:
REMARK  status: ('A' for Active; 'I' for Inactive)
REMARK    1  A    between atoms: N_1  and  C_2
REMARK    2  A    between atoms: C_2  and  C_3
REMARK    3  A    between atoms: C_6  and  C_7
REMARK    4  A    between atoms: C_7  and  C_8
REMARK    5  A    between atoms: C_11  and  C_12
REMARK    6  A    between atoms: C_12  and  N_13
REMARK    7  A    between atoms: C_14  and  C_16
REMARK                            x       y       z     vdW  Elec       q    Type
REMARK                         _______ _______ _______ _____ _____    ______ ____
ROOT
ATOM      1  C   UNL     1      49.383   7.899  15.731  0.00  0.00    +0.000 A 
ATOM      2  C   UNL     1      48.403   8.866  15.483  0.00  0.00    +0.000 A 
ATOM      3  C   UNL     1      47.675   8.866  14.294  0.00  0.00    +0.000 A 
ATOM      4  C   UNL     1      47.959   7.952  13.271  0.00  0.00    +0.000 A 
ATOM      5  C   UNL     1      49.025   7.055  13.476  0.00  0.00    +0.000 A 
ATOM      6  C   UNL     1      49.713   7.012  14.697  0.00  0.00    +0.000 A 
ENDROOT
BRANCH   1   7
ATOM      7  C   UNL     1      50.030   7.824  17.096  0.00  0.00    +0.000 C 
BRANCH   7  11
ATOM      8  C   UNL     1      48.399   3.814  17.940  0.00  0.00    +0.000 C 
ATOM      9  C   UNL     1      49.922   3.978  18.007  0.00  0.00    +0.000 C 
ATOM     10  C   UNL     1      50.394   5.278  17.355  0.00  0.00    +0.000 C 
ATOM     11  C   UNL     1      49.706   6.541  17.916  0.00  0.00    +0.000 C 
ATOM     12  C   UNL     1      48.174   6.359  17.985  0.00  0.00    +0.000 C 
ATOM     13  C   UNL     1      47.758   5.032  18.623  0.00  0.00    +0.000 C 
BRANCH   8  14
ATOM     14  C   UNL     1      47.941   3.594  16.482  0.00  0.00    +0.000 C 
BRANCH  14  15
ATOM     15  N   UNL     1      48.615   2.467  15.849  0.00  0.00    +0.000 NA
ATOM     16  H   UNL     1      48.189   2.293  14.938  0.00  0.00    +0.000 HD
ATOM     17  H   UNL     1      48.459   1.621  16.392  0.00  0.00    +0.000 HD
ENDBRANCH  14  15
ENDBRANCH   8  14
ENDBRANCH   7  11
ENDBRANCH   1   7
BRANCH   4  18
ATOM     18  C   UNL     1      47.165   7.918  11.984  0.00  0.00    +0.000 C 
BRANCH  18  19
ATOM     19  N   UNL     1      46.537   6.642  11.755  0.00  0.00    +0.000 N 
ATOM     20  C   UNL     1      45.183   6.519  11.578  0.00  0.00    +0.000 C 
ATOM     21  O   UNL     1      44.410   7.473  11.586  0.00  0.00    +0.000 OA
ATOM     22  H   UNL     1      47.043   5.828  12.099  0.00  0.00    +0.000 HD
BRANCH  20  23
ATOM     23  C   UNL     1      44.708   5.145  11.319  0.00  0.00    +0.000 A 
ATOM     24  C   UNL     1      43.917   4.493  12.256  0.00  0.00    +0.000 A 
ATOM     25  S   UNL     1      43.438   2.926  11.775  0.00  0.00    +0.000 S 
ATOM     26  C   UNL     1      44.305   3.048  10.314  0.00  0.00    +0.000 A 
ATOM     27  N   UNL     1      44.341   2.012   9.430  0.00  0.00    +0.000 NA
ATOM     28  C   UNL     1      45.061   2.235   8.380  0.00  0.00    +0.000 A 
ATOM     29  N   UNL     1      45.734   3.399   8.126  0.00  0.00    +0.000 N 
ATOM     30  C   UNL     1      45.679   4.495   8.958  0.00  0.00    +0.000 A 
ATOM     31  O   UNL     1      46.217   5.546   8.662  0.00  0.00    +0.000 OA
ATOM     32  C   UNL     1      44.918   4.278  10.181  0.00  0.00    +0.000 A 
ATOM     33  H   UNL     1      46.256   3.520   7.270  0.00  0.00    +0.000 HD
ENDBRANCH  20  23
ENDBRANCH  18  19
ENDBRANCH   4  18
TORSDOF 7
ENDMDL
MODEL 4
REMARK VINA RESULT:    -7.040      1.433      2.409
REMARK INTER + INTRA:         -10.586
REMARK INTER:                  -9.868
REMARK INTRA:                  -0.718
REMARK UNBOUND:                -0.871
REMARK  Name = 
REMARK  7 active torsions:
REMARK  status: ('A' for Active; 'I' for Inactive)
REMARK    1  A    between atoms: N_1  and  C_2
REMARK    2  A    between atoms: C_2  and  C_3
REMARK    3  A    between atoms: C_6  and  C_7
REMARK    4  A    between atoms: C_7  and  C_8
REMARK    5  A    between atoms: C_11  and  C_12
REMARK    6  A    between atoms: C_12  and  N_13
REMARK    7  A    between atoms: C_14  and  C_16
REMARK                            x       y       z     vdW  Elec       q    Type
REMARK                         _______ _______ _______ _____ _____    ______ ____
ROOT
ATOM      1  C   UNL     1      47.218   5.835  13.462  0.00  0.00    +0.000 A 
ATOM      2  C   UNL     1      47.971   6.619  14.343  0.00  0.00    +0.000 A 
ATOM      3  C   UNL     1      48.404   6.113  15.567  0.00  0.00    +0.000 A 
ATOM      4  C   UNL     1      48.026   4.834  15.996  0.00  0.00    +0.000 A 
ATOM      5  C   UNL     1      47.171   4.092  15.160  0.00  0.00    +0.000 A 
ATOM      6  C   UNL     1      46.791   4.574  13.899  0.00  0.00    +0.000 A 
ENDROOT
BRANCH   1   7
ATOM      7  C   UNL     1      46.914   6.354  12.074  0.00  0.00    +0.000 C 
BRANCH   7  11
ATOM      8  C   UNL     1      43.043   4.338  11.438  0.00  0.00    +0.000 C 
ATOM      9  C   UNL     1      43.045   5.581  12.336  0.00  0.00    +0.000 C 
ATOM     10  C   UNL     1      44.455   5.974  12.777  0.00  0.00    +0.000 C 
ATOM     11  C   UNL     1      45.441   6.173  11.605  0.00  0.00    +0.000 C 
ATOM     12  C   UNL     1      45.368   4.997  10.608  0.00  0.00    +0.000 C 
ATOM     13  C   UNL     1      43.935   4.629  10.220  0.00  0.00    +0.000 C 
BRANCH   8  14
ATOM     14  C   UNL     1      43.459   3.087  12.241  0.00  0.00    +0.000 C 
BRANCH  14  15
ATOM     15  N   UNL     1      43.000   1.849  11.623  0.00  0.00    +0.000 NA
ATOM     16  H   UNL     1      43.424   1.058  12.107  0.00  0.00    +0.000 HD
ATOM     17  H   UNL     1      43.336   1.796  10.664  0.00  0.00    +0.000 HD
ENDBRANCH  14  15
ENDBRANCH   8  14
ENDBRANCH   7  11
ENDBRANCH   1   7
BRANCH   4  18
ATOM     18  C   UNL     1      48.506   4.256  17.310  0.00  0.00    +0.000 C 
BRANCH  18  19
ATOM     19  N   UNL     1      49.914   3.954  17.300  0.00  0.00    +0.000 N 
ATOM     20  C   UNL     1      50.717   4.195  18.385  0.00  0.00    +0.000 C 
ATOM     21  O   UNL     1      50.304   4.667  19.441  0.00  0.00    +0.000 OA
ATOM     22  H   UNL     1      50.357   3.922  16.384  0.00  0.00    +0.000 HD
BRANCH  20  23
ATOM     23  C   UNL     1      52.129   3.794  18.220  0.00  0.00    +0.000 A 
ATOM     24  C   UNL     1      53.145   4.711  18.453  0.00  0.00    +0.000 A 
ATOM     25  S   UNL     1      54.712   4.064  18.242  0.00  0.00    +0.000 S 
ATOM     26  C   UNL     1      54.085   2.545  17.793  0.00  0.00    +0.000 A 
ATOM     27  N   UNL     1      54.912   1.520  17.443  0.00  0.00    +0.000 NA
ATOM     28  C   UNL     1      54.297   0.437  17.097  0.00  0.00    +0.000 A 
ATOM     29  N   UNL     1      52.937   0.280  17.082  0.00  0.00    +0.000 N 
ATOM     30  C   UNL     1      52.064   1.265  17.484  0.00  0.00    +0.000 A 
ATOM     31  O   UNL     1      50.864   1.067  17.543  0.00  0.00    +0.000 OA
ATOM     32  C   UNL     1      52.705   2.524  17.839  0.00  0.00    +0.000 A 
ATOM     33  H   UNL     1      52.521  -0.604  16.829  0.00  0.00    +0.000 HD
ENDBRANCH  20  23
ENDBRANCH  18  19
ENDBRANCH   4  18
TORSDOF 7
ENDMDL
MODEL 5
REMARK VINA RESULT:    -6.798      3.860      8.325
REMARK INTER + INTRA:         -10.252
REMARK INTER:                  -8.330
REMARK INTRA:                  -1.922
REMARK UNBOUND:                -0.871
REMARK  Name = 
REMARK  7 active torsions:
REMARK  status: ('A' for Active; 'I' for Inactive)
REMARK    1  A    between atoms: N_1  and  C_2
REMARK    2  A    between atoms: C_2  and  C_3
REMARK    3  A    between atoms: C_6  and  C_7
REMARK    4  A    between atoms: C_7  and  C_8
REMARK    5  A    between atoms: C_11  and  C_12
REMARK    6  A    between atoms: C_12  and  N_13
REMARK    7  A    between atoms: C_14  and  C_16
REMARK                            x       y       z     vdW  Elec       q    Type
REMARK                         _______ _______ _______ _____ _____    ______ ____
ROOT
ATOM      1  C   UNL     1      50.685   7.133  17.305  0.00  0.00    +0.000 A 
ATOM      2  C   UNL     1      49.857   8.128  17.834  0.00  0.00    +0.000 A 
ATOM      3  C   UNL     1      48.992   8.854  17.017  0.00  0.00    +0.000 A 
ATOM      4  C   UNL     1      48.984   8.674  15.629  0.00  0.00    +0.000 A 
ATOM      5  C   UNL     1      49.902   7.755  15.086  0.00  0.00    +0.000 A 
ATOM      6  C   UNL     1      50.725   6.977  15.913  0.00  0.00    +0.000 A 
ENDROOT
BRANCH   1   7
ATOM      7  C   UNL     1      51.482   6.249  18.240  0.00  0.00    +0.000 C 
BRANCH   7  11
ATOM      8  C   UNL     1      48.641   2.891  17.916  0.00  0.00    +0.000 C 
ATOM      9  C   UNL     1      50.106   2.604  17.566  0.00  0.00    +0.000 C 
ATOM     10  C   UNL     1      50.913   3.885  17.360  0.00  0.00    +0.000 C 
ATOM     11  C   UNL     1      50.842   4.865  18.551  0.00  0.00    +0.000 C 
ATOM     12  C   UNL     1      49.385   5.074  19.016  0.00  0.00    +0.000 C 
ATOM     13  C   UNL     1      48.615   3.762  19.182  0.00  0.00    +0.000 C 
BRANCH   8  14
ATOM     14  C   UNL     1      47.905   3.510  16.709  0.00  0.00    +0.000 C 
BRANCH  14  15
ATOM     15  N   UNL     1      48.061   2.719  15.495  0.00  0.00    +0.000 NA
ATOM     16  H   UNL     1      48.575   3.266  14.804  0.00  0.00    +0.000 HD
ATOM     17  H   UNL     1      47.149   2.539  15.079  0.00  0.00    +0.000 HD
ENDBRANCH  14  15
ENDBRANCH   8  14
ENDBRANCH   7  11
ENDBRANCH   1   7
BRANCH   4  18
ATOM     18  C   UNL     1      48.035   9.433  14.727  0.00  0.00    +0.000 C 
BRANCH  18  19
ATOM     19  N   UNL     1      47.034   8.582  14.136  0.00  0.00    +0.000 N 
ATOM     20  C   UNL     1      47.020   8.297  12.796  0.00  0.00    +0.000 C 
ATOM     21  O   UNL     1      47.857   8.725  12.005  0.00  0.00    +0.000 OA
ATOM     22  H   UNL     1      46.152   8.515  14.641  0.00  0.00    +0.000 HD
BRANCH  20  23
ATOM     23  C   UNL     1      45.947   7.382  12.361  0.00  0.00    +0.000 A 
ATOM     24  C   UNL     1      44.853   7.873  11.661  0.00  0.00    +0.000 A 
ATOM     25  S   UNL     1      43.728   6.668  11.216  0.00  0.00    +0.000 S 
ATOM     26  C   UNL     1      44.644   5.451  11.978  0.00  0.00    +0.000 A 
ATOM     27  N   UNL     1      44.216   4.158  11.998  0.00  0.00    +0.000 NA
ATOM     28  C   UNL     1      44.997   3.350  12.637  0.00  0.00    +0.000 A 
ATOM     29  N   UNL     1      46.169   3.711  13.244  0.00  0.00    +0.000 N 
ATOM     30  C   UNL     1      46.674   4.992  13.199  0.00  0.00    +0.000 A 
ATOM     31  O   UNL     1      47.761   5.264  13.673  0.00  0.00    +0.000 OA
ATOM     32  C   UNL     1      45.807   5.952  12.531  0.00  0.00    +0.000 A 
ATOM     33  H   UNL     1      46.749   3.024  13.702  0.00  0.00    +0.000 HD
ENDBRANCH  20  23
ENDBRANCH  18  19
ENDBRANCH   4  18
TORSDOF 7
ENDMDL
MODEL 6
REMARK VINA RESULT:    -6.762      3.265      9.504
REMARK INTER + INTRA:         -10.202
REMARK INTER:                  -9.299
REMARK INTRA:                  -0.903
REMARK UNBOUND:                -0.871
REMARK  Name = 
REMARK  7 active torsions:
REMARK  status: ('A' for Active; 'I' for Inactive)
REMARK    1  A    between atoms: N_1  and  C_2
REMARK    2  A    between atoms: C_2  and  C_3
REMARK    3  A    between atoms: C_6  and  C_7
REMARK    4  A    between atoms: C_7  and  C_8
REMARK    5  A    between atoms: C_11  and  C_12
REMARK    6  A    between atoms: C_12  and  N_13
REMARK    7  A    between atoms: C_14  and  C_16
REMARK                            x       y       z     vdW  Elec       q    Type
REMARK                         _______ _______ _______ _____ _____    ______ ____
ROOT
ATOM      1  C   UNL     1      50.447   5.488  18.944  0.00  0.00    +0.000 A 
ATOM      2  C   UNL     1      49.623   4.498  19.489  0.00  0.00    +0.000 A 
ATOM      3  C   UNL     1      48.624   3.893  18.729  0.00  0.00    +0.000 A 
ATOM      4  C   UNL     1      48.353   4.316  17.422  0.00  0.00    +0.000 A 
ATOM      5  C   UNL     1      49.105   5.393  16.916  0.00  0.00    +0.000 A 
ATOM      6  C   UNL     1      50.154   5.957  17.657  0.00  0.00    +0.000 A 
ENDROOT
BRANCH   1   7
ATOM      7  C   UNL     1      51.629   5.998  19.740  0.00  0.00    +0.000 C 
BRANCH   7  11
ATOM      8  C   UNL     1      54.323   2.740  18.483  0.00  0.00    +0.000 C 
ATOM      9  C   UNL     1      54.441   4.073  17.735  0.00  0.00    +0.000 C 
ATOM     10  C   UNL     1      53.244   4.989  17.992  0.00  0.00    +0.000 C 
ATOM     11  C   UNL     1      52.971   5.252  19.488  0.00  0.00    +0.000 C 
ATOM     12  C   UNL     1      52.977   3.936  20.297  0.00  0.00    +0.000 C 
ATOM     13  C   UNL     1      54.181   3.046  19.983  0.00  0.00    +0.000 C 
BRANCH   8  14
ATOM     14  C   UNL     1      53.172   1.890  17.901  0.00  0.00    +0.000 C 
BRANCH  14  15
ATOM     15  N   UNL     1      53.226   0.502  18.342  0.00  0.00    +0.000 NA
ATOM     16  H   UNL     1      53.929   0.413  19.076  0.00  0.00    +0.000 HD
ATOM     17  H   UNL     1      53.547  -0.091  17.580  0.00  0.00    +0.000 HD
ENDBRANCH  14  15
ENDBRANCH   8  14
ENDBRANCH   7  11
ENDBRANCH   1   7
BRANCH   4  18
ATOM     18  C   UNL     1      47.290   3.656  16.570  0.00  0.00    +0.000 C 
BRANCH  18  19
ATOM     19  N   UNL     1      46.742   4.547  15.580  0.00  0.00    +0.000 N 
ATOM     20  C   UNL     1      46.716   4.226  14.248  0.00  0.00    +0.000 C 
ATOM     21  O   UNL     1      47.138   3.163  13.800  0.00  0.00    +0.000 OA
ATOM     22  H   UNL     1      46.730   5.535  15.827  0.00  0.00    +0.000 HD
BRANCH  20  23
ATOM     23  C   UNL     1      46.087   5.236  13.373  0.00  0.00    +0.000 A 
ATOM     24  C   UNL     1      46.773   6.398  13.046  0.00  0.00    +0.000 A 
ATOM     25  S   UNL     1      45.905   7.435  12.003  0.00  0.00    +0.000 S 
ATOM     26  C   UNL     1      44.564   6.384  11.983  0.00  0.00    +0.000 A 
ATOM     27  N   UNL     1      43.436   6.699  11.287  0.00  0.00    +0.000 NA
ATOM     28  C   UNL     1      42.490   5.823  11.387  0.00  0.00    +0.000 A 
ATOM     29  N   UNL     1      42.572   4.660  12.104  0.00  0.00    +0.000 N 
ATOM     30  C   UNL     1      43.711   4.270  12.772  0.00  0.00    +0.000 A 
ATOM     31  O   UNL     1      43.784   3.189  13.328  0.00  0.00    +0.000 OA
ATOM     32  C   UNL     1      44.792   5.245  12.730  0.00  0.00    +0.000 A 
ATOM     33  H   UNL     1      41.806   4.004  12.116  0.00  0.00    +0.000 HD
ENDBRANCH  20  23
ENDBRANCH  18  19
ENDBRANCH   4  18
TORSDOF 7
ENDMDL
MODEL 7
REMARK VINA RESULT:    -6.663      3.394      9.469
REMARK INTER + INTRA:         -10.067
REMARK INTER:                  -9.030
REMARK INTRA:                  -1.036
REMARK UNBOUND:                -0.871
REMARK  Name = 
REMARK  7 active torsions:
REMARK  status: ('A' for Active; 'I' for Inactive)
REMARK    1  A    between atoms: N_1  and  C_2
REMARK    2  A    between atoms: C_2  and  C_3
REMARK    3  A    between atoms: C_6  and  C_7
REMARK    4  A    between atoms: C_7  and  C_8
REMARK    5  A    between atoms: C_11  and  C_12
REMARK    6  A    between atoms: C_12  and  N_13
REMARK    7  A    between atoms: C_14  and  C_16
REMARK                            x       y       z     vdW  Elec       q    Type
REMARK                         _______ _______ _______ _____ _____    ______ ____
ROOT
ATOM      1  C   UNL     1      50.980   2.043  17.502  0.00  0.00    +0.000 A 
ATOM      2  C   UNL     1      51.675   3.249  17.646  0.00  0.00    +0.000 A 
ATOM      3  C   UNL     1      51.020   4.475  17.541  0.00  0.00    +0.000 A 
ATOM      4  C   UNL     1      49.663   4.544  17.200  0.00  0.00    +0.000 A 
ATOM      5  C   UNL     1      48.994   3.333  16.939  0.00  0.00    +0.000 A 
ATOM      6  C   UNL     1      49.636   2.098  17.110  0.00  0.00    +0.000 A 
ENDROOT
BRANCH   1   7
ATOM      7  C   UNL     1      51.684   0.736  17.793  0.00  0.00    +0.000 C 
BRANCH   7  11
ATOM      8  C   UNL     1      55.775  -0.759  17.098  0.00  0.00    +0.000 C 
ATOM      9  C   UNL     1      55.259   0.332  16.152  0.00  0.00    +0.000 C 
ATOM     10  C   UNL     1      53.744   0.511  16.246  0.00  0.00    +0.000 C 
ATOM     11  C   UNL     1      53.236   0.778  17.680  0.00  0.00    +0.000 C 
ATOM     12  C   UNL     1      53.843  -0.227  18.683  0.00  0.00    +0.000 C 
ATOM     13  C   UNL     1      55.356  -0.387  18.529  0.00  0.00    +0.000 C 
BRANCH   8  14
ATOM     14  C   UNL     1      55.286  -2.150  16.639  0.00  0.00    +0.000 C 
BRANCH  14  15
ATOM     15  N   UNL     1      55.428  -2.345  15.201  0.00  0.00    +0.000 NA
ATOM     16  H   UNL     1      55.150  -1.489  14.721  0.00  0.00    +0.000 HD
ATOM     17  H   UNL     1      54.779  -3.061  14.884  0.00  0.00    +0.000 HD
ENDBRANCH  14  15
ENDBRANCH   8  14
ENDBRANCH   7  11
ENDBRANCH   1   7
BRANCH   4  18
ATOM     18  C   UNL     1      48.927   5.862  17.105  0.00  0.00    +0.000 C 
BRANCH  18  19
ATOM     19  N   UNL     1      47.991   5.897  16.011  0.00  0.00    +0.000 N 
ATOM     20  C   UNL     1      48.352   6.318  14.758  0.00  0.00    +0.000 C 
ATOM     21  O   UNL     1      49.489   6.680  14.467  0.00  0.00    +0.000 OA
ATOM     22  H   UNL     1      47.008   5.969  16.267  0.00  0.00    +0.000 HD
BRANCH  20  23
ATOM     23  C   UNL     1      47.280   6.257  13.744  0.00  0.00    +0.000 A 
ATOM     24  C   UNL     1      46.822   7.422  13.144  0.00  0.00    +0.000 A 
ATOM     25  S   UNL     1      45.603   7.157  11.977  0.00  0.00    +0.000 S 
ATOM     26  C   UNL     1      45.617   5.477  12.262  0.00  0.00    +0.000 A 
ATOM     27  N   UNL     1      44.767   4.646  11.597  0.00  0.00    +0.000 NA
ATOM     28  C   UNL     1      44.869   3.402  11.936  0.00  0.00    +0.000 A 
ATOM     29  N   UNL     1      45.749   2.913  12.863  0.00  0.00    +0.000 N 
ATOM     30  C   UNL     1      46.668   3.705  13.516  0.00  0.00    +0.000 A 
ATOM     31  O   UNL     1      47.495   3.228  14.270  0.00  0.00    +0.000 OA
ATOM     32  C   UNL     1      46.562   5.123  13.204  0.00  0.00    +0.000 A 
ATOM     33  H   UNL     1      45.798   1.925  13.060  0.00  0.00    +0.000 HD
ENDBRANCH  20  23
ENDBRANCH  18  19
ENDBRANCH   4  18
TORSDOF 7
ENDMDL
MODEL 8
REMARK VINA RESULT:    -6.600      3.452      9.022
REMARK INTER + INTRA:          -9.979
REMARK INTER:                  -9.014
REMARK INTRA:                  -0.964
REMARK UNBOUND:                -0.871
REMARK  Name = 
REMARK  7 active torsions:
REMARK  status: ('A' for Active; 'I' for Inactive)
REMARK    1  A    between atoms: N_1  and  C_2
REMARK    2  A    between atoms: C_2  and  C_3
REMARK    3  A    between atoms: C_6  and  C_7
REMARK    4  A    between atoms: C_7  and  C_8
REMARK    5  A    between atoms: C_11  and  C_12
REMARK    6  A    between atoms: C_12  and  N_13
REMARK    7  A    between atoms: C_14  and  C_16
REMARK                            x       y       z     vdW  Elec       q    Type
REMARK                         _______ _______ _______ _____ _____    ______ ____
ROOT
ATOM      1  C   UNL     1      51.161   4.399  18.194  0.00  0.00    +0.000 A 
ATOM      2  C   UNL     1      50.178   5.392  18.123  0.00  0.00    +0.000 A 
ATOM      3  C   UNL     1      48.896   5.105  17.658  0.00  0.00    +0.000 A 
ATOM      4  C   UNL     1      48.572   3.835  17.164  0.00  0.00    +0.000 A 
ATOM      5  C   UNL     1      49.596   2.870  17.127  0.00  0.00    +0.000 A 
ATOM      6  C   UNL     1      50.867   3.139  17.656  0.00  0.00    +0.000 A 
ENDROOT
BRANCH   1   7
ATOM      7  C   UNL     1      52.483   4.703  18.862  0.00  0.00    +0.000 C 
BRANCH   7  11
ATOM      8  C   UNL     1      53.401   8.026  16.110  0.00  0.00    +0.000 C 
ATOM      9  C   UNL     1      53.308   8.360  17.604  0.00  0.00    +0.000 C 
ATOM     10  C   UNL     1      52.640   7.243  18.406  0.00  0.00    +0.000 C 
ATOM     11  C   UNL     1      53.302   5.860  18.220  0.00  0.00    +0.000 C 
ATOM     12  C   UNL     1      53.532   5.549  16.725  0.00  0.00    +0.000 C 
ATOM     13  C   UNL     1      54.178   6.708  15.964  0.00  0.00    +0.000 C 
BRANCH   8  14
ATOM     14  C   UNL     1      51.996   8.004  15.470  0.00  0.00    +0.000 C 
BRANCH  14  15
ATOM     15  N   UNL     1      52.047   7.928  14.016  0.00  0.00    +0.000 NA
ATOM     16  H   UNL     1      51.895   6.961  13.727  0.00  0.00    +0.000 HD
ATOM     17  H   UNL     1      52.980   8.168  13.689  0.00  0.00    +0.000 HD
ENDBRANCH  14  15
ENDBRANCH   8  14
ENDBRANCH   7  11
ENDBRANCH   1   7
BRANCH   4  18
ATOM     18  C   UNL     1      47.180   3.496  16.679  0.00  0.00    +0.000 C 
BRANCH  18  19
ATOM     19  N   UNL     1      46.688   4.436  15.705  0.00  0.00    +0.000 N 
ATOM     20  C   UNL     1      46.767   4.197  14.358  0.00  0.00    +0.000 C 
ATOM     21  O   UNL     1      47.243   3.170  13.880  0.00  0.00    +0.000 OA
ATOM     22  H   UNL     1      46.637   5.407  16.009  0.00  0.00    +0.000 HD
BRANCH  20  23
ATOM     23  C   UNL     1      46.184   5.247  13.500  0.00  0.00    +0.000 A 
ATOM     24  C   UNL     1      46.897   6.411  13.243  0.00  0.00    +0.000 A 
ATOM     25  S   UNL     1      46.080   7.499  12.209  0.00  0.00    +0.000 S 
ATOM     26  C   UNL     1      44.728   6.468  12.101  0.00  0.00    +0.000 A 
ATOM     27  N   UNL     1      43.630   6.825  11.377  0.00  0.00    +0.000 NA
ATOM     28  C   UNL     1      42.670   5.960  11.409  0.00  0.00    +0.000 A 
ATOM     29  N   UNL     1      42.711   4.770  12.083  0.00  0.00    +0.000 N 
ATOM     30  C   UNL     1      43.820   4.339  12.777  0.00  0.00    +0.000 A 
ATOM     31  O   UNL     1      43.858   3.237  13.294  0.00  0.00    +0.000 OA
ATOM     32  C   UNL     1      44.914   5.299  12.812  0.00  0.00    +0.000 A 
ATOM     33  H   UNL     1      41.936   4.124  12.043  0.00  0.00    +0.000 HD
ENDBRANCH  20  23
ENDBRANCH  18  19
ENDBRANCH   4  18
TORSDOF 7
ENDMDL
MODEL 9
REMARK VINA RESULT:    -6.525      4.885      9.080
REMARK INTER + INTRA:          -9.876
REMARK INTER:                  -8.589
REMARK INTRA:                  -1.287
REMARK UNBOUND:                -0.871
REMARK  Name = 
REMARK  7 active torsions:
REMARK  status: ('A' for Active; 'I' for Inactive)
REMARK    1  A    between atoms: N_1  and  C_2
REMARK    2  A    between atoms: C_2  and  C_3
REMARK    3  A    between atoms: C_6  and  C_7
REMARK    4  A    between atoms: C_7  and  C_8
REMARK    5  A    between atoms: C_11  and  C_12
REMARK    6  A    between atoms: C_12  and  N_13
REMARK    7  A    between atoms: C_14  and  C_16
REMARK                            x       y       z     vdW  Elec       q    Type
REMARK                         _______ _______ _______ _____ _____    ______ ____
ROOT
ATOM      1  C   UNL     1      48.352   6.684  19.715  0.00  0.00    +0.000 A 
ATOM      2  C   UNL     1      47.209   5.919  19.457  0.00  0.00    +0.000 A 
ATOM      3  C   UNL     1      47.117   5.126  18.314  0.00  0.00    +0.000 A 
ATOM      4  C   UNL     1      48.125   5.136  17.342  0.00  0.00    +0.000 A 
ATOM      5  C   UNL     1      49.220   5.996  17.548  0.00  0.00    +0.000 A 
ATOM      6  C   UNL     1      49.345   6.743  18.729  0.00  0.00    +0.000 A 
ENDROOT
BRANCH   1   7
ATOM      7  C   UNL     1      48.490   7.394  21.044  0.00  0.00    +0.000 C 
BRANCH   7  11
ATOM      8  C   UNL     1      48.269  11.516  19.490  0.00  0.00    +0.000 C 
ATOM      9  C   UNL     1      46.941  10.793  19.749  0.00  0.00    +0.000 C 
ATOM     10  C   UNL     1      47.127   9.287  19.929  0.00  0.00    +0.000 C 
ATOM     11  C   UNL     1      48.149   8.912  21.024  0.00  0.00    +0.000 C 
ATOM     12  C   UNL     1      49.454   9.722  20.871  0.00  0.00    +0.000 C 
ATOM     13  C   UNL     1      49.210  11.219  20.668  0.00  0.00    +0.000 C 
BRANCH   8  14
ATOM     14  C   UNL     1      48.840  11.124  18.110  0.00  0.00    +0.000 C 
BRANCH  14  15
ATOM     15  N   UNL     1      47.911  11.400  17.023  0.00  0.00    +0.000 NA
ATOM     16  H   UNL     1      47.250  12.118  17.323  0.00  0.00    +0.000 HD
ATOM     17  H   UNL     1      47.350  10.574  16.828  0.00  0.00    +0.000 HD
ENDBRANCH  14  15
ENDBRANCH   8  14
ENDBRANCH   7  11
ENDBRANCH   1   7
BRANCH   4  18
ATOM     18  C   UNL     1      48.056   4.264  16.108  0.00  0.00    +0.000 C 
BRANCH  18  19
ATOM     19  N   UNL     1      47.113   4.755  15.136  0.00  0.00    +0.000 N 
ATOM     20  C   UNL     1      47.490   5.577  14.106  0.00  0.00    +0.000 C 
ATOM     21  O   UNL     1      48.648   5.944  13.923  0.00  0.00    +0.000 OA
ATOM     22  H   UNL     1      46.141   4.794  15.438  0.00  0.00    +0.000 HD
BRANCH  20  23
ATOM     23  C   UNL     1      46.405   5.958  13.180  0.00  0.00    +0.000 A 
ATOM     24  C   UNL     1      46.189   7.295  12.873  0.00  0.00    +0.000 A 
ATOM     25  S   UNL     1      44.914   7.545  11.765  0.00  0.00    +0.000 S 
ATOM     26  C   UNL     1      44.580   5.877  11.686  0.00  0.00    +0.000 A 
ATOM     27  N   UNL     1      43.557   5.401  10.922  0.00  0.00    +0.000 NA
ATOM     28  C   UNL     1      43.402   4.119  10.982  0.00  0.00    +0.000 A 
ATOM     29  N   UNL     1      44.181   3.271  11.721  0.00  0.00    +0.000 N 
ATOM     30  C   UNL     1      45.262   3.696  12.460  0.00  0.00    +0.000 A 
ATOM     31  O   UNL     1      45.988   2.908  13.037  0.00  0.00    +0.000 OA
ATOM     32  C   UNL     1      45.451   5.140  12.464  0.00  0.00    +0.000 A 
ATOM     33  H   UNL     1      44.025   2.274  11.701  0.00  0.00    +0.000 HD
ENDBRANCH  20  23
ENDBRANCH  18  19
ENDBRANCH   4  18
TORSDOF 7
ENDMDL
