MODEL 1
REMARK VINA RESULT:    -8.559      0.000      0.000
REMARK INTER + INTRA:         -11.586
REMARK INTER:                 -11.061
REMARK INTRA:                  -0.525
REMARK UNBOUND:                -0.525
REMARK  Name = 
REMARK  5 active torsions:
REMARK  status: ('A' for Active; 'I' for Inactive)
REMARK    1  A    between atoms: C_2  and  C_4
REMARK    2  A    between atoms: C_7  and  N_8
REMARK    3  A    between atoms: N_8  and  C_9
REMARK    4  A    between atoms: C_9  and  C_10
REMARK    5  A    between atoms: C_14  and  C_15
REMARK                            x       y       z     vdW  Elec       q    Type
REMARK                         _______ _______ _______ _____ _____    ______ ____
ROOT
ATOM      1  N   UNL     1      43.827   4.808   9.893  0.00  0.00    +0.000 N 
ATOM      2  H   UNL     1      43.989   5.792   9.699  0.00  0.00    +0.000 HD
ENDROOT
BRANCH   1   6
ATOM      3  C   UNL     1      46.361   2.327   7.823  0.00  0.00    +0.000 A 
ATOM      4  C   UNL     1      46.369   3.693   7.596  0.00  0.00    +0.000 A 
ATOM      5  N   UNL     1      45.516   4.543   8.228  0.00  0.00    +0.000 NA
ATOM      6  C   UNL     1      44.652   3.996   9.109  0.00  0.00    +0.000 A 
ATOM      7  C   UNL     1      44.659   2.608   9.317  0.00  0.00    +0.000 A 
ATOM      8  N   UNL     1      45.490   1.738   8.685  0.00  0.00    +0.000 NA
BRANCH   3  10
ATOM      9  N   UNL     1      48.413   2.102   6.560  0.00  0.00    +0.000 N 
ATOM     10  C   UNL     1      47.350   1.457   7.129  0.00  0.00    +0.000 C 
ATOM     11  O   UNL     1      47.221   0.241   7.068  0.00  0.00    +0.000 OA
ATOM     12  H   UNL     1      49.109   1.568   6.060  0.00  0.00    +0.000 HD
ATOM     13  H   UNL     1      48.485   3.112   6.617  0.00  0.00    +0.000 HD
ENDBRANCH   3  10
ENDBRANCH   1   6
BRANCH   1  14
ATOM     14  C   UNL     1      43.813   4.525  11.321  0.00  0.00    +0.000 C 
BRANCH  14  15
ATOM     15  C   UNL     1      44.979   5.232  11.958  0.00  0.00    +0.000 A 
ATOM     16  C   UNL     1      45.487   6.391  11.381  0.00  0.00    +0.000 A 
ATOM     17  N   UNL     1      46.526   7.091  11.880  0.00  0.00    +0.000 NA
ATOM     18  C   UNL     1      47.105   6.596  13.000  0.00  0.00    +0.000 A 
ATOM     19  C   UNL     1      46.722   5.424  13.657  0.00  0.00    +0.000 A 
ATOM     20  C   UNL     1      45.617   4.750  13.108  0.00  0.00    +0.000 A 
BRANCH  19  21
ATOM     21  C   UNL     1      47.429   4.918  14.843  0.00  0.00    +0.000 A 
ATOM     22  C   UNL     1      48.274   5.702  15.632  0.00  0.00    +0.000 A 
ATOM     23  N   UNL     1      48.932   5.237  16.724  0.00  0.00    +0.000 NA
ATOM     24  C   UNL     1      48.720   3.936  17.009  0.00  0.00    +0.000 A 
ATOM     25  C   UNL     1      47.895   3.138  16.237  0.00  0.00    +0.000 A 
ATOM     26  N   UNL     1      47.243   3.604  15.145  0.00  0.00    +0.000 NA
ENDBRANCH  19  21
ENDBRANCH  14  15
ENDBRANCH   1  14
TORSDOF 5
ENDMDL
MODEL 2
REMARK VINA RESULT:    -8.217      1.745      3.338
REMARK INTER + INTRA:         -11.144
REMARK INTER:                 -10.584
REMARK INTRA:                  -0.560
REMARK UNBOUND:                -0.525
REMARK  Name = 
REMARK  5 active torsions:
REMARK  status: ('A' for Active; 'I' for Inactive)
REMARK    1  A    between atoms: C_2  and  C_4
REMARK    2  A    between atoms: C_7  and  N_8
REMARK    3  A    between atoms: N_8  and  C_9
REMARK    4  A    between atoms: C_9  and  C_10
REMARK    5  A    between atoms: C_14  and  C_15
REMARK                            x       y       z     vdW  Elec       q    Type
REMARK                         _______ _______ _______ _____ _____    ______ ____
ROOT
ATOM      1  N   UNL     1      43.727   4.885   9.715  0.00  0.00    +0.000 N 
ATOM      2  H   UNL     1      44.028   5.848   9.594  0.00  0.00    +0.000 HD
ENDROOT
BRANCH   1   6
ATOM      3  C   UNL     1      46.241   2.215   7.868  0.00  0.00    +0.000 A 
ATOM      4  C   UNL     1      46.303   3.565   7.569  0.00  0.00    +0.000 A 
ATOM      5  N   UNL     1      45.460   4.475   8.126  0.00  0.00    +0.000 NA
ATOM      6  C   UNL     1      44.549   4.005   9.004  0.00  0.00    +0.000 A 
ATOM      7  C   UNL     1      44.501   2.631   9.286  0.00  0.00    +0.000 A 
ATOM      8  N   UNL     1      45.323   1.701   8.729  0.00  0.00    +0.000 NA
BRANCH   3  10
ATOM      9  N   UNL     1      48.327   1.854   6.695  0.00  0.00    +0.000 N 
ATOM     10  C   UNL     1      47.221   1.276   7.256  0.00  0.00    +0.000 C 
ATOM     11  O   UNL     1      47.051   0.064   7.250  0.00  0.00    +0.000 OA
ATOM     12  H   UNL     1      49.021   1.272   6.249  0.00  0.00    +0.000 HD
ATOM     13  H   UNL     1      48.434   2.863   6.705  0.00  0.00    +0.000 HD
ENDBRANCH   3  10
ENDBRANCH   1   6
BRANCH   1  14
ATOM     14  C   UNL     1      43.487   4.555  11.112  0.00  0.00    +0.000 C 
BRANCH  14  15
ATOM     15  C   UNL     1      44.709   4.930  11.907  0.00  0.00    +0.000 A 
ATOM     16  C   UNL     1      45.134   4.115  12.952  0.00  0.00    +0.000 A 
ATOM     17  N   UNL     1      46.215   4.370  13.716  0.00  0.00    +0.000 NA
ATOM     18  C   UNL     1      46.895   5.509  13.441  0.00  0.00    +0.000 A 
ATOM     19  C   UNL     1      46.554   6.434  12.450  0.00  0.00    +0.000 A 
ATOM     20  C   UNL     1      45.434   6.104  11.666  0.00  0.00    +0.000 A 
BRANCH  19  21
ATOM     21  C   UNL     1      47.310   7.677  12.238  0.00  0.00    +0.000 A 
ATOM     22  C   UNL     1      46.757   8.951  12.382  0.00  0.00    +0.000 A 
ATOM     23  N   UNL     1      47.451  10.101  12.182  0.00  0.00    +0.000 NA
ATOM     24  C   UNL     1      48.740   9.936  11.822  0.00  0.00    +0.000 A 
ATOM     25  C   UNL     1      49.306   8.685  11.665  0.00  0.00    +0.000 A 
ATOM     26  N   UNL     1      48.610   7.539  11.860  0.00  0.00    +0.000 NA
ENDBRANCH  19  21
ENDBRANCH  14  15
ENDBRANCH   1  14
TORSDOF 5
ENDMDL
MODEL 3
REMARK VINA RESULT:    -7.765      3.011      7.093
REMARK INTER + INTRA:         -10.559
REMARK INTER:                  -9.969
REMARK INTRA:                  -0.590
REMARK UNBOUND:                -0.525
REMARK  Name = 
REMARK  5 active torsions:
REMARK  status: ('A' for Active; 'I' for Inactive)
REMARK    1  A    between atoms: C_2  and  C_4
REMARK    2  A    between atoms: C_7  and  N_8
REMARK    3  A    between atoms: N_8  and  C_9
REMARK    4  A    between atoms: C_9  and  C_10
REMARK    5  A    between atoms: C_14  and  C_15
REMARK                            x       y       z     vdW  Elec       q    Type
REMARK                         _______ _______ _______ _____ _____    ______ ____
ROOT
ATOM      1  N   UNL     1      43.957   6.220  12.643  0.00  0.00    +0.000 N 
ATOM      2  H   UNL     1      43.615   5.446  13.206  0.00  0.00    +0.000 HD
ENDROOT
BRANCH   1   6
ATOM      3  C   UNL     1      47.933   6.753  13.519  0.00  0.00    +0.000 A 
ATOM      4  C   UNL     1      47.148   7.821  13.122  0.00  0.00    +0.000 A 
ATOM      5  N   UNL     1      45.840   7.680  12.781  0.00  0.00    +0.000 NA
ATOM      6  C   UNL     1      45.322   6.435  12.855  0.00  0.00    +0.000 A 
ATOM      7  C   UNL     1      46.139   5.366  13.254  0.00  0.00    +0.000 A 
ATOM      8  N   UNL     1      47.453   5.482  13.584  0.00  0.00    +0.000 NA
BRANCH   3  10
ATOM      9  N   UNL     1      50.178   7.442  12.934  0.00  0.00    +0.000 N 
ATOM     10  C   UNL     1      49.348   6.983  13.920  0.00  0.00    +0.000 C 
ATOM     11  O   UNL     1      49.749   6.772  15.058  0.00  0.00    +0.000 OA
ATOM     12  H   UNL     1      51.154   7.601  13.139  0.00  0.00    +0.000 HD
ATOM     13  H   UNL     1      49.818   7.595  11.997  0.00  0.00    +0.000 HD
ENDBRANCH   3  10
ENDBRANCH   1   6
BRANCH   1  14
ATOM     14  C   UNL     1      43.529   6.119  11.255  0.00  0.00    +0.000 C 
BRANCH  14  15
ATOM     15  C   UNL     1      43.782   4.714  10.779  0.00  0.00    +0.000 A 
ATOM     16  C   UNL     1      43.204   3.640  11.448  0.00  0.00    +0.000 A 
ATOM     17  N   UNL     1      43.374   2.350  11.094  0.00  0.00    +0.000 NA
ATOM     18  C   UNL     1      44.182   2.116  10.032  0.00  0.00    +0.000 A 
ATOM     19  C   UNL     1      44.855   3.097   9.298  0.00  0.00    +0.000 A 
ATOM     20  C   UNL     1      44.620   4.425   9.694  0.00  0.00    +0.000 A 
BRANCH  19  21
ATOM     21  C   UNL     1      45.758   2.767   8.184  0.00  0.00    +0.000 A 
ATOM     22  C   UNL     1      46.377   1.524   8.034  0.00  0.00    +0.000 A 
ATOM     23  N   UNL     1      47.215   1.219   7.011  0.00  0.00    +0.000 NA
ATOM     24  C   UNL     1      47.423   2.214   6.125  0.00  0.00    +0.000 A 
ATOM     25  C   UNL     1      46.828   3.454   6.259  0.00  0.00    +0.000 A 
ATOM     26  N   UNL     1      45.996   3.759   7.284  0.00  0.00    +0.000 NA
ENDBRANCH  19  21
ENDBRANCH  14  15
ENDBRANCH   1  14
TORSDOF 5
ENDMDL
MODEL 4
REMARK VINA RESULT:    -7.635      1.672      2.251
REMARK INTER + INTRA:         -10.391
REMARK INTER:                  -9.889
REMARK INTRA:                  -0.502
REMARK UNBOUND:                -0.525
REMARK  Name = 
REMARK  5 active torsions:
REMARK  status: ('A' for Active; 'I' for Inactive)
REMARK    1  A    between atoms: C_2  and  C_4
REMARK    2  A    between atoms: C_7  and  N_8
REMARK    3  A    between atoms: N_8  and  C_9
REMARK    4  A    between atoms: C_9  and  C_10
REMARK    5  A    between atoms: C_14  and  C_15
REMARK                            x       y       z     vdW  Elec       q    Type
REMARK                         _______ _______ _______ _____ _____    ______ ____
ROOT
ATOM      1  N   UNL     1      44.536   5.268   9.747  0.00  0.00    +0.000 N 
ATOM      2  H   UNL     1      44.927   6.161   9.462  0.00  0.00    +0.000 HD
ENDROOT
BRANCH   1   6
ATOM      3  C   UNL     1      46.383   2.105   7.889  0.00  0.00    +0.000 A 
ATOM      4  C   UNL     1      46.473   3.383   7.365  0.00  0.00    +0.000 A 
ATOM      5  N   UNL     1      45.841   4.449   7.925  0.00  0.00    +0.000 NA
ATOM      6  C   UNL     1      45.116   4.211   9.038  0.00  0.00    +0.000 A 
ATOM      7  C   UNL     1      45.033   2.906   9.547  0.00  0.00    +0.000 A 
ATOM      8  N   UNL     1      45.642   1.823   8.995  0.00  0.00    +0.000 NA
BRANCH   3  10
ATOM      9  N   UNL     1      46.790  -0.269   7.665  0.00  0.00    +0.000 N 
ATOM     10  C   UNL     1      47.133   0.989   7.252  0.00  0.00    +0.000 C 
ATOM     11  O   UNL     1      48.004   1.181   6.414  0.00  0.00    +0.000 OA
ATOM     12  H   UNL     1      47.276  -1.068   7.283  0.00  0.00    +0.000 HD
ATOM     13  H   UNL     1      46.073  -0.395   8.371  0.00  0.00    +0.000 HD
ENDBRANCH   3  10
ENDBRANCH   1   6
BRANCH   1  14
ATOM     14  C   UNL     1      44.495   5.124  11.196  0.00  0.00    +0.000 C 
BRANCH  14  15
ATOM     15  C   UNL     1      45.183   6.312  11.812  0.00  0.00    +0.000 A 
ATOM     16  C   UNL     1      44.713   7.597  11.555  0.00  0.00    +0.000 A 
ATOM     17  N   UNL     1      45.265   8.718  12.063  0.00  0.00    +0.000 NA
ATOM     18  C   UNL     1      46.357   8.553  12.847  0.00  0.00    +0.000 A 
ATOM     19  C   UNL     1      46.955   7.327  13.151  0.00  0.00    +0.000 A 
ATOM     20  C   UNL     1      46.323   6.190  12.618  0.00  0.00    +0.000 A 
BRANCH  19  21
ATOM     21  C   UNL     1      48.171   7.225  13.972  0.00  0.00    +0.000 A 
ATOM     22  C   UNL     1      48.319   6.320  15.025  0.00  0.00    +0.000 A 
ATOM     23  N   UNL     1      49.438   6.228  15.787  0.00  0.00    +0.000 NA
ATOM     24  C   UNL     1      50.425   7.088  15.462  0.00  0.00    +0.000 A 
ATOM     25  C   UNL     1      50.297   7.999  14.430  0.00  0.00    +0.000 A 
ATOM     26  N   UNL     1      49.177   8.092  13.673  0.00  0.00    +0.000 NA
ENDBRANCH  19  21
ENDBRANCH  14  15
ENDBRANCH   1  14
TORSDOF 5
ENDMDL
MODEL 5
REMARK VINA RESULT:    -7.608      2.548      7.348
REMARK INTER + INTRA:         -10.357
REMARK INTER:                 -10.065
REMARK INTRA:                  -0.292
REMARK UNBOUND:                -0.525
REMARK  Name = 
REMARK  5 active torsions:
REMARK  status: ('A' for Active; 'I' for Inactive)
REMARK    1  A    between atoms: C_2  and  C_4
REMARK    2  A    between atoms: C_7  and  N_8
REMARK    3  A    between atoms: N_8  and  C_9
REMARK    4  A    between atoms: C_9  and  C_10
REMARK    5  A    between atoms: C_14  and  C_15
REMARK                            x       y       z     vdW  Elec       q    Type
REMARK                         _______ _______ _______ _____ _____    ______ ____
ROOT
ATOM      1  N   UNL     1      47.314   6.586  12.421  0.00  0.00    +0.000 N 
ATOM      2  H   UNL     1      48.051   7.281  12.348  0.00  0.00    +0.000 HD
ENDROOT
BRANCH   1   6
ATOM      3  C   UNL     1      47.446   4.374  15.878  0.00  0.00    +0.000 A 
ATOM      4  C   UNL     1      48.204   5.524  15.747  0.00  0.00    +0.000 A 
ATOM      5  N   UNL     1      48.222   6.261  14.604  0.00  0.00    +0.000 NA
ATOM      6  C   UNL     1      47.451   5.824  13.586  0.00  0.00    +0.000 A 
ATOM      7  C   UNL     1      46.696   4.651  13.740  0.00  0.00    +0.000 A 
ATOM      8  N   UNL     1      46.675   3.891  14.867  0.00  0.00    +0.000 NA
BRANCH   3  10
ATOM      9  N   UNL     1      48.525   3.837  17.976  0.00  0.00    +0.000 N 
ATOM     10  C   UNL     1      47.438   3.636  17.171  0.00  0.00    +0.000 C 
ATOM     11  O   UNL     1      46.519   2.895  17.496  0.00  0.00    +0.000 OA
ATOM     12  H   UNL     1      48.587   3.351  18.860  0.00  0.00    +0.000 HD
ATOM     13  H   UNL     1      49.277   4.448  17.674  0.00  0.00    +0.000 HD
ENDBRANCH   3  10
ENDBRANCH   1   6
BRANCH   1  14
ATOM     14  C   UNL     1      45.996   7.154  12.175  0.00  0.00    +0.000 C 
BRANCH  14  15
ATOM     15  C   UNL     1      45.215   6.191  11.322  0.00  0.00    +0.000 A 
ATOM     16  C   UNL     1      43.844   6.048  11.515  0.00  0.00    +0.000 A 
ATOM     17  N   UNL     1      43.064   5.212  10.800  0.00  0.00    +0.000 NA
ATOM     18  C   UNL     1      43.686   4.462   9.859  0.00  0.00    +0.000 A 
ATOM     19  C   UNL     1      45.057   4.477   9.590  0.00  0.00    +0.000 A 
ATOM     20  C   UNL     1      45.818   5.386  10.347  0.00  0.00    +0.000 A 
BRANCH  19  21
ATOM     21  C   UNL     1      45.674   3.598   8.585  0.00  0.00    +0.000 A 
ATOM     22  C   UNL     1      45.788   2.214   8.736  0.00  0.00    +0.000 A 
ATOM     23  N   UNL     1      46.361   1.401   7.813  0.00  0.00    +0.000 NA
ATOM     24  C   UNL     1      46.831   2.024   6.713  0.00  0.00    +0.000 A 
ATOM     25  C   UNL     1      46.736   3.393   6.547  0.00  0.00    +0.000 A 
ATOM     26  N   UNL     1      46.168   4.204   7.471  0.00  0.00    +0.000 NA
ENDBRANCH  19  21
ENDBRANCH  14  15
ENDBRANCH   1  14
TORSDOF 5
ENDMDL
MODEL 6
REMARK VINA RESULT:    -7.245      2.855      7.820
REMARK INTER + INTRA:          -9.888
REMARK INTER:                  -9.367
REMARK INTRA:                  -0.521
REMARK UNBOUND:                -0.525
REMARK  Name = 
REMARK  5 active torsions:
REMARK  status: ('A' for Active; 'I' for Inactive)
REMARK    1  A    between atoms: C_2  and  C_4
REMARK    2  A    between atoms: C_7  and  N_8
REMARK    3  A    between atoms: N_8  and  C_9
REMARK    4  A    between atoms: C_9  and  C_10
REMARK    5  A    between atoms: C_14  and  C_15
REMARK                            x       y       z     vdW  Elec       q    Type
REMARK                         _______ _______ _______ _____ _____    ______ ____
ROOT
ATOM      1  N   UNL     1      46.541   5.473  13.347  0.00  0.00    +0.000 N 
ATOM      2  H   UNL     1      46.945   6.354  13.044  0.00  0.00    +0.000 HD
ENDROOT
BRANCH   1   6
ATOM      3  C   UNL     1      48.431   4.252  16.782  0.00  0.00    +0.000 A 
ATOM      4  C   UNL     1      47.483   3.448  16.174  0.00  0.00    +0.000 A 
ATOM      5  N   UNL     1      46.804   3.833  15.061  0.00  0.00    +0.000 NA
ATOM      6  C   UNL     1      47.101   5.049  14.556  0.00  0.00    +0.000 A 
ATOM      7  C   UNL     1      48.061   5.850  15.194  0.00  0.00    +0.000 A 
ATOM      8  N   UNL     1      48.740   5.493  16.316  0.00  0.00    +0.000 NA
BRANCH   3  10
ATOM      9  N   UNL     1      48.396   3.293  19.003  0.00  0.00    +0.000 N 
ATOM     10  C   UNL     1      49.170   3.754  17.974  0.00  0.00    +0.000 C 
ATOM     11  O   UNL     1      50.393   3.758  18.035  0.00  0.00    +0.000 OA
ATOM     12  H   UNL     1      48.838   2.957  19.847  0.00  0.00    +0.000 HD
ATOM     13  H   UNL     1      47.384   3.314  18.928  0.00  0.00    +0.000 HD
ENDBRANCH   3  10
ENDBRANCH   1   6
BRANCH   1  14
ATOM     14  C   UNL     1      45.086   5.482  13.278  0.00  0.00    +0.000 C 
BRANCH  14  15
ATOM     15  C   UNL     1      44.650   4.432  12.292  0.00  0.00    +0.000 A 
ATOM     16  C   UNL     1      43.595   3.581  12.605  0.00  0.00    +0.000 A 
ATOM     17  N   UNL     1      43.135   2.614  11.786  0.00  0.00    +0.000 NA
ATOM     18  C   UNL     1      43.776   2.471  10.601  0.00  0.00    +0.000 A 
ATOM     19  C   UNL     1      44.872   3.229  10.179  0.00  0.00    +0.000 A 
ATOM     20  C   UNL     1      45.292   4.240  11.062  0.00  0.00    +0.000 A 
BRANCH  19  21
ATOM     21  C   UNL     1      45.552   2.986   8.898  0.00  0.00    +0.000 A 
ATOM     22  C   UNL     1      45.743   3.971   7.926  0.00  0.00    +0.000 A 
ATOM     23  N   UNL     1      46.366   3.749   6.741  0.00  0.00    +0.000 NA
ATOM     24  C   UNL     1      46.796   2.486   6.548  0.00  0.00    +0.000 A 
ATOM     25  C   UNL     1      46.610   1.493   7.492  0.00  0.00    +0.000 A 
ATOM     26  N   UNL     1      45.985   1.716   8.673  0.00  0.00    +0.000 NA
ENDBRANCH  19  21
ENDBRANCH  14  15
ENDBRANCH   1  14
TORSDOF 5
ENDMDL
MODEL 7
REMARK VINA RESULT:    -6.606      3.635      7.733
REMARK INTER + INTRA:          -9.061
REMARK INTER:                  -8.486
REMARK INTRA:                  -0.575
REMARK UNBOUND:                -0.525
REMARK  Name = 
REMARK  5 active torsions:
REMARK  status: ('A' for Active; 'I' for Inactive)
REMARK    1  A    between atoms: C_2  and  C_4
REMARK    2  A    between atoms: C_7  and  N_8
REMARK    3  A    between atoms: N_8  and  C_9
REMARK    4  A    between atoms: C_9  and  C_10
REMARK    5  A    between atoms: C_14  and  C_15
REMARK                            x       y       z     vdW  Elec       q    Type
REMARK                         _______ _______ _______ _____ _____    ______ ____
ROOT
ATOM      1  N   UNL     1      48.055   5.279  16.437  0.00  0.00    +0.000 N 
ATOM      2  H   UNL     1      47.258   4.876  15.953  0.00  0.00    +0.000 HD
ENDROOT
BRANCH   1   6
ATOM      3  C   UNL     1      50.921   2.504  17.412  0.00  0.00    +0.000 A 
ATOM      4  C   UNL     1      49.741   2.116  16.801  0.00  0.00    +0.000 A 
ATOM      5  N   UNL     1      48.749   2.997  16.502  0.00  0.00    +0.000 NA
ATOM      6  C   UNL     1      48.966   4.290  16.820  0.00  0.00    +0.000 A 
ATOM      7  C   UNL     1      50.168   4.659  17.445  0.00  0.00    +0.000 A 
ATOM      8  N   UNL     1      51.165   3.794  17.768  0.00  0.00    +0.000 NA
BRANCH   3  10
ATOM      9  N   UNL     1      51.551   0.273  18.104  0.00  0.00    +0.000 N 
ATOM     10  C   UNL     1      51.985   1.497  17.675  0.00  0.00    +0.000 C 
ATOM     11  O   UNL     1      53.174   1.745  17.520  0.00  0.00    +0.000 OA
ATOM     12  H   UNL     1      52.226  -0.448  18.316  0.00  0.00    +0.000 HD
ATOM     13  H   UNL     1      50.559   0.102  18.235  0.00  0.00    +0.000 HD
ENDBRANCH   3  10
ENDBRANCH   1   6
BRANCH   1  14
ATOM     14  C   UNL     1      48.608   6.424  15.727  0.00  0.00    +0.000 C 
BRANCH  14  15
ATOM     15  C   UNL     1      48.041   6.438  14.333  0.00  0.00    +0.000 A 
ATOM     16  C   UNL     1      48.531   7.340  13.393  0.00  0.00    +0.000 A 
ATOM     17  N   UNL     1      48.086   7.425  12.123  0.00  0.00    +0.000 NA
ATOM     18  C   UNL     1      47.082   6.584  11.778  0.00  0.00    +0.000 A 
ATOM     19  C   UNL     1      46.472   5.660  12.631  0.00  0.00    +0.000 A 
ATOM     20  C   UNL     1      46.994   5.596  13.935  0.00  0.00    +0.000 A 
BRANCH  19  21
ATOM     21  C   UNL     1      45.351   4.810  12.202  0.00  0.00    +0.000 A 
ATOM     22  C   UNL     1      44.829   4.817  10.907  0.00  0.00    +0.000 A 
ATOM     23  N   UNL     1      43.791   4.038  10.509  0.00  0.00    +0.000 NA
ATOM     24  C   UNL     1      43.276   3.238  11.465  0.00  0.00    +0.000 A 
ATOM     25  C   UNL     1      43.770   3.222  12.756  0.00  0.00    +0.000 A 
ATOM     26  N   UNL     1      44.803   4.004  13.152  0.00  0.00    +0.000 NA
ENDBRANCH  19  21
ENDBRANCH  14  15
ENDBRANCH   1  14
TORSDOF 5
ENDMDL
MODEL 8
REMARK VINA RESULT:    -6.222      4.113      8.282
REMARK INTER + INTRA:          -8.565
REMARK INTER:                  -8.075
REMARK INTRA:                  -0.490
REMARK UNBOUND:                -0.525
REMARK  Name = 
REMARK  5 active torsions:
REMARK  status: ('A' for Active; 'I' for Inactive)
REMARK    1  A    between atoms: C_2  and  C_4
REMARK    2  A    between atoms: C_7  and  N_8
REMARK    3  A    between atoms: N_8  and  C_9
REMARK    4  A    between atoms: C_9  and  C_10
REMARK    5  A    between atoms: C_14  and  C_15
REMARK                            x       y       z     vdW  Elec       q    Type
REMARK                         _______ _______ _______ _____ _____    ______ ____
ROOT
ATOM      1  N   UNL     1      49.436   4.463  17.523  0.00  0.00    +0.000 N 
ATOM      2  H   UNL     1      49.385   4.926  18.426  0.00  0.00    +0.000 HD
ENDROOT
BRANCH   1   6
ATOM      3  C   UNL     1      52.228   1.454  17.654  0.00  0.00    +0.000 A 
ATOM      4  C   UNL     1      52.558   2.742  18.042  0.00  0.00    +0.000 A 
ATOM      5  N   UNL     1      51.676   3.774  17.972  0.00  0.00    +0.000 NA
ATOM      6  C   UNL     1      50.440   3.490  17.511  0.00  0.00    +0.000 A 
ATOM      7  C   UNL     1      50.131   2.179  17.117  0.00  0.00    +0.000 A 
ATOM      8  N   UNL     1      51.001   1.135  17.163  0.00  0.00    +0.000 NA
BRANCH   3  10
ATOM      9  N   UNL     1      53.754  -0.117  16.626  0.00  0.00    +0.000 N 
ATOM     10  C   UNL     1      53.227   0.360  17.795  0.00  0.00    +0.000 C 
ATOM     11  O   UNL     1      53.557  -0.089  18.885  0.00  0.00    +0.000 OA
ATOM     12  H   UNL     1      54.424  -0.872  16.654  0.00  0.00    +0.000 HD
ATOM     13  H   UNL     1      53.451   0.267  15.737  0.00  0.00    +0.000 HD
ENDBRANCH   3  10
ENDBRANCH   1   6
BRANCH   1  14
ATOM     14  C   UNL     1      48.126   4.042  17.046  0.00  0.00    +0.000 C 
BRANCH  14  15
ATOM     15  C   UNL     1      47.827   4.776  15.767  0.00  0.00    +0.000 A 
ATOM     16  C   UNL     1      48.561   5.909  15.429  0.00  0.00    +0.000 A 
ATOM     17  N   UNL     1      48.364   6.629  14.306  0.00  0.00    +0.000 NA
ATOM     18  C   UNL     1      47.367   6.214  13.489  0.00  0.00    +0.000 A 
ATOM     19  C   UNL     1      46.529   5.121  13.728  0.00  0.00    +0.000 A 
ATOM     20  C   UNL     1      46.796   4.391  14.899  0.00  0.00    +0.000 A 
BRANCH  19  21
ATOM     21  C   UNL     1      45.431   4.756  12.820  0.00  0.00    +0.000 A 
ATOM     22  C   UNL     1      44.836   5.652  11.929  0.00  0.00    +0.000 A 
ATOM     23  N   UNL     1      43.819   5.319  11.093  0.00  0.00    +0.000 NA
ATOM     24  C   UNL     1      43.402   4.039  11.179  0.00  0.00    +0.000 A 
ATOM     25  C   UNL     1      43.971   3.138  12.060  0.00  0.00    +0.000 A 
ATOM     26  N   UNL     1      44.983   3.473  12.896  0.00  0.00    +0.000 NA
ENDBRANCH  19  21
ENDBRANCH  14  15
ENDBRANCH   1  14
TORSDOF 5
ENDMDL
