MODEL 1
REMARK VINA RESULT:    -8.108      0.000      0.000
REMARK INTER + INTRA:         -12.322
REMARK INTER:                 -11.426
REMARK INTRA:                  -0.895
REMARK UNBOUND:                -0.895
REMARK  Name = 
REMARK  8 active torsions:
REMARK  status: ('A' for Active; 'I' for Inactive)
REMARK    1  A    between atoms: C_1  and  C_2
REMARK    2  A    between atoms: C_2  and  C_3
REMARK    3  A    between atoms: C_2  and  C_14
REMARK    4  A    between atoms: C_3  and  N_4
REMARK    5  A    between atoms: N_4  and  C_5
REMARK    6  A    between atoms: C_8  and  C_9
REMARK    7  A    between atoms: C_18  and  O_19
REMARK    8  A    between atoms: O_19  and  C_20
REMARK                            x       y       z     vdW  Elec       q    Type
REMARK                         _______ _______ _______ _____ _____    ______ ____
ROOT
ATOM      1  C   UNL     1      44.381   5.738  10.802  0.00  0.00    +0.000 C 
ENDROOT
BRANCH   1   3
ATOM      2  C   UNL     1      43.072   5.145  12.981  0.00  0.00    +0.000 C 
ATOM      3  C   UNL     1      44.347   5.186  12.196  0.00  0.00    +0.000 C 
BRANCH   3   4
ATOM      4  C   UNL     1      45.582   5.373  12.984  0.00  0.00    +0.000 A 
ATOM      5  C   UNL     1      46.287   6.576  12.927  0.00  0.00    +0.000 A 
ATOM      6  C   UNL     1      47.439   6.747  13.701  0.00  0.00    +0.000 A 
ATOM      7  C   UNL     1      47.887   5.724  14.545  0.00  0.00    +0.000 A 
ATOM      8  C   UNL     1      47.168   4.538  14.639  0.00  0.00    +0.000 A 
ATOM      9  C   UNL     1      46.044   4.355  13.834  0.00  0.00    +0.000 A 
BRANCH   8  10
ATOM     10  O   UNL     1      47.485   3.471  15.422  0.00  0.00    +0.000 OA
BRANCH  10  11
ATOM     11  C   UNL     1      47.515   3.638  16.833  0.00  0.00    +0.000 C 
ATOM     12  F   UNL     1      46.752   4.653  17.287  0.00  0.00    +0.000 F 
ATOM     13  F   UNL     1      47.067   2.498  17.407  0.00  0.00    +0.000 F 
ATOM     14  F   UNL     1      48.790   3.836  17.230  0.00  0.00    +0.000 F 
ENDBRANCH  10  11
ENDBRANCH   8  10
ENDBRANCH   3   4
ENDBRANCH   1   3
BRANCH   1  15
ATOM     15  N   UNL     1      43.757   4.830   9.845  0.00  0.00    +0.000 N 
ATOM     16  H   UNL     1      43.226   5.323   9.131  0.00  0.00    +0.000 HD
BRANCH  15  17
ATOM     17  C   UNL     1      44.617   3.877   9.273  0.00  0.00    +0.000 A 
ATOM     18  C   UNL     1      44.550   2.508   9.503  0.00  0.00    +0.000 A 
ATOM     19  N   UNL     1      45.342   1.579   8.926  0.00  0.00    +0.000 NA
ATOM     20  C   UNL     1      46.232   2.058   8.030  0.00  0.00    +0.000 A 
ATOM     21  N   UNL     1      46.373   3.349   7.675  0.00  0.00    +0.000 NA
ATOM     22  C   UNL     1      45.543   4.217   8.295  0.00  0.00    +0.000 A 
BRANCH  20  23
ATOM     23  C   UNL     1      47.119   1.029   7.371  0.00  0.00    +0.000 C 
ATOM     24  N   UNL     1      46.816  -0.284   7.664  0.00  0.00    +0.000 N 
ATOM     25  O   UNL     1      48.050   1.301   6.620  0.00  0.00    +0.000 OA
ATOM     26  H   UNL     1      46.030  -0.499   8.266  0.00  0.00    +0.000 HD
ATOM     27  H   UNL     1      47.356  -1.021   7.233  0.00  0.00    +0.000 HD
ENDBRANCH  20  23
ENDBRANCH  15  17
ENDBRANCH   1  15
TORSDOF 7
ENDMDL
MODEL 2
REMARK VINA RESULT:    -7.900      5.040      7.562
REMARK INTER + INTRA:         -12.028
REMARK INTER:                 -11.111
REMARK INTRA:                  -0.917
REMARK UNBOUND:                -0.895
REMARK  Name = 
REMARK  8 active torsions:
REMARK  status: ('A' for Active; 'I' for Inactive)
REMARK    1  A    between atoms: C_1  and  C_2
REMARK    2  A    between atoms: C_2  and  C_3
REMARK    3  A    between atoms: C_2  and  C_14
REMARK    4  A    between atoms: C_3  and  N_4
REMARK    5  A    between atoms: N_4  and  C_5
REMARK    6  A    between atoms: C_8  and  C_9
REMARK    7  A    between atoms: C_18  and  O_19
REMARK    8  A    between atoms: O_19  and  C_20
REMARK                            x       y       z     vdW  Elec       q    Type
REMARK                         _______ _______ _______ _____ _____    ______ ____
ROOT
ATOM      1  C   UNL     1      46.721   6.335  11.605  0.00  0.00    +0.000 C 
ENDROOT
BRANCH   1   3
ATOM      2  C   UNL     1      44.164   6.828  11.443  0.00  0.00    +0.000 C 
ATOM      3  C   UNL     1      45.403   6.179  10.907  0.00  0.00    +0.000 C 
BRANCH   3   4
ATOM      4  C   UNL     1      45.205   4.897  10.201  0.00  0.00    +0.000 A 
ATOM      5  C   UNL     1      44.617   3.811  10.849  0.00  0.00    +0.000 A 
ATOM      6  C   UNL     1      44.411   2.613  10.158  0.00  0.00    +0.000 A 
ATOM      7  C   UNL     1      44.780   2.496   8.813  0.00  0.00    +0.000 A 
ATOM      8  C   UNL     1      45.328   3.586   8.147  0.00  0.00    +0.000 A 
ATOM      9  C   UNL     1      45.571   4.765   8.852  0.00  0.00    +0.000 A 
BRANCH   8  10
ATOM     10  O   UNL     1      45.721   3.613   6.844  0.00  0.00    +0.000 OA
BRANCH  10  11
ATOM     11  C   UNL     1      46.840   2.832   6.447  0.00  0.00    +0.000 C 
ATOM     12  F   UNL     1      46.632   1.500   6.498  0.00  0.00    +0.000 F 
ATOM     13  F   UNL     1      47.151   3.152   5.170  0.00  0.00    +0.000 F 
ATOM     14  F   UNL     1      47.897   3.141   7.228  0.00  0.00    +0.000 F 
ENDBRANCH  10  11
ENDBRANCH   8  10
ENDBRANCH   3   4
ENDBRANCH   1   3
BRANCH   1  15
ATOM     15  N   UNL     1      46.553   6.582  13.033  0.00  0.00    +0.000 N 
ATOM     16  H   UNL     1      45.589   6.795  13.279  0.00  0.00    +0.000 HD
BRANCH  15  17
ATOM     17  C   UNL     1      47.089   5.597  13.881  0.00  0.00    +0.000 A 
ATOM     18  C   UNL     1      47.803   5.854  15.045  0.00  0.00    +0.000 A 
ATOM     19  N   UNL     1      48.286   4.918  15.889  0.00  0.00    +0.000 NA
ATOM     20  C   UNL     1      47.994   3.641  15.559  0.00  0.00    +0.000 A 
ATOM     21  N   UNL     1      47.272   3.250  14.492  0.00  0.00    +0.000 NA
ATOM     22  C   UNL     1      46.824   4.246  13.697  0.00  0.00    +0.000 A 
BRANCH  20  23
ATOM     23  C   UNL     1      48.520   2.582  16.499  0.00  0.00    +0.000 C 
ATOM     24  N   UNL     1      48.049   2.657  17.792  0.00  0.00    +0.000 N 
ATOM     25  O   UNL     1      49.309   1.702  16.173  0.00  0.00    +0.000 OA
ATOM     26  H   UNL     1      47.379   3.374  18.046  0.00  0.00    +0.000 HD
ATOM     27  H   UNL     1      48.342   1.961  18.463  0.00  0.00    +0.000 HD
ENDBRANCH  20  23
ENDBRANCH  15  17
ENDBRANCH   1  15
TORSDOF 7
ENDMDL
MODEL 3
REMARK VINA RESULT:    -7.198      1.825      2.513
REMARK INTER + INTRA:         -11.038
REMARK INTER:                 -10.118
REMARK INTRA:                  -0.920
REMARK UNBOUND:                -0.895
REMARK  Name = 
REMARK  8 active torsions:
REMARK  status: ('A' for Active; 'I' for Inactive)
REMARK    1  A    between atoms: C_1  and  C_2
REMARK    2  A    between atoms: C_2  and  C_3
REMARK    3  A    between atoms: C_2  and  C_14
REMARK    4  A    between atoms: C_3  and  N_4
REMARK    5  A    between atoms: N_4  and  C_5
REMARK    6  A    between atoms: C_8  and  C_9
REMARK    7  A    between atoms: C_18  and  O_19
REMARK    8  A    between atoms: O_19  and  C_20
REMARK                            x       y       z     vdW  Elec       q    Type
REMARK                         _______ _______ _______ _____ _____    ______ ____
ROOT
ATOM      1  C   UNL     1      43.928   5.058  10.948  0.00  0.00    +0.000 C 
ENDROOT
BRANCH   1   3
ATOM      2  C   UNL     1      43.900   4.665  13.528  0.00  0.00    +0.000 C 
ATOM      3  C   UNL     1      44.652   4.863  12.247  0.00  0.00    +0.000 C 
BRANCH   3   4
ATOM      4  C   UNL     1      45.950   5.556  12.362  0.00  0.00    +0.000 A 
ATOM      5  C   UNL     1      46.384   6.425  11.360  0.00  0.00    +0.000 A 
ATOM      6  C   UNL     1      47.603   7.095  11.497  0.00  0.00    +0.000 A 
ATOM      7  C   UNL     1      48.390   6.913  12.640  0.00  0.00    +0.000 A 
ATOM      8  C   UNL     1      47.946   6.082  13.663  0.00  0.00    +0.000 A 
ATOM      9  C   UNL     1      46.751   5.382  13.502  0.00  0.00    +0.000 A 
BRANCH   8  10
ATOM     10  O   UNL     1      48.604   5.823  14.825  0.00  0.00    +0.000 OA
BRANCH  10  11
ATOM     11  C   UNL     1      48.975   6.910  15.663  0.00  0.00    +0.000 C 
ATOM     12  F   UNL     1      50.222   7.376  15.446  0.00  0.00    +0.000 F 
ATOM     13  F   UNL     1      48.111   7.928  15.447  0.00  0.00    +0.000 F 
ATOM     14  F   UNL     1      48.867   6.532  16.954  0.00  0.00    +0.000 F 
ENDBRANCH  10  11
ENDBRANCH   8  10
ENDBRANCH   3   4
ENDBRANCH   1   3
BRANCH   1  15
ATOM     15  N   UNL     1      43.680   3.790  10.270  0.00  0.00    +0.000 N 
ATOM     16  H   UNL     1      42.733   3.722   9.907  0.00  0.00    +0.000 HD
BRANCH  15  17
ATOM     17  C   UNL     1      44.627   3.436   9.294  0.00  0.00    +0.000 A 
ATOM     18  C   UNL     1      45.258   4.331   8.438  0.00  0.00    +0.000 A 
ATOM     19  N   UNL     1      46.201   4.009   7.527  0.00  0.00    +0.000 NA
ATOM     20  C   UNL     1      46.558   2.706   7.505  0.00  0.00    +0.000 A 
ATOM     21  N   UNL     1      46.068   1.743   8.307  0.00  0.00    +0.000 NA
ATOM     22  C   UNL     1      45.130   2.145   9.193  0.00  0.00    +0.000 A 
BRANCH  20  23
ATOM     23  C   UNL     1      47.618   2.333   6.496  0.00  0.00    +0.000 C 
ATOM     24  N   UNL     1      47.634   3.098   5.349  0.00  0.00    +0.000 N 
ATOM     25  O   UNL     1      48.427   1.424   6.650  0.00  0.00    +0.000 OA
ATOM     26  H   UNL     1      46.977   3.862   5.241  0.00  0.00    +0.000 HD
ATOM     27  H   UNL     1      48.337   2.916   4.647  0.00  0.00    +0.000 HD
ENDBRANCH  20  23
ENDBRANCH  15  17
ENDBRANCH   1  15
TORSDOF 7
ENDMDL
MODEL 4
REMARK VINA RESULT:    -7.078      3.258      3.809
REMARK INTER + INTRA:         -10.870
REMARK INTER:                 -10.020
REMARK INTRA:                  -0.850
REMARK UNBOUND:                -0.895
REMARK  Name = 
REMARK  8 active torsions:
REMARK  status: ('A' for Active; 'I' for Inactive)
REMARK    1  A    between atoms: C_1  and  C_2
REMARK    2  A    between atoms: C_2  and  C_3
REMARK    3  A    between atoms: C_2  and  C_14
REMARK    4  A    between atoms: C_3  and  N_4
REMARK    5  A    between atoms: N_4  and  C_5
REMARK    6  A    between atoms: C_8  and  C_9
REMARK    7  A    between atoms: C_18  and  O_19
REMARK    8  A    between atoms: O_19  and  C_20
REMARK                            x       y       z     vdW  Elec       q    Type
REMARK                         _______ _______ _______ _____ _____    ______ ____
ROOT
ATOM      1  C   UNL     1      43.980   5.116  11.054  0.00  0.00    +0.000 C 
ENDROOT
BRANCH   1   3
ATOM      2  C   UNL     1      45.409   3.985  12.923  0.00  0.00    +0.000 C 
ATOM      3  C   UNL     1      45.211   5.071  11.910  0.00  0.00    +0.000 C 
BRANCH   3   4
ATOM      4  C   UNL     1      45.798   6.383  12.250  0.00  0.00    +0.000 A 
ATOM      5  C   UNL     1      44.985   7.506  12.410  0.00  0.00    +0.000 A 
ATOM      6  C   UNL     1      45.553   8.735  12.759  0.00  0.00    +0.000 A 
ATOM      7  C   UNL     1      46.933   8.848  12.963  0.00  0.00    +0.000 A 
ATOM      8  C   UNL     1      47.746   7.726  12.846  0.00  0.00    +0.000 A 
ATOM      9  C   UNL     1      47.181   6.512  12.455  0.00  0.00    +0.000 A 
BRANCH   8  10
ATOM     10  O   UNL     1      49.094   7.693  13.024  0.00  0.00    +0.000 OA
BRANCH  10  11
ATOM     11  C   UNL     1      49.936   8.211  12.004  0.00  0.00    +0.000 C 
ATOM     12  F   UNL     1      49.954   9.558  11.931  0.00  0.00    +0.000 F 
ATOM     13  F   UNL     1      51.200   7.794  12.241  0.00  0.00    +0.000 F 
ATOM     14  F   UNL     1      49.546   7.713  10.811  0.00  0.00    +0.000 F 
ENDBRANCH  10  11
ENDBRANCH   8  10
ENDBRANCH   3   4
ENDBRANCH   1   3
BRANCH   1  15
ATOM     15  N   UNL     1      43.731   3.838  10.396  0.00  0.00    +0.000 N 
ATOM     16  H   UNL     1      42.791   3.774  10.014  0.00  0.00    +0.000 HD
BRANCH  15  17
ATOM     17  C   UNL     1      44.694   3.453   9.447  0.00  0.00    +0.000 A 
ATOM     18  C   UNL     1      45.145   2.153   9.255  0.00  0.00    +0.000 A 
ATOM     19  N   UNL     1      46.036   1.765   8.318  0.00  0.00    +0.000 NA
ATOM     20  C   UNL     1      46.470   2.745   7.496  0.00  0.00    +0.000 A 
ATOM     21  N   UNL     1      46.082   4.033   7.536  0.00  0.00    +0.000 NA
ATOM     22  C   UNL     1      45.187   4.342   8.500  0.00  0.00    +0.000 A 
BRANCH  20  23
ATOM     23  C   UNL     1      47.462   2.323   6.438  0.00  0.00    +0.000 C 
ATOM     24  N   UNL     1      47.408   3.040   5.262  0.00  0.00    +0.000 N 
ATOM     25  O   UNL     1      48.275   1.416   6.578  0.00  0.00    +0.000 OA
ATOM     26  H   UNL     1      46.749   3.804   5.164  0.00  0.00    +0.000 HD
ATOM     27  H   UNL     1      48.064   2.824   4.525  0.00  0.00    +0.000 HD
ENDBRANCH  20  23
ENDBRANCH  15  17
ENDBRANCH   1  15
TORSDOF 7
ENDMDL
MODEL 5
REMARK VINA RESULT:    -6.797      5.273      8.121
REMARK INTER + INTRA:         -10.474
REMARK INTER:                 -10.212
REMARK INTRA:                  -0.261
REMARK UNBOUND:                -0.895
REMARK  Name = 
REMARK  8 active torsions:
REMARK  status: ('A' for Active; 'I' for Inactive)
REMARK    1  A    between atoms: C_1  and  C_2
REMARK    2  A    between atoms: C_2  and  C_3
REMARK    3  A    between atoms: C_2  and  C_14
REMARK    4  A    between atoms: C_3  and  N_4
REMARK    5  A    between atoms: N_4  and  C_5
REMARK    6  A    between atoms: C_8  and  C_9
REMARK    7  A    between atoms: C_18  and  O_19
REMARK    8  A    between atoms: O_19  and  C_20
REMARK                            x       y       z     vdW  Elec       q    Type
REMARK                         _______ _______ _______ _____ _____    ______ ____
ROOT
ATOM      1  C   UNL     1      45.833   5.962  11.857  0.00  0.00    +0.000 C 
ENDROOT
BRANCH   1   3
ATOM      2  C   UNL     1      43.266   5.953  11.391  0.00  0.00    +0.000 C 
ATOM      3  C   UNL     1      44.669   5.653  10.963  0.00  0.00    +0.000 C 
BRANCH   3   4
ATOM      4  C   UNL     1      44.838   4.479  10.083  0.00  0.00    +0.000 A 
ATOM      5  C   UNL     1      44.303   3.241  10.439  0.00  0.00    +0.000 A 
ATOM      6  C   UNL     1      44.447   2.146   9.582  0.00  0.00    +0.000 A 
ATOM      7  C   UNL     1      45.114   2.283   8.359  0.00  0.00    +0.000 A 
ATOM      8  C   UNL     1      45.614   3.524   7.977  0.00  0.00    +0.000 A 
ATOM      9  C   UNL     1      45.506   4.602   8.854  0.00  0.00    +0.000 A 
BRANCH   8  10
ATOM     10  O   UNL     1      46.272   3.798   6.818  0.00  0.00    +0.000 OA
BRANCH  10  11
ATOM     11  C   UNL     1      47.122   2.807   6.258  0.00  0.00    +0.000 C 
ATOM     12  F   UNL     1      46.616   1.557   6.296  0.00  0.00    +0.000 F 
ATOM     13  F   UNL     1      47.348   3.121   4.962  0.00  0.00    +0.000 F 
ATOM     14  F   UNL     1      48.306   2.820   6.906  0.00  0.00    +0.000 F 
ENDBRANCH  10  11
ENDBRANCH   8  10
ENDBRANCH   3   4
ENDBRANCH   1   3
BRANCH   1  15
ATOM     15  N   UNL     1      46.118   4.863  12.775  0.00  0.00    +0.000 N 
ATOM     16  H   UNL     1      46.384   4.011  12.289  0.00  0.00    +0.000 HD
BRANCH  15  17
ATOM     17  C   UNL     1      47.021   5.164  13.810  0.00  0.00    +0.000 A 
ATOM     18  C   UNL     1      47.855   6.275  13.838  0.00  0.00    +0.000 A 
ATOM     19  N   UNL     1      48.694   6.597  14.845  0.00  0.00    +0.000 NA
ATOM     20  C   UNL     1      48.659   5.766  15.910  0.00  0.00    +0.000 A 
ATOM     21  N   UNL     1      47.868   4.686  16.039  0.00  0.00    +0.000 NA
ATOM     22  C   UNL     1      47.056   4.431  14.989  0.00  0.00    +0.000 A 
BRANCH  20  23
ATOM     23  C   UNL     1      49.587   6.119  17.049  0.00  0.00    +0.000 C 
ATOM     24  N   UNL     1      50.734   5.359  17.131  0.00  0.00    +0.000 N 
ATOM     25  O   UNL     1      49.372   7.013  17.861  0.00  0.00    +0.000 OA
ATOM     26  H   UNL     1      50.914   4.639  16.441  0.00  0.00    +0.000 HD
ATOM     27  H   UNL     1      51.408   5.564  17.854  0.00  0.00    +0.000 HD
ENDBRANCH  20  23
ENDBRANCH  15  17
ENDBRANCH   1  15
TORSDOF 7
ENDMDL
MODEL 6
REMARK VINA RESULT:    -6.465      5.170      7.651
REMARK INTER + INTRA:         -10.006
REMARK INTER:                  -9.914
REMARK INTRA:                  -0.092
REMARK UNBOUND:                -0.895
REMARK  Name = 
REMARK  8 active torsions:
REMARK  status: ('A' for Active; 'I' for Inactive)
REMARK    1  A    between atoms: C_1  and  C_2
REMARK    2  A    between atoms: C_2  and  C_3
REMARK    3  A    between atoms: C_2  and  C_14
REMARK    4  A    between atoms: C_3  and  N_4
REMARK    5  A    between atoms: N_4  and  C_5
REMARK    6  A    between atoms: C_8  and  C_9
REMARK    7  A    between atoms: C_18  and  O_19
REMARK    8  A    between atoms: O_19  and  C_20
REMARK                            x       y       z     vdW  Elec       q    Type
REMARK                         _______ _______ _______ _____ _____    ______ ____
ROOT
ATOM      1  C   UNL     1      44.645   6.674  11.232  0.00  0.00    +0.000 C 
ENDROOT
BRANCH   1   3
ATOM      2  C   UNL     1      42.741   5.087  12.047  0.00  0.00    +0.000 C 
ATOM      3  C   UNL     1      43.744   5.495  11.012  0.00  0.00    +0.000 C 
BRANCH   3   4
ATOM      4  C   UNL     1      44.315   4.402  10.201  0.00  0.00    +0.000 A 
ATOM      5  C   UNL     1      44.041   3.069  10.510  0.00  0.00    +0.000 A 
ATOM      6  C   UNL     1      44.566   2.046   9.715  0.00  0.00    +0.000 A 
ATOM      7  C   UNL     1      45.357   2.347   8.600  0.00  0.00    +0.000 A 
ATOM      8  C   UNL     1      45.602   3.673   8.261  0.00  0.00    +0.000 A 
ATOM      9  C   UNL     1      45.112   4.689   9.081  0.00  0.00    +0.000 A 
BRANCH   8  10
ATOM     10  O   UNL     1      46.343   4.104   7.204  0.00  0.00    +0.000 OA
BRANCH  10  11
ATOM     11  C   UNL     1      46.987   3.145   6.378  0.00  0.00    +0.000 C 
ATOM     12  F   UNL     1      47.167   3.543   5.102  0.00  0.00    +0.000 F 
ATOM     13  F   UNL     1      48.206   2.880   6.902  0.00  0.00    +0.000 F 
ATOM     14  F   UNL     1      46.270   2.001   6.382  0.00  0.00    +0.000 F 
ENDBRANCH  10  11
ENDBRANCH   8  10
ENDBRANCH   3   4
ENDBRANCH   1   3
BRANCH   1  15
ATOM     15  N   UNL     1      44.876   6.922  12.652  0.00  0.00    +0.000 N 
ATOM     16  H   UNL     1      44.427   6.230  13.245  0.00  0.00    +0.000 HD
BRANCH  15  17
ATOM     17  C   UNL     1      46.220   7.111  13.017  0.00  0.00    +0.000 A 
ATOM     18  C   UNL     1      47.199   6.125  12.983  0.00  0.00    +0.000 A 
ATOM     19  N   UNL     1      48.501   6.305  13.289  0.00  0.00    +0.000 NA
ATOM     20  C   UNL     1      48.846   7.571  13.612  0.00  0.00    +0.000 A 
ATOM     21  N   UNL     1      48.016   8.630  13.637  0.00  0.00    +0.000 NA
ATOM     22  C   UNL     1      46.730   8.369  13.317  0.00  0.00    +0.000 A 
BRANCH  20  23
ATOM     23  C   UNL     1      50.303   7.789  13.949  0.00  0.00    +0.000 C 
ATOM     24  N   UNL     1      50.741   7.161  15.095  0.00  0.00    +0.000 N 
ATOM     25  O   UNL     1      51.072   8.466  13.276  0.00  0.00    +0.000 OA
ATOM     26  H   UNL     1      50.104   6.585  15.632  0.00  0.00    +0.000 HD
ATOM     27  H   UNL     1      51.712   7.246  15.361  0.00  0.00    +0.000 HD
ENDBRANCH  20  23
ENDBRANCH  15  17
ENDBRANCH   1  15
TORSDOF 7
ENDMDL
MODEL 7
REMARK VINA RESULT:    -6.446      2.695      4.655
REMARK INTER + INTRA:          -9.979
REMARK INTER:                  -9.066
REMARK INTRA:                  -0.914
REMARK UNBOUND:                -0.895
REMARK  Name = 
REMARK  8 active torsions:
REMARK  status: ('A' for Active; 'I' for Inactive)
REMARK    1  A    between atoms: C_1  and  C_2
REMARK    2  A    between atoms: C_2  and  C_3
REMARK    3  A    between atoms: C_2  and  C_14
REMARK    4  A    between atoms: C_3  and  N_4
REMARK    5  A    between atoms: N_4  and  C_5
REMARK    6  A    between atoms: C_8  and  C_9
REMARK    7  A    between atoms: C_18  and  O_19
REMARK    8  A    between atoms: O_19  and  C_20
REMARK                            x       y       z     vdW  Elec       q    Type
REMARK                         _______ _______ _______ _____ _____    ______ ____
ROOT
ATOM      1  C   UNL     1      48.196   7.179  13.505  0.00  0.00    +0.000 C 
ENDROOT
BRANCH   1   3
ATOM      2  C   UNL     1      49.498   9.125  14.659  0.00  0.00    +0.000 C 
ATOM      3  C   UNL     1      48.838   7.781  14.720  0.00  0.00    +0.000 C 
BRANCH   3   4
ATOM      4  C   UNL     1      49.425   6.817  15.672  0.00  0.00    +0.000 A 
ATOM      5  C   UNL     1      50.786   6.857  15.976  0.00  0.00    +0.000 A 
ATOM      6  C   UNL     1      51.321   5.955  16.901  0.00  0.00    +0.000 A 
ATOM      7  C   UNL     1      50.500   5.017  17.536  0.00  0.00    +0.000 A 
ATOM      8  C   UNL     1      49.135   4.998  17.271  0.00  0.00    +0.000 A 
ATOM      9  C   UNL     1      48.613   5.870  16.316  0.00  0.00    +0.000 A 
BRANCH   8  10
ATOM     10  O   UNL     1      48.225   4.150  17.823  0.00  0.00    +0.000 OA
BRANCH  10  11
ATOM     11  C   UNL     1      47.868   2.969  17.117  0.00  0.00    +0.000 C 
ATOM     12  F   UNL     1      47.499   3.179  15.836  0.00  0.00    +0.000 F 
ATOM     13  F   UNL     1      48.937   2.139  17.107  0.00  0.00    +0.000 F 
ATOM     14  F   UNL     1      46.861   2.350  17.767  0.00  0.00    +0.000 F 
ENDBRANCH  10  11
ENDBRANCH   8  10
ENDBRANCH   3   4
ENDBRANCH   1   3
BRANCH   1  15
ATOM     15  N   UNL     1      46.740   7.278  13.557  0.00  0.00    +0.000 N 
ATOM     16  H   UNL     1      46.401   8.181  13.236  0.00  0.00    +0.000 HD
BRANCH  15  17
ATOM     17  C   UNL     1      46.045   6.223  12.941  0.00  0.00    +0.000 A 
ATOM     18  C   UNL     1      45.640   6.208  11.612  0.00  0.00    +0.000 A 
ATOM     19  N   UNL     1      45.011   5.184  10.998  0.00  0.00    +0.000 NA
ATOM     20  C   UNL     1      44.812   4.089  11.764  0.00  0.00    +0.000 A 
ATOM     21  N   UNL     1      45.195   3.947  13.046  0.00  0.00    +0.000 NA
ATOM     22  C   UNL     1      45.820   5.015  13.589  0.00  0.00    +0.000 A 
BRANCH  20  23
ATOM     23  C   UNL     1      44.116   2.931  11.088  0.00  0.00    +0.000 C 
ATOM     24  N   UNL     1      44.810   2.355  10.045  0.00  0.00    +0.000 N 
ATOM     25  O   UNL     1      43.015   2.504  11.415  0.00  0.00    +0.000 OA
ATOM     26  H   UNL     1      45.730   2.701   9.797  0.00  0.00    +0.000 HD
ATOM     27  H   UNL     1      44.409   1.559   9.569  0.00  0.00    +0.000 HD
ENDBRANCH  20  23
ENDBRANCH  15  17
ENDBRANCH   1  15
TORSDOF 7
ENDMDL
MODEL 8
REMARK VINA RESULT:    -5.952      3.724      5.520
REMARK INTER + INTRA:          -9.284
REMARK INTER:                  -8.087
REMARK INTRA:                  -1.196
REMARK UNBOUND:                -0.895
REMARK  Name = 
REMARK  8 active torsions:
REMARK  status: ('A' for Active; 'I' for Inactive)
REMARK    1  A    between atoms: C_1  and  C_2
REMARK    2  A    between atoms: C_2  and  C_3
REMARK    3  A    between atoms: C_2  and  C_14
REMARK    4  A    between atoms: C_3  and  N_4
REMARK    5  A    between atoms: N_4  and  C_5
REMARK    6  A    between atoms: C_8  and  C_9
REMARK    7  A    between atoms: C_18  and  O_19
REMARK    8  A    between atoms: O_19  and  C_20
REMARK                            x       y       z     vdW  Elec       q    Type
REMARK                         _______ _______ _______ _____ _____    ______ ____
ROOT
ATOM      1  C   UNL     1      48.358   8.704  14.761  0.00  0.00    +0.000 C 
ENDROOT
BRANCH   1   3
ATOM      2  C   UNL     1      50.649   7.499  15.097  0.00  0.00    +0.000 C 
ATOM      3  C   UNL     1      49.380   8.065  15.655  0.00  0.00    +0.000 C 
BRANCH   3   4
ATOM      4  C   UNL     1      48.842   7.385  16.850  0.00  0.00    +0.000 A 
ATOM      5  C   UNL     1      48.260   8.118  17.885  0.00  0.00    +0.000 A 
ATOM      6  C   UNL     1      47.730   7.457  18.997  0.00  0.00    +0.000 A 
ATOM      7  C   UNL     1      47.767   6.060  19.078  0.00  0.00    +0.000 A 
ATOM      8  C   UNL     1      48.307   5.319  18.033  0.00  0.00    +0.000 A 
ATOM      9  C   UNL     1      48.873   5.984  16.945  0.00  0.00    +0.000 A 
BRANCH   8  10
ATOM     10  O   UNL     1      48.398   3.963  17.978  0.00  0.00    +0.000 OA
BRANCH  10  11
ATOM     11  C   UNL     1      47.528   3.249  17.109  0.00  0.00    +0.000 C 
ATOM     12  F   UNL     1      46.700   4.033  16.388  0.00  0.00    +0.000 F 
ATOM     13  F   UNL     1      48.282   2.537  16.241  0.00  0.00    +0.000 F 
ATOM     14  F   UNL     1      46.789   2.383  17.834  0.00  0.00    +0.000 F 
ENDBRANCH  10  11
ENDBRANCH   8  10
ENDBRANCH   3   4
ENDBRANCH   1   3
BRANCH   1  15
ATOM     15  N   UNL     1      48.328   8.081  13.442  0.00  0.00    +0.000 N 
ATOM     16  H   UNL     1      49.241   7.736  13.155  0.00  0.00    +0.000 HD
BRANCH  15  17
ATOM     17  C   UNL     1      47.334   7.105  13.261  0.00  0.00    +0.000 A 
ATOM     18  C   UNL     1      47.511   5.742  13.468  0.00  0.00    +0.000 A 
ATOM     19  N   UNL     1      46.552   4.801  13.340  0.00  0.00    +0.000 NA
ATOM     20  C   UNL     1      45.326   5.269  13.021  0.00  0.00    +0.000 A 
ATOM     21  N   UNL     1      45.000   6.562  12.841  0.00  0.00    +0.000 NA
ATOM     22  C   UNL     1      46.014   7.443  12.988  0.00  0.00    +0.000 A 
BRANCH  20  23
ATOM     23  C   UNL     1      44.241   4.227  12.883  0.00  0.00    +0.000 C 
ATOM     24  N   UNL     1      44.685   2.940  12.664  0.00  0.00    +0.000 N 
ATOM     25  O   UNL     1      43.041   4.468  12.957  0.00  0.00    +0.000 OA
ATOM     26  H   UNL     1      45.679   2.747  12.628  0.00  0.00    +0.000 HD
ATOM     27  H   UNL     1      44.009   2.193  12.589  0.00  0.00    +0.000 HD
ENDBRANCH  20  23
ENDBRANCH  15  17
ENDBRANCH   1  15
TORSDOF 7
ENDMDL
MODEL 9
REMARK VINA RESULT:    -5.566      3.749      5.974
REMARK INTER + INTRA:          -8.739
REMARK INTER:                  -7.976
REMARK INTRA:                  -0.763
REMARK UNBOUND:                -0.895
REMARK  Name = 
REMARK  8 active torsions:
REMARK  status: ('A' for Active; 'I' for Inactive)
REMARK    1  A    between atoms: C_1  and  C_2
REMARK    2  A    between atoms: C_2  and  C_3
REMARK    3  A    between atoms: C_2  and  C_14
REMARK    4  A    between atoms: C_3  and  N_4
REMARK    5  A    between atoms: N_4  and  C_5
REMARK    6  A    between atoms: C_8  and  C_9
REMARK    7  A    between atoms: C_18  and  O_19
REMARK    8  A    between atoms: O_19  and  C_20
REMARK                            x       y       z     vdW  Elec       q    Type
REMARK                         _______ _______ _______ _____ _____    ______ ____
ROOT
ATOM      1  C   UNL     1      47.181   4.252  16.242  0.00  0.00    +0.000 C 
ENDROOT
BRANCH   1   3
ATOM      2  C   UNL     1      49.089   2.708  17.130  0.00  0.00    +0.000 C 
ATOM      3  C   UNL     1      48.449   4.058  17.019  0.00  0.00    +0.000 C 
BRANCH   3   4
ATOM      4  C   UNL     1      48.625   4.952  18.181  0.00  0.00    +0.000 A 
ATOM      5  C   UNL     1      48.754   4.429  19.468  0.00  0.00    +0.000 A 
ATOM      6  C   UNL     1      48.948   5.287  20.555  0.00  0.00    +0.000 A 
ATOM      7  C   UNL     1      49.027   6.671  20.362  0.00  0.00    +0.000 A 
ATOM      8  C   UNL     1      48.942   7.199  19.078  0.00  0.00    +0.000 A 
ATOM      9  C   UNL     1      48.705   6.342  18.003  0.00  0.00    +0.000 A 
BRANCH   8  10
ATOM     10  O   UNL     1      49.012   8.517  18.749  0.00  0.00    +0.000 OA
BRANCH  10  11
ATOM     11  C   UNL     1      47.807   9.233  18.515  0.00  0.00    +0.000 C 
ATOM     12  F   UNL     1      47.811  10.495  18.991  0.00  0.00    +0.000 F 
ATOM     13  F   UNL     1      47.601   9.296  17.180  0.00  0.00    +0.000 F 
ATOM     14  F   UNL     1      46.776   8.559  19.068  0.00  0.00    +0.000 F 
ENDBRANCH  10  11
ENDBRANCH   8  10
ENDBRANCH   3   4
ENDBRANCH   1   3
BRANCH   1  15
ATOM     15  N   UNL     1      47.393   5.075  15.056  0.00  0.00    +0.000 N 
ATOM     16  H   UNL     1      48.368   5.096  14.767  0.00  0.00    +0.000 HD
BRANCH  15  17
ATOM     17  C   UNL     1      46.545   4.793  13.970  0.00  0.00    +0.000 A 
ATOM     18  C   UNL     1      45.958   5.751  13.152  0.00  0.00    +0.000 A 
ATOM     19  N   UNL     1      45.178   5.492  12.082  0.00  0.00    +0.000 NA
ATOM     20  C   UNL     1      45.013   4.182  11.793  0.00  0.00    +0.000 A 
ATOM     21  N   UNL     1      45.561   3.155  12.467  0.00  0.00    +0.000 NA
ATOM     22  C   UNL     1      46.330   3.495  13.525  0.00  0.00    +0.000 A 
BRANCH  20  23
ATOM     23  C   UNL     1      44.149   3.878  10.592  0.00  0.00    +0.000 C 
ATOM     24  N   UNL     1      43.783   4.972   9.838  0.00  0.00    +0.000 N 
ATOM     25  O   UNL     1      43.781   2.752  10.276  0.00  0.00    +0.000 OA
ATOM     26  H   UNL     1      44.112   5.896  10.094  0.00  0.00    +0.000 HD
ATOM     27  H   UNL     1      43.228   4.832   9.006  0.00  0.00    +0.000 HD
ENDBRANCH  20  23
ENDBRANCH  15  17
ENDBRANCH   1  15
TORSDOF 7
ENDMDL
