MODEL 1
REMARK VINA RESULT:    -8.882      0.000      0.000
REMARK INTER + INTRA:         -12.937
REMARK INTER:                 -11.738
REMARK INTRA:                  -1.199
REMARK UNBOUND:                -1.199
REMARK  Name = 
REMARK  6 active torsions:
REMARK  status: ('A' for Active; 'I' for Inactive)
REMARK    1  A    between atoms: C_2  and  C_4
REMARK    2  A    between atoms: N_8  and  C_9
REMARK    3  A    between atoms: C_9  and  C_10
REMARK    4  A    between atoms: C_14  and  C_15
REMARK    5  A    between atoms: C_19  and  C_20
REMARK    6  A    between atoms: C_20  and  O_21
REMARK                            x       y       z     vdW  Elec       q    Type
REMARK                         _______ _______ _______ _____ _____    ______ ____
ROOT
ATOM      1  C   UNL     1      43.874   4.930  11.385  0.00  0.00    +0.000 C 
ATOM      2  C   UNL     1      42.509   5.164  12.035  0.00  0.00    +0.000 C 
ATOM      3  C   UNL     1      43.029   6.149  11.046  0.00  0.00    +0.000 C 
ENDROOT
BRANCH   1   8
ATOM      4  C   UNL     1      46.559   2.747   7.485  0.00  0.00    +0.000 A 
ATOM      5  C   UNL     1      46.229   4.085   7.680  0.00  0.00    +0.000 A 
ATOM      6  C   UNL     1      45.381   4.436   8.728  0.00  0.00    +0.000 A 
ATOM      7  C   UNL     1      44.871   3.451   9.564  0.00  0.00    +0.000 A 
ATOM      8  N   UNL     1      43.945   3.706  10.573  0.00  0.00    +0.000 N 
ATOM      9  N   UNL     1      45.182   2.145   9.381  0.00  0.00    +0.000 NA
ATOM     10  C   UNL     1      46.006   1.820   8.353  0.00  0.00    +0.000 A 
ATOM     11  H   UNL     1      43.799   2.825  11.059  0.00  0.00    +0.000 HD
BRANCH   4  13
ATOM     12  N   UNL     1      47.246   2.925   5.165  0.00  0.00    +0.000 N 
ATOM     13  C   UNL     1      47.416   2.298   6.371  0.00  0.00    +0.000 C 
ATOM     14  O   UNL     1      48.249   1.413   6.514  0.00  0.00    +0.000 OA
ATOM     15  H   UNL     1      47.863   2.651   4.413  0.00  0.00    +0.000 HD
ATOM     16  H   UNL     1      46.746   3.797   5.068  0.00  0.00    +0.000 HD
ENDBRANCH   4  13
ENDBRANCH   1   8
BRANCH   1  17
ATOM     17  C   UNL     1      45.121   5.215  12.218  0.00  0.00    +0.000 A 
ATOM     18  C   UNL     1      45.542   4.330  13.224  0.00  0.00    +0.000 A 
ATOM     19  C   UNL     1      46.755   4.513  13.881  0.00  0.00    +0.000 A 
ATOM     20  C   UNL     1      47.575   5.591  13.548  0.00  0.00    +0.000 A 
ATOM     21  C   UNL     1      47.192   6.522  12.568  0.00  0.00    +0.000 A 
ATOM     22  C   UNL     1      45.944   6.322  11.945  0.00  0.00    +0.000 A 
BRANCH  21  23
ATOM     23  C   UNL     1      48.087   7.617  12.140  0.00  0.00    +0.000 A 
ATOM     24  C   UNL     1      47.671   8.946  12.119  0.00  0.00    +0.000 A 
ATOM     25  N   UNL     1      48.447  10.007  11.784  0.00  0.00    +0.000 NA
ATOM     26  C   UNL     1      49.727   9.738  11.462  0.00  0.00    +0.000 A 
ATOM     27  C   UNL     1      50.281   8.466  11.464  0.00  0.00    +0.000 A 
ATOM     28  C   UNL     1      49.429   7.395  11.781  0.00  0.00    +0.000 A 
BRANCH  27  29
ATOM     29  C   UNL     1      51.714   8.265  11.073  0.00  0.00    +0.000 C 
BRANCH  29  30
ATOM     30  O   UNL     1      51.965   6.928  10.661  0.00  0.00    +0.000 OA
ATOM     31  H   UNL     1      51.882   6.367  11.452  0.00  0.00    +0.000 HD
ENDBRANCH  29  30
ENDBRANCH  27  29
ENDBRANCH  21  23
ENDBRANCH   1  17
TORSDOF 6
ENDMDL
MODEL 2
REMARK VINA RESULT:    -8.813      2.676      3.929
REMARK INTER + INTRA:         -12.846
REMARK INTER:                 -12.408
REMARK INTRA:                  -0.438
REMARK UNBOUND:                -1.199
REMARK  Name = 
REMARK  6 active torsions:
REMARK  status: ('A' for Active; 'I' for Inactive)
REMARK    1  A    between atoms: C_2  and  C_4
REMARK    2  A    between atoms: N_8  and  C_9
REMARK    3  A    between atoms: C_9  and  C_10
REMARK    4  A    between atoms: C_14  and  C_15
REMARK    5  A    between atoms: C_19  and  C_20
REMARK    6  A    between atoms: C_20  and  O_21
REMARK                            x       y       z     vdW  Elec       q    Type
REMARK                         _______ _______ _______ _____ _____    ______ ____
ROOT
ATOM      1  C   UNL     1      43.893   4.825  11.477  0.00  0.00    +0.000 C 
ATOM      2  C   UNL     1      42.833   4.755  12.576  0.00  0.00    +0.000 C 
ATOM      3  C   UNL     1      42.691   5.758  11.484  0.00  0.00    +0.000 C 
ENDROOT
BRANCH   1   8
ATOM      4  C   UNL     1      46.537   2.750   7.489  0.00  0.00    +0.000 A 
ATOM      5  C   UNL     1      46.143   4.070   7.688  0.00  0.00    +0.000 A 
ATOM      6  C   UNL     1      45.319   4.386   8.766  0.00  0.00    +0.000 A 
ATOM      7  C   UNL     1      44.896   3.384   9.628  0.00  0.00    +0.000 A 
ATOM      8  N   UNL     1      43.998   3.599  10.671  0.00  0.00    +0.000 N 
ATOM      9  N   UNL     1      45.269   2.094   9.443  0.00  0.00    +0.000 NA
ATOM     10  C   UNL     1      46.068   1.804   8.385  0.00  0.00    +0.000 A 
ATOM     11  H   UNL     1      43.918   2.715  11.169  0.00  0.00    +0.000 HD
BRANCH   4  13
ATOM     12  N   UNL     1      47.149   2.972   5.153  0.00  0.00    +0.000 N 
ATOM     13  C   UNL     1      47.372   2.337   6.345  0.00  0.00    +0.000 C 
ATOM     14  O   UNL     1      48.232   1.473   6.454  0.00  0.00    +0.000 OA
ATOM     15  H   UNL     1      47.751   2.722   4.380  0.00  0.00    +0.000 HD
ATOM     16  H   UNL     1      46.623   3.830   5.080  0.00  0.00    +0.000 HD
ENDBRANCH   4  13
ENDBRANCH   1   8
BRANCH   1  17
ATOM     17  C   UNL     1      45.229   5.482  11.812  0.00  0.00    +0.000 A 
ATOM     18  C   UNL     1      45.736   6.537  11.035  0.00  0.00    +0.000 A 
ATOM     19  C   UNL     1      46.878   7.231  11.424  0.00  0.00    +0.000 A 
ATOM     20  C   UNL     1      47.541   6.885  12.600  0.00  0.00    +0.000 A 
ATOM     21  C   UNL     1      47.093   5.821  13.402  0.00  0.00    +0.000 A 
ATOM     22  C   UNL     1      45.953   5.121  12.962  0.00  0.00    +0.000 A 
BRANCH  21  23
ATOM     23  C   UNL     1      47.730   5.498  14.696  0.00  0.00    +0.000 A 
ATOM     24  C   UNL     1      48.601   6.380  15.332  0.00  0.00    +0.000 A 
ATOM     25  N   UNL     1      49.186   6.174  16.538  0.00  0.00    +0.000 NA
ATOM     26  C   UNL     1      48.878   5.024  17.167  0.00  0.00    +0.000 A 
ATOM     27  C   UNL     1      48.008   4.067  16.662  0.00  0.00    +0.000 A 
ATOM     28  C   UNL     1      47.456   4.307  15.393  0.00  0.00    +0.000 A 
BRANCH  27  29
ATOM     29  C   UNL     1      47.742   2.808  17.430  0.00  0.00    +0.000 C 
BRANCH  29  30
ATOM     30  O   UNL     1      46.363   2.668  17.749  0.00  0.00    +0.000 OA
ATOM     31  H   UNL     1      45.861   2.973  16.973  0.00  0.00    +0.000 HD
ENDBRANCH  29  30
ENDBRANCH  27  29
ENDBRANCH  21  23
ENDBRANCH   1  17
TORSDOF 6
ENDMDL
MODEL 3
REMARK VINA RESULT:    -7.129      3.748      8.320
REMARK INTER + INTRA:         -10.620
REMARK INTER:                  -9.536
REMARK INTRA:                  -1.084
REMARK UNBOUND:                -1.199
REMARK  Name = 
REMARK  6 active torsions:
REMARK  status: ('A' for Active; 'I' for Inactive)
REMARK    1  A    between atoms: C_2  and  C_4
REMARK    2  A    between atoms: N_8  and  C_9
REMARK    3  A    between atoms: C_9  and  C_10
REMARK    4  A    between atoms: C_14  and  C_15
REMARK    5  A    between atoms: C_19  and  C_20
REMARK    6  A    between atoms: C_20  and  O_21
REMARK                            x       y       z     vdW  Elec       q    Type
REMARK                         _______ _______ _______ _____ _____    ______ ____
ROOT
ATOM      1  C   UNL     1      48.984   7.944  12.855  0.00  0.00    +0.000 C 
ATOM      2  C   UNL     1      49.973   8.176  11.712  0.00  0.00    +0.000 C 
ATOM      3  C   UNL     1      49.568   9.320  12.574  0.00  0.00    +0.000 C 
ENDROOT
BRANCH   1   8
ATOM      4  C   UNL     1      48.500   6.833  17.927  0.00  0.00    +0.000 A 
ATOM      5  C   UNL     1      48.458   8.071  17.293  0.00  0.00    +0.000 A 
ATOM      6  C   UNL     1      48.749   8.157  15.933  0.00  0.00    +0.000 A 
ATOM      7  C   UNL     1      49.080   7.009  15.225  0.00  0.00    +0.000 A 
ATOM      8  N   UNL     1      49.475   7.020  13.889  0.00  0.00    +0.000 N 
ATOM      9  N   UNL     1      49.128   5.798  15.832  0.00  0.00    +0.000 NA
ATOM     10  C   UNL     1      48.846   5.734  17.158  0.00  0.00    +0.000 A 
ATOM     11  H   UNL     1      49.593   6.047  13.616  0.00  0.00    +0.000 HD
BRANCH   4  13
ATOM     12  N   UNL     1      47.545   5.565  19.761  0.00  0.00    +0.000 N 
ATOM     13  C   UNL     1      48.246   6.675  19.372  0.00  0.00    +0.000 C 
ATOM     14  O   UNL     1      48.651   7.490  20.190  0.00  0.00    +0.000 OA
ATOM     15  H   UNL     1      47.411   5.431  20.754  0.00  0.00    +0.000 HD
ATOM     16  H   UNL     1      47.400   4.769  19.157  0.00  0.00    +0.000 HD
ENDBRANCH   4  13
ENDBRANCH   1   8
BRANCH   1  17
ATOM     17  C   UNL     1      47.509   7.778  12.502  0.00  0.00    +0.000 A 
ATOM     18  C   UNL     1      46.602   8.842  12.643  0.00  0.00    +0.000 A 
ATOM     19  C   UNL     1      45.293   8.736  12.185  0.00  0.00    +0.000 A 
ATOM     20  C   UNL     1      44.857   7.560  11.575  0.00  0.00    +0.000 A 
ATOM     21  C   UNL     1      45.714   6.455  11.431  0.00  0.00    +0.000 A 
ATOM     22  C   UNL     1      47.023   6.586  11.934  0.00  0.00    +0.000 A 
BRANCH  21  23
ATOM     23  C   UNL     1      45.297   5.235  10.709  0.00  0.00    +0.000 A 
ATOM     24  C   UNL     1      44.406   4.317  11.261  0.00  0.00    +0.000 A 
ATOM     25  N   UNL     1      43.942   3.202  10.643  0.00  0.00    +0.000 NA
ATOM     26  C   UNL     1      44.377   2.987   9.387  0.00  0.00    +0.000 A 
ATOM     27  C   UNL     1      45.245   3.829   8.706  0.00  0.00    +0.000 A 
ATOM     28  C   UNL     1      45.728   4.951   9.400  0.00  0.00    +0.000 A 
BRANCH  27  29
ATOM     29  C   UNL     1      45.687   3.494   7.313  0.00  0.00    +0.000 C 
BRANCH  29  30
ATOM     30  O   UNL     1      46.803   4.278   6.911  0.00  0.00    +0.000 OA
ATOM     31  H   UNL     1      47.601   3.805   7.205  0.00  0.00    +0.000 HD
ENDBRANCH  29  30
ENDBRANCH  27  29
ENDBRANCH  21  23
ENDBRANCH   1  17
TORSDOF 6
ENDMDL
MODEL 4
REMARK VINA RESULT:    -6.553      5.399      8.497
REMARK INTER + INTRA:          -9.859
REMARK INTER:                  -9.082
REMARK INTRA:                  -0.778
REMARK UNBOUND:                -1.199
REMARK  Name = 
REMARK  6 active torsions:
REMARK  status: ('A' for Active; 'I' for Inactive)
REMARK    1  A    between atoms: C_2  and  C_4
REMARK    2  A    between atoms: N_8  and  C_9
REMARK    3  A    between atoms: C_9  and  C_10
REMARK    4  A    between atoms: C_14  and  C_15
REMARK    5  A    between atoms: C_19  and  C_20
REMARK    6  A    between atoms: C_20  and  O_21
REMARK                            x       y       z     vdW  Elec       q    Type
REMARK                         _______ _______ _______ _____ _____    ______ ____
ROOT
ATOM      1  C   UNL     1      48.287   4.898  17.218  0.00  0.00    +0.000 C 
ATOM      2  C   UNL     1      47.129   5.132  18.188  0.00  0.00    +0.000 C 
ATOM      3  C   UNL     1      47.159   3.889  17.368  0.00  0.00    +0.000 C 
ENDROOT
BRANCH   1   8
ATOM      4  C   UNL     1      52.431   1.757  17.616  0.00  0.00    +0.000 A 
ATOM      5  C   UNL     1      51.087   1.422  17.476  0.00  0.00    +0.000 A 
ATOM      6  C   UNL     1      50.121   2.425  17.525  0.00  0.00    +0.000 A 
ATOM      7  C   UNL     1      50.506   3.746  17.716  0.00  0.00    +0.000 A 
ATOM      8  N   UNL     1      49.600   4.792  17.872  0.00  0.00    +0.000 N 
ATOM      9  N   UNL     1      51.810   4.083  17.858  0.00  0.00    +0.000 NA
ATOM     10  C   UNL     1      52.738   3.094  17.812  0.00  0.00    +0.000 A 
ATOM     11  H   UNL     1      50.153   5.645  17.931  0.00  0.00    +0.000 HD
BRANCH   4  13
ATOM     12  N   UNL     1      53.237  -0.440  18.251  0.00  0.00    +0.000 N 
ATOM     13  C   UNL     1      53.503   0.744  17.617  0.00  0.00    +0.000 C 
ATOM     14  O   UNL     1      54.579   0.943  17.069  0.00  0.00    +0.000 OA
ATOM     15  H   UNL     1      53.954  -1.153  18.213  0.00  0.00    +0.000 HD
ATOM     16  H   UNL     1      52.303  -0.727  18.507  0.00  0.00    +0.000 HD
ENDBRANCH   4  13
ENDBRANCH   1   8
BRANCH   1  17
ATOM     17  C   UNL     1      48.291   5.680  15.907  0.00  0.00    +0.000 A 
ATOM     18  C   UNL     1      49.312   6.597  15.609  0.00  0.00    +0.000 A 
ATOM     19  C   UNL     1      49.396   7.199  14.358  0.00  0.00    +0.000 A 
ATOM     20  C   UNL     1      48.457   6.897  13.372  0.00  0.00    +0.000 A 
ATOM     21  C   UNL     1      47.399   6.006  13.623  0.00  0.00    +0.000 A 
ATOM     22  C   UNL     1      47.328   5.440  14.910  0.00  0.00    +0.000 A 
BRANCH  21  23
ATOM     23  C   UNL     1      46.448   5.607  12.564  0.00  0.00    +0.000 A 
ATOM     24  C   UNL     1      46.441   6.214  11.310  0.00  0.00    +0.000 A 
ATOM     25  N   UNL     1      45.633   5.872  10.276  0.00  0.00    +0.000 NA
ATOM     26  C   UNL     1      44.783   4.850  10.490  0.00  0.00    +0.000 A 
ATOM     27  C   UNL     1      44.700   4.141  11.681  0.00  0.00    +0.000 A 
ATOM     28  C   UNL     1      45.530   4.555  12.735  0.00  0.00    +0.000 A 
BRANCH  27  29
ATOM     29  C   UNL     1      43.707   3.027  11.829  0.00  0.00    +0.000 C 
BRANCH  29  30
ATOM     30  O   UNL     1      43.669   2.199  10.674  0.00  0.00    +0.000 OA
ATOM     31  H   UNL     1      44.591   1.987  10.446  0.00  0.00    +0.000 HD
ENDBRANCH  29  30
ENDBRANCH  27  29
ENDBRANCH  21  23
ENDBRANCH   1  17
TORSDOF 6
ENDMDL
MODEL 5
REMARK VINA RESULT:    -6.448      4.067      6.252
REMARK INTER + INTRA:          -9.720
REMARK INTER:                  -9.204
REMARK INTRA:                  -0.516
REMARK UNBOUND:                -1.199
REMARK  Name = 
REMARK  6 active torsions:
REMARK  status: ('A' for Active; 'I' for Inactive)
REMARK    1  A    between atoms: C_2  and  C_4
REMARK    2  A    between atoms: N_8  and  C_9
REMARK    3  A    between atoms: C_9  and  C_10
REMARK    4  A    between atoms: C_14  and  C_15
REMARK    5  A    between atoms: C_19  and  C_20
REMARK    6  A    between atoms: C_20  and  O_21
REMARK                            x       y       z     vdW  Elec       q    Type
REMARK                         _______ _______ _______ _____ _____    ______ ____
ROOT
ATOM      1  C   UNL     1      47.360   8.658  13.070  0.00  0.00    +0.000 C 
ATOM      2  C   UNL     1      47.372   9.980  12.301  0.00  0.00    +0.000 C 
ATOM      3  C   UNL     1      48.152   8.823  11.781  0.00  0.00    +0.000 C 
ENDROOT
BRANCH   1   8
ATOM      4  C   UNL     1      44.699   4.428  11.580  0.00  0.00    +0.000 A 
ATOM      5  C   UNL     1      45.695   5.122  10.899  0.00  0.00    +0.000 A 
ATOM      6  C   UNL     1      46.182   6.316  11.425  0.00  0.00    +0.000 A 
ATOM      7  C   UNL     1      45.668   6.805  12.619  0.00  0.00    +0.000 A 
ATOM      8  N   UNL     1      46.031   8.035  13.163  0.00  0.00    +0.000 N 
ATOM      9  N   UNL     1      44.695   6.141  13.289  0.00  0.00    +0.000 NA
ATOM     10  C   UNL     1      44.229   4.982  12.760  0.00  0.00    +0.000 A 
ATOM     11  H   UNL     1      45.554   8.106  14.059  0.00  0.00    +0.000 HD
BRANCH   4  13
ATOM     12  N   UNL     1      44.866   2.449  10.188  0.00  0.00    +0.000 N 
ATOM     13  C   UNL     1      44.106   3.181  11.061  0.00  0.00    +0.000 C 
ATOM     14  O   UNL     1      42.991   2.807  11.399  0.00  0.00    +0.000 OA
ATOM     15  H   UNL     1      44.481   1.571   9.867  0.00  0.00    +0.000 HD
ATOM     16  H   UNL     1      45.858   2.598  10.068  0.00  0.00    +0.000 HD
ENDBRANCH   4  13
ENDBRANCH   1   8
BRANCH   1  17
ATOM     17  C   UNL     1      48.199   8.562  14.341  0.00  0.00    +0.000 A 
ATOM     18  C   UNL     1      48.499   9.703  15.104  0.00  0.00    +0.000 A 
ATOM     19  C   UNL     1      49.136   9.597  16.335  0.00  0.00    +0.000 A 
ATOM     20  C   UNL     1      49.491   8.344  16.835  0.00  0.00    +0.000 A 
ATOM     21  C   UNL     1      49.238   7.171  16.103  0.00  0.00    +0.000 A 
ATOM     22  C   UNL     1      48.620   7.318  14.846  0.00  0.00    +0.000 A 
BRANCH  21  23
ATOM     23  C   UNL     1      49.526   5.831  16.655  0.00  0.00    +0.000 A 
ATOM     24  C   UNL     1      50.814   5.443  17.020  0.00  0.00    +0.000 A 
ATOM     25  N   UNL     1      51.147   4.251  17.575  0.00  0.00    +0.000 NA
ATOM     26  C   UNL     1      50.138   3.388  17.798  0.00  0.00    +0.000 A 
ATOM     27  C   UNL     1      48.807   3.652  17.506  0.00  0.00    +0.000 A 
ATOM     28  C   UNL     1      48.515   4.884  16.899  0.00  0.00    +0.000 A 
BRANCH  27  29
ATOM     29  C   UNL     1      47.755   2.619  17.776  0.00  0.00    +0.000 C 
BRANCH  29  30
ATOM     30  O   UNL     1      46.447   3.124  17.539  0.00  0.00    +0.000 OA
ATOM     31  H   UNL     1      46.493   4.090  17.648  0.00  0.00    +0.000 HD
ENDBRANCH  29  30
ENDBRANCH  27  29
ENDBRANCH  21  23
ENDBRANCH   1  17
TORSDOF 6
ENDMDL
MODEL 6
REMARK VINA RESULT:    -6.192      1.634      2.411
REMARK INTER + INTRA:          -9.382
REMARK INTER:                  -9.144
REMARK INTRA:                  -0.238
REMARK UNBOUND:                -1.199
REMARK  Name = 
REMARK  6 active torsions:
REMARK  status: ('A' for Active; 'I' for Inactive)
REMARK    1  A    between atoms: C_2  and  C_4
REMARK    2  A    between atoms: N_8  and  C_9
REMARK    3  A    between atoms: C_9  and  C_10
REMARK    4  A    between atoms: C_14  and  C_15
REMARK    5  A    between atoms: C_19  and  C_20
REMARK    6  A    between atoms: C_20  and  O_21
REMARK                            x       y       z     vdW  Elec       q    Type
REMARK                         _______ _______ _______ _____ _____    ______ ____
ROOT
ATOM      1  C   UNL     1      44.172   4.037  11.851  0.00  0.00    +0.000 C 
ATOM      2  C   UNL     1      45.117   3.498  12.925  0.00  0.00    +0.000 C 
ATOM      3  C   UNL     1      43.671   3.670  13.240  0.00  0.00    +0.000 C 
ENDROOT
BRANCH   1   8
ATOM      4  C   UNL     1      46.529   2.973   7.323  0.00  0.00    +0.000 A 
ATOM      5  C   UNL     1      46.405   4.193   7.981  0.00  0.00    +0.000 A 
ATOM      6  C   UNL     1      45.610   4.280   9.122  0.00  0.00    +0.000 A 
ATOM      7  C   UNL     1      44.949   3.152   9.590  0.00  0.00    +0.000 A 
ATOM      8  N   UNL     1      44.064   3.174  10.665  0.00  0.00    +0.000 N 
ATOM      9  N   UNL     1      45.059   1.959   8.956  0.00  0.00    +0.000 NA
ATOM     10  C   UNL     1      45.833   1.894   7.843  0.00  0.00    +0.000 A 
ATOM     11  H   UNL     1      43.780   2.210  10.825  0.00  0.00    +0.000 HD
BRANCH   4  13
ATOM     12  N   UNL     1      48.650   2.539   6.230  0.00  0.00    +0.000 N 
ATOM     13  C   UNL     1      47.317   2.818   6.085  0.00  0.00    +0.000 C 
ATOM     14  O   UNL     1      46.806   2.922   4.978  0.00  0.00    +0.000 OA
ATOM     15  H   UNL     1      49.182   2.386   5.383  0.00  0.00    +0.000 HD
ATOM     16  H   UNL     1      49.052   2.221   7.099  0.00  0.00    +0.000 HD
ENDBRANCH   4  13
ENDBRANCH   1   8
BRANCH   1  17
ATOM     17  C   UNL     1      44.212   5.532  11.548  0.00  0.00    +0.000 A 
ATOM     18  C   UNL     1      43.069   6.216  11.101  0.00  0.00    +0.000 A 
ATOM     19  C   UNL     1      43.067   7.600  10.965  0.00  0.00    +0.000 A 
ATOM     20  C   UNL     1      44.211   8.336  11.272  0.00  0.00    +0.000 A 
ATOM     21  C   UNL     1      45.391   7.702  11.699  0.00  0.00    +0.000 A 
ATOM     22  C   UNL     1      45.367   6.297  11.795  0.00  0.00    +0.000 A 
BRANCH  21  23
ATOM     23  C   UNL     1      46.582   8.471  12.114  0.00  0.00    +0.000 A 
ATOM     24  C   UNL     1      46.619   9.863  12.061  0.00  0.00    +0.000 A 
ATOM     25  N   UNL     1      47.656  10.638  12.467  0.00  0.00    +0.000 NA
ATOM     26  C   UNL     1      48.725   9.994  12.974  0.00  0.00    +0.000 A 
ATOM     27  C   UNL     1      48.814   8.615  13.108  0.00  0.00    +0.000 A 
ATOM     28  C   UNL     1      47.731   7.853  12.640  0.00  0.00    +0.000 A 
BRANCH  27  29
ATOM     29  C   UNL     1      50.055   7.990  13.669  0.00  0.00    +0.000 C 
BRANCH  29  30
ATOM     30  O   UNL     1      49.795   6.705  14.220  0.00  0.00    +0.000 OA
ATOM     31  H   UNL     1      50.543   6.134  13.971  0.00  0.00    +0.000 HD
ENDBRANCH  29  30
ENDBRANCH  27  29
ENDBRANCH  21  23
ENDBRANCH   1  17
TORSDOF 6
ENDMDL
MODEL 7
REMARK VINA RESULT:    -5.946      2.900      7.846
REMARK INTER + INTRA:          -9.057
REMARK INTER:                  -8.816
REMARK INTRA:                  -0.241
REMARK UNBOUND:                -1.199
REMARK  Name = 
REMARK  6 active torsions:
REMARK  status: ('A' for Active; 'I' for Inactive)
REMARK    1  A    between atoms: C_2  and  C_4
REMARK    2  A    between atoms: N_8  and  C_9
REMARK    3  A    between atoms: C_9  and  C_10
REMARK    4  A    between atoms: C_14  and  C_15
REMARK    5  A    between atoms: C_19  and  C_20
REMARK    6  A    between atoms: C_20  and  O_21
REMARK                            x       y       z     vdW  Elec       q    Type
REMARK                         _______ _______ _______ _____ _____    ______ ____
ROOT
ATOM      1  C   UNL     1      46.014   7.715  12.184  0.00  0.00    +0.000 C 
ATOM      2  C   UNL     1      45.970   9.053  11.445  0.00  0.00    +0.000 C 
ATOM      3  C   UNL     1      45.292   8.921  12.764  0.00  0.00    +0.000 C 
ENDROOT
BRANCH   1   8
ATOM      4  C   UNL     1      49.464   7.980  16.086  0.00  0.00    +0.000 A 
ATOM      5  C   UNL     1      48.537   8.932  15.668  0.00  0.00    +0.000 A 
ATOM      6  C   UNL     1      47.799   8.709  14.508  0.00  0.00    +0.000 A 
ATOM      7  C   UNL     1      47.996   7.543  13.779  0.00  0.00    +0.000 A 
ATOM      8  N   UNL     1      47.370   7.287  12.561  0.00  0.00    +0.000 N 
ATOM      9  N   UNL     1      48.898   6.612  14.173  0.00  0.00    +0.000 NA
ATOM     10  C   UNL     1      49.611   6.848  15.303  0.00  0.00    +0.000 A 
ATOM     11  H   UNL     1      47.646   6.347  12.287  0.00  0.00    +0.000 HD
BRANCH   4  13
ATOM     12  N   UNL     1      49.814   7.712  18.471  0.00  0.00    +0.000 N 
ATOM     13  C   UNL     1      50.310   8.170  17.280  0.00  0.00    +0.000 C 
ATOM     14  O   UNL     1      51.409   8.703  17.211  0.00  0.00    +0.000 OA
ATOM     15  H   UNL     1      50.413   7.800  19.282  0.00  0.00    +0.000 HD
ATOM     16  H   UNL     1      49.035   7.074  18.530  0.00  0.00    +0.000 HD
ENDBRANCH   4  13
ENDBRANCH   1   8
BRANCH   1  17
ATOM     17  C   UNL     1      45.108   6.592  11.686  0.00  0.00    +0.000 A 
ATOM     18  C   UNL     1      43.727   6.605  11.940  0.00  0.00    +0.000 A 
ATOM     19  C   UNL     1      42.882   5.662  11.364  0.00  0.00    +0.000 A 
ATOM     20  C   UNL     1      43.400   4.680  10.520  0.00  0.00    +0.000 A 
ATOM     21  C   UNL     1      44.777   4.604  10.251  0.00  0.00    +0.000 A 
ATOM     22  C   UNL     1      45.607   5.556  10.876  0.00  0.00    +0.000 A 
BRANCH  21  23
ATOM     23  C   UNL     1      45.332   3.628   9.291  0.00  0.00    +0.000 A 
ATOM     24  C   UNL     1      45.247   2.253   9.502  0.00  0.00    +0.000 A 
ATOM     25  N   UNL     1      45.690   1.298   8.646  0.00  0.00    +0.000 NA
ATOM     26  C   UNL     1      46.240   1.730   7.496  0.00  0.00    +0.000 A 
ATOM     27  C   UNL     1      46.367   3.067   7.145  0.00  0.00    +0.000 A 
ATOM     28  C   UNL     1      45.928   4.020   8.078  0.00  0.00    +0.000 A 
BRANCH  27  29
ATOM     29  C   UNL     1      47.011   3.449   5.847  0.00  0.00    +0.000 C 
BRANCH  29  30
ATOM     30  O   UNL     1      48.215   2.727   5.623  0.00  0.00    +0.000 OA
ATOM     31  H   UNL     1      47.967   1.892   5.189  0.00  0.00    +0.000 HD
ENDBRANCH  29  30
ENDBRANCH  27  29
ENDBRANCH  21  23
ENDBRANCH   1  17
TORSDOF 6
ENDMDL
