MODEL 1
REMARK VINA RESULT:    -5.120      0.000      0.000
REMARK INTER + INTRA:          -8.074
REMARK INTER:                  -7.215
REMARK INTRA:                  -0.859
REMARK UNBOUND:                -0.859
REMARK  Name = 
REMARK  9 active torsions:
REMARK  status: ('A' for Active; 'I' for Inactive)
REMARK    1  A    between atoms: C_1  and  O_2
REMARK    2  A    between atoms: O_2  and  C_3
REMARK    3  A    between atoms: C_6  and  C_7
REMARK    4  A    between atoms: N_9  and  C_10
REMARK    5  A    between atoms: N_13  and  C_14
REMARK    6  A    between atoms: C_14  and  C_15
REMARK    7  A    between atoms: C_15  and  C_16
REMARK    8  A    between atoms: C_29  and  O_30
REMARK    9  A    between atoms: O_30  and  C_31
REMARK                            x       y       z     vdW  Elec       q    Type
REMARK                         _______ _______ _______ _____ _____    ______ ____
ROOT
ATOM      1  C   UNL     1      38.541  -1.563  10.696  0.00  0.00    +0.000 C 
ATOM      2  C   UNL     1      37.400  -2.336  10.056  0.00  0.00    +0.000 C 
ATOM      3  C   UNL     1      37.023  -1.638   8.767  0.00  0.00    +0.000 C 
ATOM      4  N   UNL     1      36.684  -0.233   8.967  0.00  0.00    +0.000 N 
ATOM      5  C   UNL     1      37.396   0.554   9.868  0.00  0.00    +0.000 C 
ATOM      6  O   UNL     1      37.366   1.789   9.843  0.00  0.00    +0.000 OA
ATOM      7  C   UNL     1      38.084  -0.149  11.018  0.00  0.00    +0.000 C 
ENDROOT
BRANCH   1  10
ATOM      8  C   UNL     1      40.382  -2.353  12.162  0.00  0.00    +0.000 C 
ATOM      9  O   UNL     1      41.229  -1.853  11.433  0.00  0.00    +0.000 OA
ATOM     10  N   UNL     1      39.025  -2.250  11.894  0.00  0.00    +0.000 N 
ATOM     11  H   UNL     1      38.382  -2.870  12.372  0.00  0.00    +0.000 HD
BRANCH   8  15
ATOM     12  C   UNL     1      41.342  -4.494  15.690  0.00  0.00    +0.000 A 
ATOM     13  C   UNL     1      41.811  -4.981  14.489  0.00  0.00    +0.000 A 
ATOM     14  C   UNL     1      41.510  -4.267  13.327  0.00  0.00    +0.000 A 
ATOM     15  C   UNL     1      40.752  -3.087  13.403  0.00  0.00    +0.000 A 
ATOM     16  C   UNL     1      40.318  -2.685  14.665  0.00  0.00    +0.000 A 
ATOM     17  N   UNL     1      40.619  -3.368  15.795  0.00  0.00    +0.000 NA
BRANCH  12  19
ATOM     18  C   UNL     1      42.927  -5.790  16.797  0.00  0.00    +0.000 C 
ATOM     19  O   UNL     1      41.619  -5.216  16.829  0.00  0.00    +0.000 OA
ENDBRANCH  12  19
BRANCH  16  20
ATOM     20  O   UNL     1      39.577  -1.534  14.822  0.00  0.00    +0.000 OA
ATOM     21  C   UNL     1      39.400  -1.168  16.191  0.00  0.00    +0.000 C 
ENDBRANCH  16  20
ENDBRANCH   8  15
ENDBRANCH   1  10
BRANCH   4  22
ATOM     22  C   UNL     1      35.947   0.447   7.890  0.00  0.00    +0.000 C 
BRANCH  22  23
ATOM     23  C   UNL     1      36.802   1.345   6.986  0.00  0.00    +0.000 C 
BRANCH  23  24
ATOM     24  C   UNL     1      37.361   0.712   5.730  0.00  0.00    +0.000 A 
ATOM     25  C   UNL     1      37.103  -0.557   5.249  0.00  0.00    +0.000 A 
ATOM     26  S   UNL     1      37.946  -0.918   3.803  0.00  0.00    +0.000 S 
ATOM     27  C   UNL     1      38.651   0.631   3.759  0.00  0.00    +0.000 A 
ATOM     28  N   UNL     1      39.488   1.004   2.754  0.00  0.00    +0.000 NA
ATOM     29  C   UNL     1      39.929   2.214   2.854  0.00  0.00    +0.000 A 
ATOM     30  N   UNL     1      39.616   3.085   3.869  0.00  0.00    +0.000 N 
ATOM     31  C   UNL     1      38.781   2.753   4.913  0.00  0.00    +0.000 A 
ATOM     32  O   UNL     1      38.523   3.548   5.809  0.00  0.00    +0.000 OA
ATOM     33  C   UNL     1      38.257   1.401   4.835  0.00  0.00    +0.000 A 
ATOM     34  H   UNL     1      39.999   4.018   3.889  0.00  0.00    +0.000 HD
ENDBRANCH  23  24
ENDBRANCH  22  23
ENDBRANCH   4  22
TORSDOF 7
ENDMDL
MODEL 2
REMARK VINA RESULT:    -5.072      8.148     10.051
REMARK INTER + INTRA:          -8.007
REMARK INTER:                  -6.754
REMARK INTRA:                  -1.254
REMARK UNBOUND:                -0.859
REMARK  Name = 
REMARK  9 active torsions:
REMARK  status: ('A' for Active; 'I' for Inactive)
REMARK    1  A    between atoms: C_1  and  O_2
REMARK    2  A    between atoms: O_2  and  C_3
REMARK    3  A    between atoms: C_6  and  C_7
REMARK    4  A    between atoms: N_9  and  C_10
REMARK    5  A    between atoms: N_13  and  C_14
REMARK    6  A    between atoms: C_14  and  C_15
REMARK    7  A    between atoms: C_15  and  C_16
REMARK    8  A    between atoms: C_29  and  O_30
REMARK    9  A    between atoms: O_30  and  C_31
REMARK                            x       y       z     vdW  Elec       q    Type
REMARK                         _______ _______ _______ _____ _____    ______ ____
ROOT
ATOM      1  C   UNL     1      40.533  -2.936  16.947  0.00  0.00    +0.000 C 
ATOM      2  C   UNL     1      40.696  -1.714  16.058  0.00  0.00    +0.000 C 
ATOM      3  C   UNL     1      39.481  -0.830  16.246  0.00  0.00    +0.000 C 
ATOM      4  N   UNL     1      38.229  -1.532  15.983  0.00  0.00    +0.000 N 
ATOM      5  C   UNL     1      38.052  -2.854  16.380  0.00  0.00    +0.000 C 
ATOM      6  O   UNL     1      36.939  -3.380  16.469  0.00  0.00    +0.000 OA
ATOM      7  C   UNL     1      39.292  -3.710  16.530  0.00  0.00    +0.000 C 
ENDROOT
BRANCH   1  10
ATOM      8  C   UNL     1      42.300  -4.286  18.050  0.00  0.00    +0.000 C 
ATOM      9  O   UNL     1      41.821  -4.079  19.157  0.00  0.00    +0.000 OA
ATOM     10  N   UNL     1      41.727  -3.780  16.892  0.00  0.00    +0.000 N 
ATOM     11  H   UNL     1      42.274  -3.765  16.040  0.00  0.00    +0.000 HD
BRANCH   8  15
ATOM     12  C   UNL     1      45.801  -6.596  17.449  0.00  0.00    +0.000 A 
ATOM     13  C   UNL     1      45.852  -5.568  18.367  0.00  0.00    +0.000 A 
ATOM     14  C   UNL     1      44.694  -4.817  18.579  0.00  0.00    +0.000 A 
ATOM     15  C   UNL     1      43.520  -5.119  17.869  0.00  0.00    +0.000 A 
ATOM     16  C   UNL     1      43.576  -6.172  16.957  0.00  0.00    +0.000 A 
ATOM     17  N   UNL     1      44.694  -6.911  16.759  0.00  0.00    +0.000 NA
BRANCH  12  19
ATOM     18  C   UNL     1      47.932  -6.556  16.515  0.00  0.00    +0.000 C 
ATOM     19  O   UNL     1      46.953  -7.316  17.225  0.00  0.00    +0.000 OA
ENDBRANCH  12  19
BRANCH  16  20
ATOM     20  O   UNL     1      42.464  -6.533  16.228  0.00  0.00    +0.000 OA
ATOM     21  C   UNL     1      41.988  -7.841  16.548  0.00  0.00    +0.000 C 
ENDBRANCH  16  20
ENDBRANCH   8  15
ENDBRANCH   1  10
BRANCH   4  22
ATOM     22  C   UNL     1      37.028  -0.713  15.758  0.00  0.00    +0.000 C 
BRANCH  22  23
ATOM     23  C   UNL     1      37.076   0.693  16.372  0.00  0.00    +0.000 C 
BRANCH  23  24
ATOM     24  C   UNL     1      37.145   0.774  17.881  0.00  0.00    +0.000 A 
ATOM     25  C   UNL     1      36.501  -0.041  18.792  0.00  0.00    +0.000 A 
ATOM     26  S   UNL     1      36.813   0.384  20.421  0.00  0.00    +0.000 S 
ATOM     27  C   UNL     1      37.850   1.650  19.953  0.00  0.00    +0.000 A 
ATOM     28  N   UNL     1      38.483   2.429  20.872  0.00  0.00    +0.000 NA
ATOM     29  C   UNL     1      39.246   3.336  20.361  0.00  0.00    +0.000 A 
ATOM     30  N   UNL     1      39.433   3.542  19.015  0.00  0.00    +0.000 N 
ATOM     31  C   UNL     1      38.810   2.788  18.046  0.00  0.00    +0.000 A 
ATOM     32  O   UNL     1      38.990   2.996  16.852  0.00  0.00    +0.000 OA
ATOM     33  C   UNL     1      37.945   1.750  18.580  0.00  0.00    +0.000 A 
ATOM     34  H   UNL     1      40.043   4.273  18.682  0.00  0.00    +0.000 HD
ENDBRANCH  23  24
ENDBRANCH  22  23
ENDBRANCH   4  22
TORSDOF 7
ENDMDL
MODEL 3
REMARK VINA RESULT:    -5.068      1.609      2.175
REMARK INTER + INTRA:          -8.001
REMARK INTER:                  -6.695
REMARK INTRA:                  -1.306
REMARK UNBOUND:                -0.859
REMARK  Name = 
REMARK  9 active torsions:
REMARK  status: ('A' for Active; 'I' for Inactive)
REMARK    1  A    between atoms: C_1  and  O_2
REMARK    2  A    between atoms: O_2  and  C_3
REMARK    3  A    between atoms: C_6  and  C_7
REMARK    4  A    between atoms: N_9  and  C_10
REMARK    5  A    between atoms: N_13  and  C_14
REMARK    6  A    between atoms: C_14  and  C_15
REMARK    7  A    between atoms: C_15  and  C_16
REMARK    8  A    between atoms: C_29  and  O_30
REMARK    9  A    between atoms: O_30  and  C_31
REMARK                            x       y       z     vdW  Elec       q    Type
REMARK                         _______ _______ _______ _____ _____    ______ ____
ROOT
ATOM      1  C   UNL     1      38.440  -1.582  10.703  0.00  0.00    +0.000 C 
ATOM      2  C   UNL     1      37.171  -2.241  10.188  0.00  0.00    +0.000 C 
ATOM      3  C   UNL     1      36.727  -1.498   8.945  0.00  0.00    +0.000 C 
ATOM      4  N   UNL     1      36.543  -0.070   9.179  0.00  0.00    +0.000 N 
ATOM      5  C   UNL     1      37.416   0.640   9.999  0.00  0.00    +0.000 C 
ATOM      6  O   UNL     1      37.498   1.872   9.977  0.00  0.00    +0.000 OA
ATOM      7  C   UNL     1      38.154  -0.135  11.071  0.00  0.00    +0.000 C 
ENDROOT
BRANCH   1  10
ATOM      8  C   UNL     1      40.348  -2.393  12.067  0.00  0.00    +0.000 C 
ATOM      9  O   UNL     1      41.157  -1.821  11.348  0.00  0.00    +0.000 OA
ATOM     10  N   UNL     1      38.981  -2.322  11.844  0.00  0.00    +0.000 N 
ATOM     11  H   UNL     1      38.374  -2.992  12.300  0.00  0.00    +0.000 HD
BRANCH   8  15
ATOM     12  C   UNL     1      41.480  -4.701  15.436  0.00  0.00    +0.000 A 
ATOM     13  C   UNL     1      41.863  -5.145  14.188  0.00  0.00    +0.000 A 
ATOM     14  C   UNL     1      41.505  -4.376  13.078  0.00  0.00    +0.000 A 
ATOM     15  C   UNL     1      40.779  -3.186  13.251  0.00  0.00    +0.000 A 
ATOM     16  C   UNL     1      40.433  -2.830  14.553  0.00  0.00    +0.000 A 
ATOM     17  N   UNL     1      40.789  -3.567  15.633  0.00  0.00    +0.000 NA
BRANCH  12  19
ATOM     18  C   UNL     1      42.798  -6.459  16.204  0.00  0.00    +0.000 C 
ATOM     19  O   UNL     1      41.811  -5.477  16.524  0.00  0.00    +0.000 OA
ENDBRANCH  12  19
BRANCH  16  20
ATOM     20  O   UNL     1      39.728  -1.674  14.805  0.00  0.00    +0.000 OA
ATOM     21  C   UNL     1      39.877  -1.211  16.148  0.00  0.00    +0.000 C 
ENDBRANCH  16  20
ENDBRANCH   8  15
ENDBRANCH   1  10
BRANCH   4  22
ATOM     22  C   UNL     1      35.763   0.685   8.186  0.00  0.00    +0.000 C 
BRANCH  22  23
ATOM     23  C   UNL     1      35.679   0.036   6.798  0.00  0.00    +0.000 C 
BRANCH  23  24
ATOM     24  C   UNL     1      36.790   0.365   5.824  0.00  0.00    +0.000 A 
ATOM     25  C   UNL     1      37.335   1.608   5.568  0.00  0.00    +0.000 A 
ATOM     26  S   UNL     1      38.565   1.576   4.377  0.00  0.00    +0.000 S 
ATOM     27  C   UNL     1      38.428  -0.111   4.197  0.00  0.00    +0.000 A 
ATOM     28  N   UNL     1      39.217  -0.801   3.330  0.00  0.00    +0.000 NA
ATOM     29  C   UNL     1      39.003  -2.074   3.319  0.00  0.00    +0.000 A 
ATOM     30  N   UNL     1      38.070  -2.724   4.090  0.00  0.00    +0.000 N 
ATOM     31  C   UNL     1      37.242  -2.070   4.975  0.00  0.00    +0.000 A 
ATOM     32  O   UNL     1      36.413  -2.672   5.648  0.00  0.00    +0.000 OA
ATOM     33  C   UNL     1      37.454  -0.634   5.024  0.00  0.00    +0.000 A 
ATOM     34  H   UNL     1      37.951  -3.723   4.030  0.00  0.00    +0.000 HD
ENDBRANCH  23  24
ENDBRANCH  22  23
ENDBRANCH   4  22
TORSDOF 7
ENDMDL
MODEL 4
REMARK VINA RESULT:    -4.800      4.805     11.147
REMARK INTER + INTRA:          -7.624
REMARK INTER:                  -6.251
REMARK INTRA:                  -1.372
REMARK UNBOUND:                -0.859
REMARK  Name = 
REMARK  9 active torsions:
REMARK  status: ('A' for Active; 'I' for Inactive)
REMARK    1  A    between atoms: C_1  and  O_2
REMARK    2  A    between atoms: O_2  and  C_3
REMARK    3  A    between atoms: C_6  and  C_7
REMARK    4  A    between atoms: N_9  and  C_10
REMARK    5  A    between atoms: N_13  and  C_14
REMARK    6  A    between atoms: C_14  and  C_15
REMARK    7  A    between atoms: C_15  and  C_16
REMARK    8  A    between atoms: C_29  and  O_30
REMARK    9  A    between atoms: O_30  and  C_31
REMARK                            x       y       z     vdW  Elec       q    Type
REMARK                         _______ _______ _______ _____ _____    ______ ____
ROOT
ATOM      1  C   UNL     1      37.913   2.772   4.543  0.00  0.00    +0.000 C 
ATOM      2  C   UNL     1      36.443   2.511   4.261  0.00  0.00    +0.000 C 
ATOM      3  C   UNL     1      35.991   1.365   5.142  0.00  0.00    +0.000 C 
ATOM      4  N   UNL     1      36.802   0.165   4.963  0.00  0.00    +0.000 N 
ATOM      5  C   UNL     1      38.180   0.252   4.785  0.00  0.00    +0.000 C 
ATOM      6  O   UNL     1      38.935  -0.712   4.947  0.00  0.00    +0.000 OA
ATOM      7  C   UNL     1      38.729   1.536   4.200  0.00  0.00    +0.000 C 
ENDROOT
BRANCH   1  10
ATOM      8  C   UNL     1      38.865   5.063   4.460  0.00  0.00    +0.000 C 
ATOM      9  O   UNL     1      38.947   5.116   5.680  0.00  0.00    +0.000 OA
ATOM     10  N   UNL     1      38.384   3.941   3.800  0.00  0.00    +0.000 N 
ATOM     11  H   UNL     1      38.107   4.024   2.830  0.00  0.00    +0.000 HD
BRANCH   8  15
ATOM     12  C   UNL     1      40.083   8.353   2.083  0.00  0.00    +0.000 A 
ATOM     13  C   UNL     1      41.049   7.679   2.801  0.00  0.00    +0.000 A 
ATOM     14  C   UNL     1      40.651   6.584   3.571  0.00  0.00    +0.000 A 
ATOM     15  C   UNL     1      39.302   6.194   3.597  0.00  0.00    +0.000 A 
ATOM     16  C   UNL     1      38.404   6.947   2.843  0.00  0.00    +0.000 A 
ATOM     17  N   UNL     1      38.788   8.002   2.085  0.00  0.00    +0.000 NA
BRANCH  12  19
ATOM     18  C   UNL     1      41.877   9.431   1.064  0.00  0.00    +0.000 C 
ATOM     19  O   UNL     1      40.476   9.448   1.347  0.00  0.00    +0.000 OA
ENDBRANCH  12  19
BRANCH  16  20
ATOM     20  O   UNL     1      37.065   6.624   2.811  0.00  0.00    +0.000 OA
ATOM     21  C   UNL     1      36.266   7.473   3.636  0.00  0.00    +0.000 C 
ENDBRANCH  16  20
ENDBRANCH   8  15
ENDBRANCH   1  10
BRANCH   4  22
ATOM     22  C   UNL     1      36.249  -1.106   5.458  0.00  0.00    +0.000 C 
BRANCH  22  23
ATOM     23  C   UNL     1      35.598  -1.033   6.845  0.00  0.00    +0.000 C 
BRANCH  23  24
ATOM     24  C   UNL     1      36.473  -1.389   8.028  0.00  0.00    +0.000 A 
ATOM     25  C   UNL     1      37.142  -2.578   8.243  0.00  0.00    +0.000 A 
ATOM     26  S   UNL     1      38.015  -2.606   9.716  0.00  0.00    +0.000 S 
ATOM     27  C   UNL     1      37.550  -1.012  10.090  0.00  0.00    +0.000 A 
ATOM     28  N   UNL     1      37.970  -0.396  11.228  0.00  0.00    +0.000 NA
ATOM     29  C   UNL     1      37.545   0.815  11.362  0.00  0.00    +0.000 A 
ATOM     30  N   UNL     1      36.734   1.469  10.466  0.00  0.00    +0.000 N 
ATOM     31  C   UNL     1      36.275   0.887   9.305  0.00  0.00    +0.000 A 
ATOM     32  O   UNL     1      35.548   1.491   8.526  0.00  0.00    +0.000 OA
ATOM     33  C   UNL     1      36.736  -0.476   9.113  0.00  0.00    +0.000 A 
ATOM     34  H   UNL     1      36.434   2.418  10.633  0.00  0.00    +0.000 HD
ENDBRANCH  23  24
ENDBRANCH  22  23
ENDBRANCH   4  22
TORSDOF 7
ENDMDL
MODEL 5
REMARK VINA RESULT:    -4.738      3.345      3.937
REMARK INTER + INTRA:          -7.536
REMARK INTER:                  -6.369
REMARK INTRA:                  -1.167
REMARK UNBOUND:                -0.859
REMARK  Name = 
REMARK  9 active torsions:
REMARK  status: ('A' for Active; 'I' for Inactive)
REMARK    1  A    between atoms: C_1  and  O_2
REMARK    2  A    between atoms: O_2  and  C_3
REMARK    3  A    between atoms: C_6  and  C_7
REMARK    4  A    between atoms: N_9  and  C_10
REMARK    5  A    between atoms: N_13  and  C_14
REMARK    6  A    between atoms: C_14  and  C_15
REMARK    7  A    between atoms: C_15  and  C_16
REMARK    8  A    between atoms: C_29  and  O_30
REMARK    9  A    between atoms: O_30  and  C_31
REMARK                            x       y       z     vdW  Elec       q    Type
REMARK                         _______ _______ _______ _____ _____    ______ ____
ROOT
ATOM      1  C   UNL     1      39.415  -3.196  11.146  0.00  0.00    +0.000 C 
ATOM      2  C   UNL     1      39.327  -4.553  10.468  0.00  0.00    +0.000 C 
ATOM      3  C   UNL     1      39.171  -4.328   8.979  0.00  0.00    +0.000 C 
ATOM      4  N   UNL     1      38.026  -3.482   8.656  0.00  0.00    +0.000 N 
ATOM      5  C   UNL     1      37.701  -2.384   9.447  0.00  0.00    +0.000 C 
ATOM      6  O   UNL     1      36.963  -1.475   9.055  0.00  0.00    +0.000 OA
ATOM      7  C   UNL     1      38.133  -2.415  10.898  0.00  0.00    +0.000 C 
ENDROOT
BRANCH   1  10
ATOM      8  C   UNL     1      40.935  -3.102  13.105  0.00  0.00    +0.000 C 
ATOM      9  O   UNL     1      41.870  -2.723  12.412  0.00  0.00    +0.000 OA
ATOM     10  N   UNL     1      39.675  -3.346  12.577  0.00  0.00    +0.000 N 
ATOM     11  H   UNL     1      39.010  -3.881  13.122  0.00  0.00    +0.000 HD
BRANCH   8  15
ATOM     12  C   UNL     1      41.258  -3.729  17.284  0.00  0.00    +0.000 A 
ATOM     13  C   UNL     1      41.919  -4.602  16.445  0.00  0.00    +0.000 A 
ATOM     14  C   UNL     1      41.827  -4.386  15.068  0.00  0.00    +0.000 A 
ATOM     15  C   UNL     1      41.081  -3.303  14.573  0.00  0.00    +0.000 A 
ATOM     16  C   UNL     1      40.444  -2.486  15.505  0.00  0.00    +0.000 A 
ATOM     17  N   UNL     1      40.541  -2.684  16.841  0.00  0.00    +0.000 NA
BRANCH  12  19
ATOM     18  C   UNL     1      40.658  -2.952  19.394  0.00  0.00    +0.000 C 
ATOM     19  O   UNL     1      41.330  -3.962  18.639  0.00  0.00    +0.000 OA
ENDBRANCH  12  19
BRANCH  16  20
ATOM     20  O   UNL     1      39.700  -1.400  15.099  0.00  0.00    +0.000 OA
ATOM     21  C   UNL     1      39.010  -0.762  16.175  0.00  0.00    +0.000 C 
ENDBRANCH  16  20
ENDBRANCH   8  15
ENDBRANCH   1  10
BRANCH   4  22
ATOM     22  C   UNL     1      37.543  -3.497   7.266  0.00  0.00    +0.000 C 
BRANCH  22  23
ATOM     23  C   UNL     1      38.596  -3.136   6.210  0.00  0.00    +0.000 C 
BRANCH  23  24
ATOM     24  C   UNL     1      39.023  -4.242   5.268  0.00  0.00    +0.000 A 
ATOM     25  C   UNL     1      39.063  -5.597   5.535  0.00  0.00    +0.000 A 
ATOM     26  S   UNL     1      39.626  -6.530   4.215  0.00  0.00    +0.000 S 
ATOM     27  C   UNL     1      39.797  -5.149   3.235  0.00  0.00    +0.000 A 
ATOM     28  N   UNL     1      40.231  -5.237   1.949  0.00  0.00    +0.000 NA
ATOM     29  C   UNL     1      40.293  -4.105   1.332  0.00  0.00    +0.000 A 
ATOM     30  N   UNL     1      39.967  -2.889   1.883  0.00  0.00    +0.000 N 
ATOM     31  C   UNL     1      39.531  -2.745   3.181  0.00  0.00    +0.000 A 
ATOM     32  O   UNL     1      39.251  -1.648   3.650  0.00  0.00    +0.000 OA
ATOM     33  C   UNL     1      39.441  -3.999   3.910  0.00  0.00    +0.000 A 
ATOM     34  H   UNL     1      40.041  -2.039   1.345  0.00  0.00    +0.000 HD
ENDBRANCH  23  24
ENDBRANCH  22  23
ENDBRANCH   4  22
TORSDOF 7
ENDMDL
MODEL 6
REMARK VINA RESULT:    -4.703      5.108     10.236
REMARK INTER + INTRA:          -7.487
REMARK INTER:                  -5.984
REMARK INTRA:                  -1.503
REMARK UNBOUND:                -0.859
REMARK  Name = 
REMARK  9 active torsions:
REMARK  status: ('A' for Active; 'I' for Inactive)
REMARK    1  A    between atoms: C_1  and  O_2
REMARK    2  A    between atoms: O_2  and  C_3
REMARK    3  A    between atoms: C_6  and  C_7
REMARK    4  A    between atoms: N_9  and  C_10
REMARK    5  A    between atoms: N_13  and  C_14
REMARK    6  A    between atoms: C_14  and  C_15
REMARK    7  A    between atoms: C_15  and  C_16
REMARK    8  A    between atoms: C_29  and  O_30
REMARK    9  A    between atoms: O_30  and  C_31
REMARK                            x       y       z     vdW  Elec       q    Type
REMARK                         _______ _______ _______ _____ _____    ______ ____
ROOT
ATOM      1  C   UNL     1      39.717  -3.158  15.276  0.00  0.00    +0.000 C 
ATOM      2  C   UNL     1      40.015  -1.692  15.546  0.00  0.00    +0.000 C 
ATOM      3  C   UNL     1      40.474  -1.561  16.983  0.00  0.00    +0.000 C 
ATOM      4  N   UNL     1      39.509  -2.105  17.933  0.00  0.00    +0.000 N 
ATOM      5  C   UNL     1      38.808  -3.274  17.651  0.00  0.00    +0.000 C 
ATOM      6  O   UNL     1      38.236  -3.935  18.524  0.00  0.00    +0.000 OA
ATOM      7  C   UNL     1      38.601  -3.631  16.194  0.00  0.00    +0.000 C 
ENDROOT
BRANCH   1  10
ATOM      8  C   UNL     1      40.282  -3.921  12.983  0.00  0.00    +0.000 C 
ATOM      9  O   UNL     1      41.394  -4.288  13.337  0.00  0.00    +0.000 OA
ATOM     10  N   UNL     1      39.371  -3.367  13.870  0.00  0.00    +0.000 N 
ATOM     11  H   UNL     1      38.573  -2.861  13.503  0.00  0.00    +0.000 HD
BRANCH   8  15
ATOM     12  C   UNL     1      39.066  -4.322   8.944  0.00  0.00    +0.000 A 
ATOM     13  C   UNL     1      39.442  -5.461   9.623  0.00  0.00    +0.000 A 
ATOM     14  C   UNL     1      39.827  -5.333  10.960  0.00  0.00    +0.000 A 
ATOM     15  C   UNL     1      39.820  -4.071  11.576  0.00  0.00    +0.000 A 
ATOM     16  C   UNL     1      39.431  -2.981  10.799  0.00  0.00    +0.000 A 
ATOM     17  N   UNL     1      39.045  -3.103   9.506  0.00  0.00    +0.000 NA
BRANCH  12  19
ATOM     18  C   UNL     1      38.074  -3.275   7.117  0.00  0.00    +0.000 C 
ATOM     19  O   UNL     1      38.714  -4.450   7.619  0.00  0.00    +0.000 OA
ENDBRANCH  12  19
BRANCH  16  20
ATOM     20  O   UNL     1      39.391  -1.712  11.333  0.00  0.00    +0.000 OA
ATOM     21  C   UNL     1      38.204  -0.997  10.987  0.00  0.00    +0.000 C 
ENDBRANCH  16  20
ENDBRANCH   8  15
ENDBRANCH   1  10
BRANCH   4  22
ATOM     22  C   UNL     1      39.649  -1.708  19.342  0.00  0.00    +0.000 C 
BRANCH  22  23
ATOM     23  C   UNL     1      38.549  -0.773  19.865  0.00  0.00    +0.000 C 
BRANCH  23  24
ATOM     24  C   UNL     1      38.874   0.705  19.904  0.00  0.00    +0.000 A 
ATOM     25  C   UNL     1      39.576   1.380  20.884  0.00  0.00    +0.000 A 
ATOM     26  S   UNL     1      39.717   3.059  20.581  0.00  0.00    +0.000 S 
ATOM     27  C   UNL     1      38.874   2.923  19.108  0.00  0.00    +0.000 A 
ATOM     28  N   UNL     1      38.649   4.005  18.314  0.00  0.00    +0.000 NA
ATOM     29  C   UNL     1      38.010   3.738  17.225  0.00  0.00    +0.000 A 
ATOM     30  N   UNL     1      37.567   2.490  16.856  0.00  0.00    +0.000 N 
ATOM     31  C   UNL     1      37.761   1.367  17.629  0.00  0.00    +0.000 A 
ATOM     32  O   UNL     1      37.351   0.266  17.279  0.00  0.00    +0.000 OA
ATOM     33  C   UNL     1      38.484   1.622  18.862  0.00  0.00    +0.000 A 
ATOM     34  H   UNL     1      37.069   2.351  15.991  0.00  0.00    +0.000 HD
ENDBRANCH  23  24
ENDBRANCH  22  23
ENDBRANCH   4  22
TORSDOF 7
ENDMDL
MODEL 7
REMARK VINA RESULT:    -4.582      1.813      2.579
REMARK INTER + INTRA:          -7.316
REMARK INTER:                  -6.157
REMARK INTRA:                  -1.159
REMARK UNBOUND:                -0.859
REMARK  Name = 
REMARK  9 active torsions:
REMARK  status: ('A' for Active; 'I' for Inactive)
REMARK    1  A    between atoms: C_1  and  O_2
REMARK    2  A    between atoms: O_2  and  C_3
REMARK    3  A    between atoms: C_6  and  C_7
REMARK    4  A    between atoms: N_9  and  C_10
REMARK    5  A    between atoms: N_13  and  C_14
REMARK    6  A    between atoms: C_14  and  C_15
REMARK    7  A    between atoms: C_15  and  C_16
REMARK    8  A    between atoms: C_29  and  O_30
REMARK    9  A    between atoms: O_30  and  C_31
REMARK                            x       y       z     vdW  Elec       q    Type
REMARK                         _______ _______ _______ _____ _____    ______ ____
ROOT
ATOM      1  C   UNL     1      38.990  -3.101  11.207  0.00  0.00    +0.000 C 
ATOM      2  C   UNL     1      38.867  -3.929   9.939  0.00  0.00    +0.000 C 
ATOM      3  C   UNL     1      38.317  -3.037   8.846  0.00  0.00    +0.000 C 
ATOM      4  N   UNL     1      37.050  -2.413   9.214  0.00  0.00    +0.000 N 
ATOM      5  C   UNL     1      36.830  -1.950  10.508  0.00  0.00    +0.000 C 
ATOM      6  O   UNL     1      35.931  -1.150  10.785  0.00  0.00    +0.000 OA
ATOM      7  C   UNL     1      37.618  -2.599  11.627  0.00  0.00    +0.000 C 
ENDROOT
BRANCH   1  10
ATOM      8  C   UNL     1      40.789  -3.446  12.882  0.00  0.00    +0.000 C 
ATOM      9  O   UNL     1      41.328  -2.389  12.579  0.00  0.00    +0.000 OA
ATOM     10  N   UNL     1      39.620  -3.878  12.275  0.00  0.00    +0.000 N 
ATOM     11  H   UNL     1      39.345  -4.848  12.374  0.00  0.00    +0.000 HD
BRANCH   8  15
ATOM     12  C   UNL     1      42.462  -5.926  15.883  0.00  0.00    +0.000 A 
ATOM     13  C   UNL     1      42.008  -4.678  16.253  0.00  0.00    +0.000 A 
ATOM     14  C   UNL     1      41.440  -3.866  15.268  0.00  0.00    +0.000 A 
ATOM     15  C   UNL     1      41.342  -4.328  13.945  0.00  0.00    +0.000 A 
ATOM     16  C   UNL     1      41.839  -5.602  13.674  0.00  0.00    +0.000 A 
ATOM     17  N   UNL     1      42.379  -6.397  14.629  0.00  0.00    +0.000 NA
BRANCH  12  19
ATOM     18  C   UNL     1      44.073  -6.016  17.561  0.00  0.00    +0.000 C 
ATOM     19  O   UNL     1      43.045  -6.711  16.852  0.00  0.00    +0.000 OA
ENDBRANCH  12  19
BRANCH  16  20
ATOM     20  O   UNL     1      41.773  -6.129  12.403  0.00  0.00    +0.000 OA
ATOM     21  C   UNL     1      42.625  -7.261  12.223  0.00  0.00    +0.000 C 
ENDBRANCH  16  20
ENDBRANCH   8  15
ENDBRANCH   1  10
BRANCH   4  22
ATOM     22  C   UNL     1      36.235  -1.844   8.130  0.00  0.00    +0.000 C 
BRANCH  22  23
ATOM     23  C   UNL     1      36.826  -0.597   7.459  0.00  0.00    +0.000 C 
BRANCH  23  24
ATOM     24  C   UNL     1      37.416  -0.781   6.078  0.00  0.00    +0.000 A 
ATOM     25  C   UNL     1      37.470  -1.949   5.342  0.00  0.00    +0.000 A 
ATOM     26  S   UNL     1      38.239  -1.759   3.825  0.00  0.00    +0.000 S 
ATOM     27  C   UNL     1      38.490  -0.097   4.095  0.00  0.00    +0.000 A 
ATOM     28  N   UNL     1      39.097   0.692   3.167  0.00  0.00    +0.000 NA
ATOM     29  C   UNL     1      39.200   1.932   3.513  0.00  0.00    +0.000 A 
ATOM     30  N   UNL     1      38.758   2.458   4.703  0.00  0.00    +0.000 N 
ATOM     31  C   UNL     1      38.146   1.700   5.677  0.00  0.00    +0.000 A 
ATOM     32  O   UNL     1      37.765   2.194   6.732  0.00  0.00    +0.000 OA
ATOM     33  C   UNL     1      38.004   0.298   5.325  0.00  0.00    +0.000 A 
ATOM     34  H   UNL     1      38.873   3.437   4.912  0.00  0.00    +0.000 HD
ENDBRANCH  23  24
ENDBRANCH  22  23
ENDBRANCH   4  22
TORSDOF 7
ENDMDL
MODEL 8
REMARK VINA RESULT:    -4.578      2.444      3.149
REMARK INTER + INTRA:          -7.310
REMARK INTER:                  -6.091
REMARK INTRA:                  -1.219
REMARK UNBOUND:                -0.859
REMARK  Name = 
REMARK  9 active torsions:
REMARK  status: ('A' for Active; 'I' for Inactive)
REMARK    1  A    between atoms: C_1  and  O_2
REMARK    2  A    between atoms: O_2  and  C_3
REMARK    3  A    between atoms: C_6  and  C_7
REMARK    4  A    between atoms: N_9  and  C_10
REMARK    5  A    between atoms: N_13  and  C_14
REMARK    6  A    between atoms: C_14  and  C_15
REMARK    7  A    between atoms: C_15  and  C_16
REMARK    8  A    between atoms: C_29  and  O_30
REMARK    9  A    between atoms: O_30  and  C_31
REMARK                            x       y       z     vdW  Elec       q    Type
REMARK                         _______ _______ _______ _____ _____    ______ ____
ROOT
ATOM      1  C   UNL     1      39.044  -2.828  11.641  0.00  0.00    +0.000 C 
ATOM      2  C   UNL     1      38.276  -4.040  11.139  0.00  0.00    +0.000 C 
ATOM      3  C   UNL     1      37.973  -3.830   9.670  0.00  0.00    +0.000 C 
ATOM      4  N   UNL     1      37.254  -2.585   9.417  0.00  0.00    +0.000 N 
ATOM      5  C   UNL     1      37.565  -1.424  10.118  0.00  0.00    +0.000 C 
ATOM      6  O   UNL     1      37.224  -0.301   9.733  0.00  0.00    +0.000 OA
ATOM      7  C   UNL     1      38.190  -1.580  11.489  0.00  0.00    +0.000 C 
ENDROOT
BRANCH   1  10
ATOM      8  C   UNL     1      40.804  -3.109  13.368  0.00  0.00    +0.000 C 
ATOM      9  O   UNL     1      41.694  -3.003  12.535  0.00  0.00    +0.000 OA
ATOM     10  N   UNL     1      39.462  -3.018  13.030  0.00  0.00    +0.000 N 
ATOM     11  H   UNL     1      38.767  -3.348  13.689  0.00  0.00    +0.000 HD
BRANCH   8  15
ATOM     12  C   UNL     1      41.561  -3.742  17.489  0.00  0.00    +0.000 A 
ATOM     13  C   UNL     1      41.988  -4.703  16.597  0.00  0.00    +0.000 A 
ATOM     14  C   UNL     1      41.754  -4.487  15.237  0.00  0.00    +0.000 A 
ATOM     15  C   UNL     1      41.105  -3.316  14.811  0.00  0.00    +0.000 A 
ATOM     16  C   UNL     1      40.706  -2.412  15.794  0.00  0.00    +0.000 A 
ATOM     17  N   UNL     1      40.942  -2.612  17.113  0.00  0.00    +0.000 NA
BRANCH  12  19
ATOM     18  C   UNL     1      40.706  -3.459  19.636  0.00  0.00    +0.000 C 
ATOM     19  O   UNL     1      41.770  -3.972  18.831  0.00  0.00    +0.000 OA
ENDBRANCH  12  19
BRANCH  16  20
ATOM     20  O   UNL     1      40.070  -1.238  15.456  0.00  0.00    +0.000 OA
ATOM     21  C   UNL     1      39.067  -0.855  16.398  0.00  0.00    +0.000 C 
ENDBRANCH  16  20
ENDBRANCH   8  15
ENDBRANCH   1  10
BRANCH   4  22
ATOM     22  C   UNL     1      36.577  -2.446   8.119  0.00  0.00    +0.000 C 
BRANCH  22  23
ATOM     23  C   UNL     1      37.366  -2.977   6.915  0.00  0.00    +0.000 C 
BRANCH  23  24
ATOM     24  C   UNL     1      37.779  -1.963   5.871  0.00  0.00    +0.000 A 
ATOM     25  C   UNL     1      37.545  -0.602   5.890  0.00  0.00    +0.000 A 
ATOM     26  S   UNL     1      38.151   0.210   4.510  0.00  0.00    +0.000 S 
ATOM     27  C   UNL     1      38.779  -1.235   3.864  0.00  0.00    +0.000 A 
ATOM     28  N   UNL     1      39.451  -1.253   2.681  0.00  0.00    +0.000 NA
ATOM     29  C   UNL     1      39.877  -2.420   2.333  0.00  0.00    +0.000 A 
ATOM     30  N   UNL     1      39.691  -3.575   3.054  0.00  0.00    +0.000 N 
ATOM     31  C   UNL     1      39.011  -3.611   4.251  0.00  0.00    +0.000 A 
ATOM     32  O   UNL     1      38.853  -4.655   4.872  0.00  0.00    +0.000 OA
ATOM     33  C   UNL     1      38.518  -2.314   4.683  0.00  0.00    +0.000 A 
ATOM     34  H   UNL     1      40.048  -4.458   2.723  0.00  0.00    +0.000 HD
ENDBRANCH  23  24
ENDBRANCH  22  23
ENDBRANCH   4  22
TORSDOF 7
ENDMDL
MODEL 9
REMARK VINA RESULT:    -4.531      4.590      5.891
REMARK INTER + INTRA:          -7.244
REMARK INTER:                  -5.807
REMARK INTRA:                  -1.437
REMARK UNBOUND:                -0.859
REMARK  Name = 
REMARK  9 active torsions:
REMARK  status: ('A' for Active; 'I' for Inactive)
REMARK    1  A    between atoms: C_1  and  O_2
REMARK    2  A    between atoms: O_2  and  C_3
REMARK    3  A    between atoms: C_6  and  C_7
REMARK    4  A    between atoms: N_9  and  C_10
REMARK    5  A    between atoms: N_13  and  C_14
REMARK    6  A    between atoms: C_14  and  C_15
REMARK    7  A    between atoms: C_15  and  C_16
REMARK    8  A    between atoms: C_29  and  O_30
REMARK    9  A    between atoms: O_30  and  C_31
REMARK                            x       y       z     vdW  Elec       q    Type
REMARK                         _______ _______ _______ _____ _____    ______ ____
ROOT
ATOM      1  C   UNL     1      39.452  -2.808  13.384  0.00  0.00    +0.000 C 
ATOM      2  C   UNL     1      40.365  -3.257  12.255  0.00  0.00    +0.000 C 
ATOM      3  C   UNL     1      39.882  -2.612  10.973  0.00  0.00    +0.000 C 
ATOM      4  N   UNL     1      38.481  -2.906  10.690  0.00  0.00    +0.000 N 
ATOM      5  C   UNL     1      37.537  -2.946  11.712  0.00  0.00    +0.000 C 
ATOM      6  O   UNL     1      36.322  -2.873  11.501  0.00  0.00    +0.000 OA
ATOM      7  C   UNL     1      38.030  -3.270  13.107  0.00  0.00    +0.000 C 
ENDROOT
BRANCH   1  10
ATOM      8  C   UNL     1      40.434  -2.451  15.635  0.00  0.00    +0.000 C 
ATOM      9  O   UNL     1      40.471  -1.239  15.470  0.00  0.00    +0.000 OA
ATOM     10  N   UNL     1      39.932  -3.313  14.671  0.00  0.00    +0.000 N 
ATOM     11  H   UNL     1      40.139  -4.302  14.740  0.00  0.00    +0.000 HD
BRANCH   8  15
ATOM     12  C   UNL     1      41.862  -4.185  19.228  0.00  0.00    +0.000 A 
ATOM     13  C   UNL     1      40.947  -3.158  19.323  0.00  0.00    +0.000 A 
ATOM     14  C   UNL     1      40.463  -2.597  18.139  0.00  0.00    +0.000 A 
ATOM     15  C   UNL     1      40.905  -3.083  16.897  0.00  0.00    +0.000 A 
ATOM     16  C   UNL     1      41.838  -4.119  16.911  0.00  0.00    +0.000 A 
ATOM     17  N   UNL     1      42.301  -4.674  18.057  0.00  0.00    +0.000 NA
BRANCH  12  19
ATOM     18  C   UNL     1      43.785  -4.702  20.434  0.00  0.00    +0.000 C 
ATOM     19  O   UNL     1      42.357  -4.717  20.398  0.00  0.00    +0.000 OA
ENDBRANCH  12  19
BRANCH  16  20
ATOM     20  O   UNL     1      42.315  -4.654  15.734  0.00  0.00    +0.000 OA
ATOM     21  C   UNL     1      42.272  -6.081  15.713  0.00  0.00    +0.000 C 
ENDBRANCH  16  20
ENDBRANCH   8  15
ENDBRANCH   1  10
BRANCH   4  22
ATOM     22  C   UNL     1      38.003  -2.669   9.319  0.00  0.00    +0.000 C 
BRANCH  22  23
ATOM     23  C   UNL     1      37.644  -3.934   8.529  0.00  0.00    +0.000 C 
BRANCH  23  24
ATOM     24  C   UNL     1      38.421  -5.189   8.865  0.00  0.00    +0.000 A 
ATOM     25  C   UNL     1      38.130  -6.112   9.852  0.00  0.00    +0.000 A 
ATOM     26  S   UNL     1      39.264  -7.392   9.937  0.00  0.00    +0.000 S 
ATOM     27  C   UNL     1      40.156  -6.767   8.628  0.00  0.00    +0.000 A 
ATOM     28  N   UNL     1      41.267  -7.396   8.159  0.00  0.00    +0.000 NA
ATOM     29  C   UNL     1      41.824  -6.807   7.154  0.00  0.00    +0.000 A 
ATOM     30  N   UNL     1      41.377  -5.643   6.576  0.00  0.00    +0.000 N 
ATOM     31  C   UNL     1      40.263  -4.965   7.019  0.00  0.00    +0.000 A 
ATOM     32  O   UNL     1      39.889  -3.925   6.489  0.00  0.00    +0.000 OA
ATOM     33  C   UNL     1      39.602  -5.598   8.146  0.00  0.00    +0.000 A 
ATOM     34  H   UNL     1      41.862  -5.233   5.793  0.00  0.00    +0.000 HD
ENDBRANCH  23  24
ENDBRANCH  22  23
ENDBRANCH   4  22
TORSDOF 7
ENDMDL
