MODEL 1
REMARK VINA RESULT:    -8.314      0.000      0.000
REMARK INTER + INTRA:         -13.121
REMARK INTER:                 -11.960
REMARK INTRA:                  -1.161
REMARK UNBOUND:                -1.161
REMARK  Name = 
REMARK  9 active torsions:
REMARK  status: ('A' for Active; 'I' for Inactive)
REMARK    1  A    between atoms: C_1  and  C_2
REMARK    2  A    between atoms: C_2  and  C_3
REMARK    3  A    between atoms: C_3  and  N_4
REMARK    4  A    between atoms: C_3  and  C_17
REMARK    5  A    between atoms: C_5  and  C_7
REMARK    6  A    between atoms: C_20  and  C_21
REMARK    7  A    between atoms: C_21  and  N_22
REMARK    8  A    between atoms: C_21  and  C_23
REMARK    9  A    between atoms: C_23  and  C_24
REMARK                            x       y       z     vdW  Elec       q    Type
REMARK                         _______ _______ _______ _____ _____    ______ ____
ROOT
ATOM      1  C   UNL     1      48.307   6.656  13.307  0.00  0.00    +0.000 C 
ENDROOT
BRANCH   1   2
ATOM      2  C   UNL     1      47.043   6.082  12.684  0.00  0.00    +0.000 A 
ATOM      3  C   UNL     1      46.324   6.744  11.681  0.00  0.00    +0.000 A 
ATOM      4  C   UNL     1      45.251   6.108  11.058  0.00  0.00    +0.000 A 
ATOM      5  C   UNL     1      44.924   4.807  11.438  0.00  0.00    +0.000 A 
ATOM      6  N   UNL     1      45.545   4.183  12.470  0.00  0.00    +0.000 NA
ATOM      7  C   UNL     1      46.590   4.819  13.048  0.00  0.00    +0.000 A 
BRANCH   5   8
ATOM      8  C   UNL     1      43.859   4.036  10.660  0.00  0.00    +0.000 C 
BRANCH   8   9
ATOM      9  N   UNL     1      42.655   3.835  11.491  0.00  0.00    +0.000 NA
ATOM     10  H   UNL     1      42.890   3.151  12.213  0.00  0.00    +0.000 HD
ATOM     11  H   UNL     1      41.919   3.410  10.930  0.00  0.00    +0.000 HD
ENDBRANCH   8   9
BRANCH   8  12
ATOM     12  C   UNL     1      44.361   2.673  10.107  0.00  0.00    +0.000 C 
BRANCH  12  13
ATOM     13  C   UNL     1      45.239   2.743   8.888  0.00  0.00    +0.000 A 
ATOM     14  C   UNL     1      45.967   1.649   8.459  0.00  0.00    +0.000 A 
ATOM     15  N   UNL     1      46.806   1.662   7.405  0.00  0.00    +0.000 NA
ATOM     16  C   UNL     1      46.909   2.836   6.768  0.00  0.00    +0.000 A 
ATOM     17  N   UNL     1      46.239   3.959   7.066  0.00  0.00    +0.000 NA
ATOM     18  C   UNL     1      45.410   3.882   8.128  0.00  0.00    +0.000 A 
ENDBRANCH  12  13
ENDBRANCH   8  12
ENDBRANCH   5   8
ENDBRANCH   1   2
BRANCH   1  19
ATOM     19  N   UNL     1      48.128   6.776  14.752  0.00  0.00    +0.000 N 
ATOM     20  C   UNL     1      49.162   6.750  15.656  0.00  0.00    +0.000 C 
ATOM     21  O   UNL     1      50.342   6.704  15.326  0.00  0.00    +0.000 OA
ATOM     22  H   UNL     1      47.213   6.510  15.097  0.00  0.00    +0.000 HD
BRANCH  20  23
ATOM     23  C   UNL     1      48.768   6.847  17.069  0.00  0.00    +0.000 A 
ATOM     24  C   UNL     1      48.314   8.055  17.580  0.00  0.00    +0.000 A 
ATOM     25  S   UNL     1      47.896   7.979  19.234  0.00  0.00    +0.000 S 
ATOM     26  C   UNL     1      48.350   6.342  19.330  0.00  0.00    +0.000 A 
ATOM     27  N   UNL     1      48.279   5.662  20.510  0.00  0.00    +0.000 NA
ATOM     28  C   UNL     1      48.691   4.439  20.441  0.00  0.00    +0.000 A 
ATOM     29  N   UNL     1      49.149   3.829  19.299  0.00  0.00    +0.000 N 
ATOM     30  C   UNL     1      49.192   4.458  18.082  0.00  0.00    +0.000 A 
ATOM     31  O   UNL     1      49.525   3.862  17.064  0.00  0.00    +0.000 OA
ATOM     32  C   UNL     1      48.779   5.851  18.112  0.00  0.00    +0.000 A 
ATOM     33  H   UNL     1      49.434   2.861  19.311  0.00  0.00    +0.000 HD
ENDBRANCH  20  23
ENDBRANCH   1  19
BRANCH   1  35
ATOM     34  C   UNL     1      49.885   7.962  11.738  0.00  0.00    +0.000 C 
ATOM     35  C   UNL     1      48.668   8.012  12.657  0.00  0.00    +0.000 C 
ENDBRANCH   1  35
TORSDOF 8
ENDMDL
MODEL 2
REMARK VINA RESULT:    -8.052      1.873      2.424
REMARK INTER + INTRA:         -12.744
REMARK INTER:                 -11.889
REMARK INTRA:                  -0.855
REMARK UNBOUND:                -1.161
REMARK  Name = 
REMARK  9 active torsions:
REMARK  status: ('A' for Active; 'I' for Inactive)
REMARK    1  A    between atoms: C_1  and  C_2
REMARK    2  A    between atoms: C_2  and  C_3
REMARK    3  A    between atoms: C_3  and  N_4
REMARK    4  A    between atoms: C_3  and  C_17
REMARK    5  A    between atoms: C_5  and  C_7
REMARK    6  A    between atoms: C_20  and  C_21
REMARK    7  A    between atoms: C_21  and  N_22
REMARK    8  A    between atoms: C_21  and  C_23
REMARK    9  A    between atoms: C_23  and  C_24
REMARK                            x       y       z     vdW  Elec       q    Type
REMARK                         _______ _______ _______ _____ _____    ______ ____
ROOT
ATOM      1  C   UNL     1      46.332   7.940  12.489  0.00  0.00    +0.000 C 
ENDROOT
BRANCH   1   2
ATOM      2  C   UNL     1      45.728   6.777  11.717  0.00  0.00    +0.000 A 
ATOM      3  C   UNL     1      46.150   6.420  10.431  0.00  0.00    +0.000 A 
ATOM      4  C   UNL     1      45.651   5.266   9.830  0.00  0.00    +0.000 A 
ATOM      5  C   UNL     1      44.747   4.473  10.535  0.00  0.00    +0.000 A 
ATOM      6  N   UNL     1      44.252   4.849  11.741  0.00  0.00    +0.000 NA
ATOM      7  C   UNL     1      44.764   5.967  12.306  0.00  0.00    +0.000 A 
BRANCH   5   8
ATOM      8  C   UNL     1      44.312   3.126   9.962  0.00  0.00    +0.000 C 
BRANCH   8   9
ATOM      9  N   UNL     1      43.389   2.441  10.889  0.00  0.00    +0.000 NA
ATOM     10  H   UNL     1      43.933   1.749  11.410  0.00  0.00    +0.000 HD
ATOM     11  H   UNL     1      42.700   1.913  10.358  0.00  0.00    +0.000 HD
ENDBRANCH   8   9
BRANCH   8  12
ATOM     12  C   UNL     1      45.502   2.191   9.605  0.00  0.00    +0.000 C 
BRANCH  12  13
ATOM     13  C   UNL     1      46.037   2.316   8.205  0.00  0.00    +0.000 A 
ATOM     14  C   UNL     1      46.796   1.314   7.631  0.00  0.00    +0.000 A 
ATOM     15  N   UNL     1      47.342   1.387   6.400  0.00  0.00    +0.000 NA
ATOM     16  C   UNL     1      47.107   2.526   5.734  0.00  0.00    +0.000 A 
ATOM     17  N   UNL     1      46.367   3.557   6.167  0.00  0.00    +0.000 NA
ATOM     18  C   UNL     1      45.842   3.423   7.403  0.00  0.00    +0.000 A 
ENDBRANCH  12  13
ENDBRANCH   8  12
ENDBRANCH   5   8
ENDBRANCH   1   2
BRANCH   1  19
ATOM     19  N   UNL     1      46.932   7.446  13.727  0.00  0.00    +0.000 N 
ATOM     20  C   UNL     1      48.205   6.939  13.812  0.00  0.00    +0.000 C 
ATOM     21  O   UNL     1      48.988   6.926  12.868  0.00  0.00    +0.000 OA
ATOM     22  H   UNL     1      46.271   7.146  14.435  0.00  0.00    +0.000 HD
BRANCH  20  23
ATOM     23  C   UNL     1      48.606   6.459  15.142  0.00  0.00    +0.000 A 
ATOM     24  C   UNL     1      49.580   7.139  15.860  0.00  0.00    +0.000 A 
ATOM     25  S   UNL     1      49.912   6.444  17.383  0.00  0.00    +0.000 S 
ATOM     26  C   UNL     1      48.798   5.186  17.114  0.00  0.00    +0.000 A 
ATOM     27  N   UNL     1      48.619   4.196  18.035  0.00  0.00    +0.000 NA
ATOM     28  C   UNL     1      47.769   3.290  17.680  0.00  0.00    +0.000 A 
ATOM     29  N   UNL     1      47.069   3.292  16.499  0.00  0.00    +0.000 N 
ATOM     30  C   UNL     1      47.180   4.291  15.566  0.00  0.00    +0.000 A 
ATOM     31  O   UNL     1      46.478   4.309  14.561  0.00  0.00    +0.000 OA
ATOM     32  C   UNL     1      48.155   5.315  15.897  0.00  0.00    +0.000 A 
ATOM     33  H   UNL     1      46.401   2.563  16.294  0.00  0.00    +0.000 HD
ENDBRANCH  20  23
ENDBRANCH   1  19
BRANCH   1  35
ATOM     34  C   UNL     1      44.588   9.565  11.504  0.00  0.00    +0.000 C 
ATOM     35  C   UNL     1      45.268   9.029  12.759  0.00  0.00    +0.000 C 
ENDBRANCH   1  35
TORSDOF 8
ENDMDL
MODEL 3
REMARK VINA RESULT:    -7.974      1.416      2.108
REMARK INTER + INTRA:         -12.631
REMARK INTER:                 -11.483
REMARK INTRA:                  -1.148
REMARK UNBOUND:                -1.161
REMARK  Name = 
REMARK  9 active torsions:
REMARK  status: ('A' for Active; 'I' for Inactive)
REMARK    1  A    between atoms: C_1  and  C_2
REMARK    2  A    between atoms: C_2  and  C_3
REMARK    3  A    between atoms: C_3  and  N_4
REMARK    4  A    between atoms: C_3  and  C_17
REMARK    5  A    between atoms: C_5  and  C_7
REMARK    6  A    between atoms: C_20  and  C_21
REMARK    7  A    between atoms: C_21  and  N_22
REMARK    8  A    between atoms: C_21  and  C_23
REMARK    9  A    between atoms: C_23  and  C_24
REMARK                            x       y       z     vdW  Elec       q    Type
REMARK                         _______ _______ _______ _____ _____    ______ ____
ROOT
ATOM      1  C   UNL     1      47.852   6.905  13.644  0.00  0.00    +0.000 C 
ENDROOT
BRANCH   1   2
ATOM      2  C   UNL     1      46.952   6.015  12.802  0.00  0.00    +0.000 A 
ATOM      3  C   UNL     1      46.471   4.779  13.253  0.00  0.00    +0.000 A 
ATOM      4  C   UNL     1      45.546   4.071  12.489  0.00  0.00    +0.000 A 
ATOM      5  C   UNL     1      45.098   4.622  11.289  0.00  0.00    +0.000 A 
ATOM      6  N   UNL     1      45.619   5.769  10.787  0.00  0.00    +0.000 NA
ATOM      7  C   UNL     1      46.507   6.441  11.556  0.00  0.00    +0.000 A 
BRANCH   5   8
ATOM      8  C   UNL     1      43.968   3.941  10.518  0.00  0.00    +0.000 C 
BRANCH   8   9
ATOM      9  N   UNL     1      42.787   3.755  11.385  0.00  0.00    +0.000 NA
ATOM     10  H   UNL     1      41.957   3.824  10.793  0.00  0.00    +0.000 HD
ATOM     11  H   UNL     1      42.724   4.525  12.048  0.00  0.00    +0.000 HD
ENDBRANCH   8   9
BRANCH   8  12
ATOM     12  C   UNL     1      44.382   2.586   9.880  0.00  0.00    +0.000 C 
BRANCH  12  13
ATOM     13  C   UNL     1      45.316   2.672   8.705  0.00  0.00    +0.000 A 
ATOM     14  C   UNL     1      46.137   1.616   8.356  0.00  0.00    +0.000 A 
ATOM     15  N   UNL     1      47.028   1.649   7.345  0.00  0.00    +0.000 NA
ATOM     16  C   UNL     1      47.085   2.804   6.668  0.00  0.00    +0.000 A 
ATOM     17  N   UNL     1      46.327   3.889   6.888  0.00  0.00    +0.000 NA
ATOM     18  C   UNL     1      45.450   3.792   7.909  0.00  0.00    +0.000 A 
ENDBRANCH  12  13
ENDBRANCH   8  12
ENDBRANCH   5   8
ENDBRANCH   1   2
BRANCH   1  19
ATOM     19  N   UNL     1      47.844   6.438  15.029  0.00  0.00    +0.000 N 
ATOM     20  C   UNL     1      48.972   6.318  15.804  0.00  0.00    +0.000 C 
ATOM     21  O   UNL     1      50.085   6.667  15.428  0.00  0.00    +0.000 OA
ATOM     22  H   UNL     1      47.050   5.862  15.284  0.00  0.00    +0.000 HD
BRANCH  20  23
ATOM     23  C   UNL     1      48.753   5.793  17.159  0.00  0.00    +0.000 A 
ATOM     24  C   UNL     1      48.938   4.442  17.417  0.00  0.00    +0.000 A 
ATOM     25  S   UNL     1      48.647   4.015  19.044  0.00  0.00    +0.000 S 
ATOM     26  C   UNL     1      48.221   5.612  19.446  0.00  0.00    +0.000 A 
ATOM     27  N   UNL     1      47.816   5.936  20.707  0.00  0.00    +0.000 NA
ATOM     28  C   UNL     1      47.490   7.177  20.856  0.00  0.00    +0.000 A 
ATOM     29  N   UNL     1      47.548   8.128  19.867  0.00  0.00    +0.000 N 
ATOM     30  C   UNL     1      47.994   7.858  18.599  0.00  0.00    +0.000 A 
ATOM     31  O   UNL     1      48.116   8.746  17.761  0.00  0.00    +0.000 OA
ATOM     32  C   UNL     1      48.335   6.465  18.365  0.00  0.00    +0.000 A 
ATOM     33  H   UNL     1      47.300   9.087  20.058  0.00  0.00    +0.000 HD
ENDBRANCH  20  23
ENDBRANCH   1  19
BRANCH   1  35
ATOM     34  C   UNL     1      48.515   9.389  13.862  0.00  0.00    +0.000 C 
ATOM     35  C   UNL     1      47.416   8.384  13.533  0.00  0.00    +0.000 C 
ENDBRANCH   1  35
TORSDOF 8
ENDMDL
MODEL 4
REMARK VINA RESULT:    -7.210      2.460      4.764
REMARK INTER + INTRA:         -11.531
REMARK INTER:                 -10.048
REMARK INTRA:                  -1.483
REMARK UNBOUND:                -1.161
REMARK  Name = 
REMARK  9 active torsions:
REMARK  status: ('A' for Active; 'I' for Inactive)
REMARK    1  A    between atoms: C_1  and  C_2
REMARK    2  A    between atoms: C_2  and  C_3
REMARK    3  A    between atoms: C_3  and  N_4
REMARK    4  A    between atoms: C_3  and  C_17
REMARK    5  A    between atoms: C_5  and  C_7
REMARK    6  A    between atoms: C_20  and  C_21
REMARK    7  A    between atoms: C_21  and  N_22
REMARK    8  A    between atoms: C_21  and  C_23
REMARK    9  A    between atoms: C_23  and  C_24
REMARK                            x       y       z     vdW  Elec       q    Type
REMARK                         _______ _______ _______ _____ _____    ______ ____
ROOT
ATOM      1  C   UNL     1      47.489   5.363  15.145  0.00  0.00    +0.000 C 
ENDROOT
BRANCH   1   2
ATOM      2  C   UNL     1      46.704   4.934  13.915  0.00  0.00    +0.000 A 
ATOM      3  C   UNL     1      46.551   3.592  13.543  0.00  0.00    +0.000 A 
ATOM      4  C   UNL     1      45.712   3.255  12.483  0.00  0.00    +0.000 A 
ATOM      5  C   UNL     1      45.021   4.267  11.819  0.00  0.00    +0.000 A 
ATOM      6  N   UNL     1      45.226   5.579  12.100  0.00  0.00    +0.000 NA
ATOM      7  C   UNL     1      46.036   5.876  13.142  0.00  0.00    +0.000 A 
BRANCH   5   8
ATOM      8  C   UNL     1      43.978   3.907  10.764  0.00  0.00    +0.000 C 
BRANCH   8   9
ATOM      9  N   UNL     1      42.638   3.801  11.374  0.00  0.00    +0.000 NA
ATOM     10  H   UNL     1      42.673   3.049  12.066  0.00  0.00    +0.000 HD
ATOM     11  H   UNL     1      41.964   3.503  10.671  0.00  0.00    +0.000 HD
ENDBRANCH   8   9
BRANCH   8  12
ATOM     12  C   UNL     1      44.313   2.607   9.980  0.00  0.00    +0.000 C 
BRANCH  12  13
ATOM     13  C   UNL     1      45.302   2.755   8.856  0.00  0.00    +0.000 A 
ATOM     14  C   UNL     1      45.511   3.973   8.235  0.00  0.00    +0.000 A 
ATOM     15  N   UNL     1      46.346   4.160   7.194  0.00  0.00    +0.000 NA
ATOM     16  C   UNL     1      46.987   3.063   6.769  0.00  0.00    +0.000 A 
ATOM     17  N   UNL     1      46.893   1.835   7.300  0.00  0.00    +0.000 NA
ATOM     18  C   UNL     1      46.047   1.712   8.344  0.00  0.00    +0.000 A 
ENDBRANCH  12  13
ENDBRANCH   8  12
ENDBRANCH   5   8
ENDBRANCH   1   2
BRANCH   1  19
ATOM     19  N   UNL     1      48.718   6.035  14.731  0.00  0.00    +0.000 N 
ATOM     20  C   UNL     1      49.282   7.088  15.408  0.00  0.00    +0.000 C 
ATOM     21  O   UNL     1      48.845   7.513  16.472  0.00  0.00    +0.000 OA
ATOM     22  H   UNL     1      48.944   5.952  13.746  0.00  0.00    +0.000 HD
BRANCH  20  23
ATOM     23  C   UNL     1      50.499   7.649  14.805  0.00  0.00    +0.000 A 
ATOM     24  C   UNL     1      51.690   7.648  15.519  0.00  0.00    +0.000 A 
ATOM     25  S   UNL     1      52.997   8.331  14.660  0.00  0.00    +0.000 S 
ATOM     26  C   UNL     1      52.005   8.691  13.325  0.00  0.00    +0.000 A 
ATOM     27  N   UNL     1      52.505   9.335  12.232  0.00  0.00    +0.000 NA
ATOM     28  C   UNL     1      51.629   9.573  11.312  0.00  0.00    +0.000 A 
ATOM     29  N   UNL     1      50.306   9.212  11.377  0.00  0.00    +0.000 N 
ATOM     30  C   UNL     1      49.772   8.521  12.433  0.00  0.00    +0.000 A 
ATOM     31  O   UNL     1      48.607   8.136  12.424  0.00  0.00    +0.000 OA
ATOM     32  C   UNL     1      50.705   8.263  13.516  0.00  0.00    +0.000 A 
ATOM     33  H   UNL     1      49.680   9.409  10.611  0.00  0.00    +0.000 HD
ENDBRANCH  20  23
ENDBRANCH   1  19
BRANCH   1  35
ATOM     34  C   UNL     1      47.109   4.227  17.430  0.00  0.00    +0.000 C 
ATOM     35  C   UNL     1      47.776   4.150  16.060  0.00  0.00    +0.000 C 
ENDBRANCH   1  35
TORSDOF 8
ENDMDL
MODEL 5
REMARK VINA RESULT:    -7.200      1.889      2.803
REMARK INTER + INTRA:         -11.517
REMARK INTER:                 -10.361
REMARK INTRA:                  -1.156
REMARK UNBOUND:                -1.161
REMARK  Name = 
REMARK  9 active torsions:
REMARK  status: ('A' for Active; 'I' for Inactive)
REMARK    1  A    between atoms: C_1  and  C_2
REMARK    2  A    between atoms: C_2  and  C_3
REMARK    3  A    between atoms: C_3  and  N_4
REMARK    4  A    between atoms: C_3  and  C_17
REMARK    5  A    between atoms: C_5  and  C_7
REMARK    6  A    between atoms: C_20  and  C_21
REMARK    7  A    between atoms: C_21  and  N_22
REMARK    8  A    between atoms: C_21  and  C_23
REMARK    9  A    between atoms: C_23  and  C_24
REMARK                            x       y       z     vdW  Elec       q    Type
REMARK                         _______ _______ _______ _____ _____    ______ ____
ROOT
ATOM      1  C   UNL     1      48.347   6.826  13.887  0.00  0.00    +0.000 C 
ENDROOT
BRANCH   1   2
ATOM      2  C   UNL     1      47.039   6.128  13.550  0.00  0.00    +0.000 A 
ATOM      3  C   UNL     1      45.975   6.777  12.912  0.00  0.00    +0.000 A 
ATOM      4  C   UNL     1      44.855   6.051  12.512  0.00  0.00    +0.000 A 
ATOM      5  C   UNL     1      44.824   4.676  12.739  0.00  0.00    +0.000 A 
ATOM      6  N   UNL     1      45.798   4.043  13.438  0.00  0.00    +0.000 NA
ATOM      7  C   UNL     1      46.879   4.770  13.804  0.00  0.00    +0.000 A 
BRANCH   5   8
ATOM      8  C   UNL     1      43.682   3.839  12.168  0.00  0.00    +0.000 C 
BRANCH   8   9
ATOM      9  N   UNL     1      43.950   2.399  12.353  0.00  0.00    +0.000 NA
ATOM     10  H   UNL     1      44.650   2.124  11.660  0.00  0.00    +0.000 HD
ATOM     11  H   UNL     1      43.113   1.863  12.134  0.00  0.00    +0.000 HD
ENDBRANCH   8   9
BRANCH   8  12
ATOM     12  C   UNL     1      43.383   4.139  10.672  0.00  0.00    +0.000 C 
BRANCH  12  13
ATOM     13  C   UNL     1      44.426   3.681   9.690  0.00  0.00    +0.000 A 
ATOM     14  C   UNL     1      45.186   4.585   8.971  0.00  0.00    +0.000 A 
ATOM     15  N   UNL     1      46.101   4.238   8.045  0.00  0.00    +0.000 NA
ATOM     16  C   UNL     1      46.243   2.922   7.842  0.00  0.00    +0.000 A 
ATOM     17  N   UNL     1      45.589   1.946   8.490  0.00  0.00    +0.000 NA
ATOM     18  C   UNL     1      44.690   2.355   9.410  0.00  0.00    +0.000 A 
ENDBRANCH  12  13
ENDBRANCH   8  12
ENDBRANCH   5   8
ENDBRANCH   1   2
BRANCH   1  19
ATOM     19  N   UNL     1      48.311   7.290  15.272  0.00  0.00    +0.000 N 
ATOM     20  C   UNL     1      48.837   6.589  16.329  0.00  0.00    +0.000 C 
ATOM     21  O   UNL     1      49.459   5.540  16.196  0.00  0.00    +0.000 OA
ATOM     22  H   UNL     1      47.574   7.954  15.485  0.00  0.00    +0.000 HD
BRANCH  20  23
ATOM     23  C   UNL     1      48.664   7.211  17.649  0.00  0.00    +0.000 A 
ATOM     24  C   UNL     1      48.014   6.519  18.662  0.00  0.00    +0.000 A 
ATOM     25  S   UNL     1      47.911   7.392  20.125  0.00  0.00    +0.000 S 
ATOM     26  C   UNL     1      48.690   8.741  19.439  0.00  0.00    +0.000 A 
ATOM     27  N   UNL     1      48.888   9.880  20.161  0.00  0.00    +0.000 NA
ATOM     28  C   UNL     1      49.459  10.833  19.501  0.00  0.00    +0.000 A 
ATOM     29  N   UNL     1      49.866  10.746  18.192  0.00  0.00    +0.000 N 
ATOM     30  C   UNL     1      49.731   9.605  17.443  0.00  0.00    +0.000 A 
ATOM     31  O   UNL     1      50.182   9.530  16.305  0.00  0.00    +0.000 OA
ATOM     32  C   UNL     1      49.057   8.514  18.126  0.00  0.00    +0.000 A 
ATOM     33  H   UNL     1      50.327  11.523  17.743  0.00  0.00    +0.000 HD
ENDBRANCH  20  23
ENDBRANCH   1  19
BRANCH   1  35
ATOM     34  C   UNL     1      49.625   7.649  11.802  0.00  0.00    +0.000 C 
ATOM     35  C   UNL     1      48.618   7.984  12.899  0.00  0.00    +0.000 C 
ENDBRANCH   1  35
TORSDOF 8
ENDMDL
MODEL 6
REMARK VINA RESULT:    -7.172      3.085      8.269
REMARK INTER + INTRA:         -11.478
REMARK INTER:                 -10.266
REMARK INTRA:                  -1.212
REMARK UNBOUND:                -1.161
REMARK  Name = 
REMARK  9 active torsions:
REMARK  status: ('A' for Active; 'I' for Inactive)
REMARK    1  A    between atoms: C_1  and  C_2
REMARK    2  A    between atoms: C_2  and  C_3
REMARK    3  A    between atoms: C_3  and  N_4
REMARK    4  A    between atoms: C_3  and  C_17
REMARK    5  A    between atoms: C_5  and  C_7
REMARK    6  A    between atoms: C_20  and  C_21
REMARK    7  A    between atoms: C_21  and  N_22
REMARK    8  A    between atoms: C_21  and  C_23
REMARK    9  A    between atoms: C_23  and  C_24
REMARK                            x       y       z     vdW  Elec       q    Type
REMARK                         _______ _______ _______ _____ _____    ______ ____
ROOT
ATOM      1  C   UNL     1      47.681   8.030  12.556  0.00  0.00    +0.000 C 
ENDROOT
BRANCH   1   2
ATOM      2  C   UNL     1      48.343   7.956  13.924  0.00  0.00    +0.000 A 
ATOM      3  C   UNL     1      47.948   8.759  15.001  0.00  0.00    +0.000 A 
ATOM      4  C   UNL     1      48.503   8.552  16.263  0.00  0.00    +0.000 A 
ATOM      5  C   UNL     1      49.432   7.528  16.434  0.00  0.00    +0.000 A 
ATOM      6  N   UNL     1      49.898   6.801  15.387  0.00  0.00    +0.000 NA
ATOM      7  C   UNL     1      49.334   7.015  14.177  0.00  0.00    +0.000 A 
BRANCH   5   8
ATOM      8  C   UNL     1      49.930   7.181  17.835  0.00  0.00    +0.000 C 
BRANCH   8   9
ATOM      9  N   UNL     1      51.300   6.634  17.779  0.00  0.00    +0.000 NA
ATOM     10  H   UNL     1      51.683   6.856  16.857  0.00  0.00    +0.000 HD
ATOM     11  H   UNL     1      51.266   5.618  17.832  0.00  0.00    +0.000 HD
ENDBRANCH   8   9
BRANCH   8  12
ATOM     12  C   UNL     1      48.995   6.202  18.600  0.00  0.00    +0.000 C 
BRANCH  12  13
ATOM     13  C   UNL     1      48.625   4.942  17.867  0.00  0.00    +0.000 A 
ATOM     14  C   UNL     1      47.313   4.659  17.534  0.00  0.00    +0.000 A 
ATOM     15  N   UNL     1      46.913   3.528  16.921  0.00  0.00    +0.000 NA
ATOM     16  C   UNL     1      47.887   2.651  16.642  0.00  0.00    +0.000 A 
ATOM     17  N   UNL     1      49.195   2.816  16.888  0.00  0.00    +0.000 NA
ATOM     18  C   UNL     1      49.534   3.972  17.497  0.00  0.00    +0.000 A 
ENDBRANCH  12  13
ENDBRANCH   8  12
ENDBRANCH   5   8
ENDBRANCH   1   2
BRANCH   1  19
ATOM     19  N   UNL     1      46.880   6.828  12.335  0.00  0.00    +0.000 N 
ATOM     20  C   UNL     1      45.620   6.837  11.789  0.00  0.00    +0.000 C 
ATOM     21  O   UNL     1      45.080   7.852  11.363  0.00  0.00    +0.000 OA
ATOM     22  H   UNL     1      47.119   6.038  12.923  0.00  0.00    +0.000 HD
BRANCH  20  23
ATOM     23  C   UNL     1      44.967   5.524  11.686  0.00  0.00    +0.000 A 
ATOM     24  C   UNL     1      44.267   5.011  12.769  0.00  0.00    +0.000 A 
ATOM     25  S   UNL     1      43.571   3.482  12.466  0.00  0.00    +0.000 S 
ATOM     26  C   UNL     1      44.220   3.436  10.894  0.00  0.00    +0.000 A 
ATOM     27  N   UNL     1      44.031   2.354  10.087  0.00  0.00    +0.000 NA
ATOM     28  C   UNL     1      44.612   2.443   8.936  0.00  0.00    +0.000 A 
ATOM     29  N   UNL     1      45.348   3.522   8.511  0.00  0.00    +0.000 N 
ATOM     30  C   UNL     1      45.524   4.650   9.269  0.00  0.00    +0.000 A 
ATOM     31  O   UNL     1      46.114   5.632   8.829  0.00  0.00    +0.000 OA
ATOM     32  C   UNL     1      44.926   4.586  10.592  0.00  0.00    +0.000 A 
ATOM     33  H   UNL     1      45.757   3.536   7.589  0.00  0.00    +0.000 HD
ENDBRANCH  20  23
ENDBRANCH   1  19
BRANCH   1  35
ATOM     34  C   UNL     1      49.423   9.593  11.469  0.00  0.00    +0.000 C 
ATOM     35  C   UNL     1      48.741   8.229  11.448  0.00  0.00    +0.000 C 
ENDBRANCH   1  35
TORSDOF 8
ENDMDL
MODEL 7
REMARK VINA RESULT:    -7.090      3.245      8.737
REMARK INTER + INTRA:         -11.360
REMARK INTER:                 -10.170
REMARK INTRA:                  -1.190
REMARK UNBOUND:                -1.161
REMARK  Name = 
REMARK  9 active torsions:
REMARK  status: ('A' for Active; 'I' for Inactive)
REMARK    1  A    between atoms: C_1  and  C_2
REMARK    2  A    between atoms: C_2  and  C_3
REMARK    3  A    between atoms: C_3  and  N_4
REMARK    4  A    between atoms: C_3  and  C_17
REMARK    5  A    between atoms: C_5  and  C_7
REMARK    6  A    between atoms: C_20  and  C_21
REMARK    7  A    between atoms: C_21  and  N_22
REMARK    8  A    between atoms: C_21  and  C_23
REMARK    9  A    between atoms: C_23  and  C_24
REMARK                            x       y       z     vdW  Elec       q    Type
REMARK                         _______ _______ _______ _____ _____    ______ ____
ROOT
ATOM      1  C   UNL     1      47.570   7.218  12.844  0.00  0.00    +0.000 C 
ENDROOT
BRANCH   1   2
ATOM      2  C   UNL     1      48.244   6.757  14.127  0.00  0.00    +0.000 A 
ATOM      3  C   UNL     1      49.176   7.541  14.818  0.00  0.00    +0.000 A 
ATOM      4  C   UNL     1      49.659   7.120  16.056  0.00  0.00    +0.000 A 
ATOM      5  C   UNL     1      49.185   5.925  16.595  0.00  0.00    +0.000 A 
ATOM      6  N   UNL     1      48.356   5.104  15.903  0.00  0.00    +0.000 NA
ATOM      7  C   UNL     1      47.894   5.544  14.709  0.00  0.00    +0.000 A 
BRANCH   5   8
ATOM      8  C   UNL     1      49.578   5.527  18.016  0.00  0.00    +0.000 C 
BRANCH   8   9
ATOM      9  N   UNL     1      49.254   6.609  18.967  0.00  0.00    +0.000 NA
ATOM     10  H   UNL     1      49.245   7.487  18.443  0.00  0.00    +0.000 HD
ATOM     11  H   UNL     1      50.002   6.698  19.652  0.00  0.00    +0.000 HD
ENDBRANCH   8   9
BRANCH   8  12
ATOM     12  C   UNL     1      51.073   5.122  18.155  0.00  0.00    +0.000 C 
BRANCH  12  13
ATOM     13  C   UNL     1      51.380   3.665  17.945  0.00  0.00    +0.000 A 
ATOM     14  C   UNL     1      52.629   3.144  18.225  0.00  0.00    +0.000 A 
ATOM     15  N   UNL     1      52.980   1.860  18.014  0.00  0.00    +0.000 NA
ATOM     16  C   UNL     1      52.022   1.081  17.494  0.00  0.00    +0.000 A 
ATOM     17  N   UNL     1      50.767   1.457  17.204  0.00  0.00    +0.000 NA
ATOM     18  C   UNL     1      50.474   2.752  17.443  0.00  0.00    +0.000 A 
ENDBRANCH  12  13
ENDBRANCH   8  12
ENDBRANCH   5   8
ENDBRANCH   1   2
BRANCH   1  19
ATOM     19  N   UNL     1      46.781   6.123  12.286  0.00  0.00    +0.000 N 
ATOM     20  C   UNL     1      45.408   6.100  12.264  0.00  0.00    +0.000 C 
ATOM     21  O   UNL     1      44.715   7.039  12.643  0.00  0.00    +0.000 OA
ATOM     22  H   UNL     1      47.253   5.226  12.249  0.00  0.00    +0.000 HD
BRANCH  20  23
ATOM     23  C   UNL     1      44.804   4.888  11.692  0.00  0.00    +0.000 A 
ATOM     24  C   UNL     1      44.001   4.076  12.480  0.00  0.00    +0.000 A 
ATOM     25  S   UNL     1      43.382   2.720  11.648  0.00  0.00    +0.000 S 
ATOM     26  C   UNL     1      44.204   3.150  10.222  0.00  0.00    +0.000 A 
ATOM     27  N   UNL     1      44.133   2.368   9.107  0.00  0.00    +0.000 NA
ATOM     28  C   UNL     1      44.836   2.799   8.113  0.00  0.00    +0.000 A 
ATOM     29  N   UNL     1      45.588   3.948   8.123  0.00  0.00    +0.000 N 
ATOM     30  C   UNL     1      45.649   4.790   9.204  0.00  0.00    +0.000 A 
ATOM     31  O   UNL     1      46.260   5.852   9.154  0.00  0.00    +0.000 OA
ATOM     32  C   UNL     1      44.909   4.330  10.367  0.00  0.00    +0.000 A 
ATOM     33  H   UNL     1      46.096   4.240   7.302  0.00  0.00    +0.000 HD
ENDBRANCH  20  23
ENDBRANCH   1  19
BRANCH   1  35
ATOM     34  C   UNL     1      48.675   9.266  11.730  0.00  0.00    +0.000 C 
ATOM     35  C   UNL     1      48.617   7.746  11.836  0.00  0.00    +0.000 C 
ENDBRANCH   1  35
TORSDOF 8
ENDMDL
MODEL 8
REMARK VINA RESULT:    -7.050      2.621      3.606
REMARK INTER + INTRA:         -11.302
REMARK INTER:                 -10.248
REMARK INTRA:                  -1.053
REMARK UNBOUND:                -1.161
REMARK  Name = 
REMARK  9 active torsions:
REMARK  status: ('A' for Active; 'I' for Inactive)
REMARK    1  A    between atoms: C_1  and  C_2
REMARK    2  A    between atoms: C_2  and  C_3
REMARK    3  A    between atoms: C_3  and  N_4
REMARK    4  A    between atoms: C_3  and  C_17
REMARK    5  A    between atoms: C_5  and  C_7
REMARK    6  A    between atoms: C_20  and  C_21
REMARK    7  A    between atoms: C_21  and  N_22
REMARK    8  A    between atoms: C_21  and  C_23
REMARK    9  A    between atoms: C_23  and  C_24
REMARK                            x       y       z     vdW  Elec       q    Type
REMARK                         _______ _______ _______ _____ _____    ______ ____
ROOT
ATOM      1  C   UNL     1      47.152   5.089  14.999  0.00  0.00    +0.000 C 
ENDROOT
BRANCH   1   2
ATOM      2  C   UNL     1      46.420   4.974  13.671  0.00  0.00    +0.000 A 
ATOM      3  C   UNL     1      46.279   6.052  12.787  0.00  0.00    +0.000 A 
ATOM      4  C   UNL     1      45.715   5.851  11.529  0.00  0.00    +0.000 A 
ATOM      5  C   UNL     1      45.317   4.567  11.163  0.00  0.00    +0.000 A 
ATOM      6  N   UNL     1      45.357   3.528  12.035  0.00  0.00    +0.000 NA
ATOM      7  C   UNL     1      45.920   3.749  13.245  0.00  0.00    +0.000 A 
BRANCH   5   8
ATOM      8  C   UNL     1      44.847   4.296   9.736  0.00  0.00    +0.000 C 
BRANCH   8   9
ATOM      9  N   UNL     1      43.464   4.777   9.545  0.00  0.00    +0.000 NA
ATOM     10  H   UNL     1      43.335   5.591  10.150  0.00  0.00    +0.000 HD
ATOM     11  H   UNL     1      42.808   4.073   9.878  0.00  0.00    +0.000 HD
ENDBRANCH   8   9
BRANCH   8  12
ATOM     12  C   UNL     1      44.956   2.802   9.320  0.00  0.00    +0.000 C 
BRANCH  12  13
ATOM     13  C   UNL     1      45.833   2.514   8.133  0.00  0.00    +0.000 A 
ATOM     14  C   UNL     1      46.481   1.301   7.993  0.00  0.00    +0.000 A 
ATOM     15  N   UNL     1      47.316   1.000   6.978  0.00  0.00    +0.000 NA
ATOM     16  C   UNL     1      47.498   1.975   6.077  0.00  0.00    +0.000 A 
ATOM     17  N   UNL     1      46.910   3.180   6.085  0.00  0.00    +0.000 NA
ATOM     18  C   UNL     1      46.080   3.420   7.122  0.00  0.00    +0.000 A 
ENDBRANCH  12  13
ENDBRANCH   8  12
ENDBRANCH   5   8
ENDBRANCH   1   2
BRANCH   1  19
ATOM     19  N   UNL     1      48.335   5.931  14.835  0.00  0.00    +0.000 N 
ATOM     20  C   UNL     1      48.895   6.672  15.846  0.00  0.00    +0.000 C 
ATOM     21  O   UNL     1      48.498   6.634  17.006  0.00  0.00    +0.000 OA
ATOM     22  H   UNL     1      48.513   6.243  13.886  0.00  0.00    +0.000 HD
BRANCH  20  23
ATOM     23  C   UNL     1      50.060   7.482  15.465  0.00  0.00    +0.000 A 
ATOM     24  C   UNL     1      49.886   8.638  14.716  0.00  0.00    +0.000 A 
ATOM     25  S   UNL     1      51.346   9.452  14.374  0.00  0.00    +0.000 S 
ATOM     26  C   UNL     1      52.262   8.264  15.176  0.00  0.00    +0.000 A 
ATOM     27  N   UNL     1      53.623   8.337  15.219  0.00  0.00    +0.000 NA
ATOM     28  C   UNL     1      54.186   7.347  15.831  0.00  0.00    +0.000 A 
ATOM     29  N   UNL     1      53.515   6.302  16.416  0.00  0.00    +0.000 N 
ATOM     30  C   UNL     1      52.147   6.213  16.439  0.00  0.00    +0.000 A 
ATOM     31  O   UNL     1      51.574   5.314  17.044  0.00  0.00    +0.000 OA
ATOM     32  C   UNL     1      51.464   7.281  15.728  0.00  0.00    +0.000 A 
ATOM     33  H   UNL     1      54.018   5.572  16.898  0.00  0.00    +0.000 HD
ENDBRANCH  20  23
ENDBRANCH   1  19
BRANCH   1  35
ATOM     34  C   UNL     1      47.176   3.486  17.020  0.00  0.00    +0.000 C 
ATOM     35  C   UNL     1      47.513   3.689  15.546  0.00  0.00    +0.000 C 
ENDBRANCH   1  35
TORSDOF 8
ENDMDL
MODEL 9
REMARK VINA RESULT:    -6.450      2.410      3.155
REMARK INTER + INTRA:         -10.439
REMARK INTER:                  -9.896
REMARK INTRA:                  -0.543
REMARK UNBOUND:                -1.161
REMARK  Name = 
REMARK  9 active torsions:
REMARK  status: ('A' for Active; 'I' for Inactive)
REMARK    1  A    between atoms: C_1  and  C_2
REMARK    2  A    between atoms: C_2  and  C_3
REMARK    3  A    between atoms: C_3  and  N_4
REMARK    4  A    between atoms: C_3  and  C_17
REMARK    5  A    between atoms: C_5  and  C_7
REMARK    6  A    between atoms: C_20  and  C_21
REMARK    7  A    between atoms: C_21  and  N_22
REMARK    8  A    between atoms: C_21  and  C_23
REMARK    9  A    between atoms: C_23  and  C_24
REMARK                            x       y       z     vdW  Elec       q    Type
REMARK                         _______ _______ _______ _____ _____    ______ ____
ROOT
ATOM      1  C   UNL     1      48.879   8.004  14.709  0.00  0.00    +0.000 C 
ENDROOT
BRANCH   1   2
ATOM      2  C   UNL     1      47.749   7.312  13.961  0.00  0.00    +0.000 A 
ATOM      3  C   UNL     1      47.643   5.919  13.867  0.00  0.00    +0.000 A 
ATOM      4  C   UNL     1      46.515   5.345  13.283  0.00  0.00    +0.000 A 
ATOM      5  C   UNL     1      45.498   6.176  12.817  0.00  0.00    +0.000 A 
ATOM      6  N   UNL     1      45.620   7.526  12.812  0.00  0.00    +0.000 NA
ATOM      7  C   UNL     1      46.719   8.057  13.396  0.00  0.00    +0.000 A 
BRANCH   5   8
ATOM      8  C   UNL     1      44.188   5.565  12.322  0.00  0.00    +0.000 C 
BRANCH   8   9
ATOM      9  N   UNL     1      43.124   5.731  13.331  0.00  0.00    +0.000 NA
ATOM     10  H   UNL     1      42.228   5.734  12.838  0.00  0.00    +0.000 HD
ATOM     11  H   UNL     1      43.206   6.647  13.769  0.00  0.00    +0.000 HD
ENDBRANCH   8   9
BRANCH   8  12
ATOM     12  C   UNL     1      44.315   4.069  11.920  0.00  0.00    +0.000 C 
BRANCH  12  13
ATOM     13  C   UNL     1      44.676   3.804  10.484  0.00  0.00    +0.000 A 
ATOM     14  C   UNL     1      45.118   4.817   9.653  0.00  0.00    +0.000 A 
ATOM     15  N   UNL     1      45.411   4.653   8.348  0.00  0.00    +0.000 NA
ATOM     16  C   UNL     1      45.243   3.412   7.873  0.00  0.00    +0.000 A 
ATOM     17  N   UNL     1      44.848   2.342   8.578  0.00  0.00    +0.000 NA
ATOM     18  C   UNL     1      44.576   2.567   9.881  0.00  0.00    +0.000 A 
ENDBRANCH  12  13
ENDBRANCH   8  12
ENDBRANCH   5   8
ENDBRANCH   1   2
BRANCH   1  19
ATOM     19  N   UNL     1      49.718   7.001  15.361  0.00  0.00    +0.000 N 
ATOM     20  C   UNL     1      49.478   6.502  16.618  0.00  0.00    +0.000 C 
ATOM     21  O   UNL     1      48.489   6.795  17.280  0.00  0.00    +0.000 OA
ATOM     22  H   UNL     1      50.673   6.953  15.025  0.00  0.00    +0.000 HD
BRANCH  20  23
ATOM     23  C   UNL     1      50.463   5.527  17.109  0.00  0.00    +0.000 A 
ATOM     24  C   UNL     1      51.679   5.966  17.615  0.00  0.00    +0.000 A 
ATOM     25  S   UNL     1      52.692   4.698  18.145  0.00  0.00    +0.000 S 
ATOM     26  C   UNL     1      51.558   3.520  17.673  0.00  0.00    +0.000 A 
ATOM     27  N   UNL     1      51.826   2.191  17.814  0.00  0.00    +0.000 NA
ATOM     28  C   UNL     1      50.889   1.414  17.380  0.00  0.00    +0.000 A 
ATOM     29  N   UNL     1      49.704   1.842  16.835  0.00  0.00    +0.000 N 
ATOM     30  C   UNL     1      49.372   3.167  16.719  0.00  0.00    +0.000 A 
ATOM     31  O   UNL     1      48.271   3.518  16.308  0.00  0.00    +0.000 OA
ATOM     32  C   UNL     1      50.409   4.087  17.154  0.00  0.00    +0.000 A 
ATOM     33  H   UNL     1      49.004   1.179  16.537  0.00  0.00    +0.000 HD
ENDBRANCH  20  23
ENDBRANCH   1  19
BRANCH   1  35
ATOM     34  C   UNL     1      48.967  10.408  15.638  0.00  0.00    +0.000 C 
ATOM     35  C   UNL     1      48.317   9.031  15.719  0.00  0.00    +0.000 C 
ENDBRANCH   1  35
TORSDOF 8
ENDMDL
