MODEL 1
REMARK VINA RESULT:    -6.829      0.000      0.000
REMARK INTER + INTRA:          -9.767
REMARK INTER:                  -9.225
REMARK INTRA:                  -0.542
REMARK UNBOUND:                -0.542
REMARK  Name = 
REMARK  7 active torsions:
REMARK  status: ('A' for Active; 'I' for Inactive)
REMARK    1  A    between atoms: C_1  and  S_2
REMARK    2  A    between atoms: S_2  and  C_5
REMARK    3  A    between atoms: C_7  and  C_8
REMARK    4  A    between atoms: C_8  and  O_9
REMARK    5  A    between atoms: O_9  and  C_10
REMARK    6  A    between atoms: C_15  and  C_16
REMARK    7  A    between atoms: C_25  and  C_26
REMARK                            x       y       z     vdW  Elec       q    Type
REMARK                         _______ _______ _______ _____ _____    ______ ____
ROOT
ATOM      1  O   UNL     1      48.149   7.385  13.168  0.00  0.00    +0.000 OA
ENDROOT
BRANCH   1   2
ATOM      2  C   UNL     1      46.937   7.753  12.647  0.00  0.00    +0.000 A 
ATOM      3  C   UNL     1      46.453   9.057  12.577  0.00  0.00    +0.000 A 
ATOM      4  C   UNL     1      45.216   9.302  11.981  0.00  0.00    +0.000 A 
ATOM      5  C   UNL     1      44.471   8.247  11.455  0.00  0.00    +0.000 A 
ATOM      6  F   UNL     1      43.299   8.532  10.869  0.00  0.00    +0.000 F 
ATOM      7  C   UNL     1      44.929   6.925  11.506  0.00  0.00    +0.000 A 
ATOM      8  C   UNL     1      46.185   6.709  12.100  0.00  0.00    +0.000 A 
BRANCH   7   9
ATOM      9  C   UNL     1      44.095   5.800  10.892  0.00  0.00    +0.000 C 
ATOM     10  C   UNL     1      42.752   5.566  11.615  0.00  0.00    +0.000 C 
ATOM     11  C   UNL     1      42.946   4.859  12.954  0.00  0.00    +0.000 C 
ATOM     12  C   UNL     1      43.800   3.596  12.830  0.00  0.00    +0.000 C 
ATOM     13  N   UNL     1      45.039   3.805  12.087  0.00  0.00    +0.000 NA
ATOM     14  C   UNL     1      44.806   4.429  10.779  0.00  0.00    +0.000 C 
ATOM     15  H   UNL     1      45.527   2.918  11.970  0.00  0.00    +0.000 HD
ENDBRANCH   7   9
ENDBRANCH   1   2
BRANCH   1  16
ATOM     16  C   UNL     1      48.578   8.145  14.293  0.00  0.00    +0.000 C 
BRANCH  16  19
ATOM     17  C   UNL     1      48.284   5.074  16.571  0.00  0.00    +0.000 A 
ATOM     18  C   UNL     1      48.303   5.884  15.419  0.00  0.00    +0.000 A 
ATOM     19  C   UNL     1      48.634   7.245  15.509  0.00  0.00    +0.000 A 
ATOM     20  C   UNL     1      48.970   7.777  16.760  0.00  0.00    +0.000 A 
ATOM     21  C   UNL     1      48.948   6.974  17.903  0.00  0.00    +0.000 A 
ATOM     22  C   UNL     1      48.587   5.621  17.822  0.00  0.00    +0.000 A 
BRANCH  17  24
ATOM     23  C   UNL     1      49.092   2.375  16.980  0.00  0.00    +0.000 C 
ATOM     24  S   UNL     1      47.750   3.383  16.401  0.00  0.00    +0.000 S 
ATOM     25  O   UNL     1      47.616   3.117  14.981  0.00  0.00    +0.000 OA
ATOM     26  O   UNL     1      46.619   3.215  17.288  0.00  0.00    +0.000 OA
ENDBRANCH  17  24
BRANCH  22  27
ATOM     27  C   UNL     1      48.543   4.873  19.044  0.00  0.00    +0.000 C 
ATOM     28  N   UNL     1      48.567   4.257  20.025  0.00  0.00    +0.000 NA
ENDBRANCH  22  27
ENDBRANCH  16  19
ENDBRANCH   1  16
TORSDOF 6
ENDMDL
MODEL 2
REMARK VINA RESULT:    -6.728      2.624      6.504
REMARK INTER + INTRA:          -9.630
REMARK INTER:                  -9.177
REMARK INTRA:                  -0.453
REMARK UNBOUND:                -0.542
REMARK  Name = 
REMARK  7 active torsions:
REMARK  status: ('A' for Active; 'I' for Inactive)
REMARK    1  A    between atoms: C_1  and  S_2
REMARK    2  A    between atoms: S_2  and  C_5
REMARK    3  A    between atoms: C_7  and  C_8
REMARK    4  A    between atoms: C_8  and  O_9
REMARK    5  A    between atoms: O_9  and  C_10
REMARK    6  A    between atoms: C_15  and  C_16
REMARK    7  A    between atoms: C_25  and  C_26
REMARK                            x       y       z     vdW  Elec       q    Type
REMARK                         _______ _______ _______ _____ _____    ______ ____
ROOT
ATOM      1  O   UNL     1      49.262   6.664  13.652  0.00  0.00    +0.000 OA
ENDROOT
BRANCH   1   2
ATOM      2  C   UNL     1      49.061   7.275  14.861  0.00  0.00    +0.000 A 
ATOM      3  C   UNL     1      48.853   8.640  15.049  0.00  0.00    +0.000 A 
ATOM      4  C   UNL     1      48.617   9.130  16.333  0.00  0.00    +0.000 A 
ATOM      5  C   UNL     1      48.585   8.258  17.421  0.00  0.00    +0.000 A 
ATOM      6  F   UNL     1      48.330   8.770  18.634  0.00  0.00    +0.000 F 
ATOM      7  C   UNL     1      48.787   6.881  17.267  0.00  0.00    +0.000 A 
ATOM      8  C   UNL     1      49.009   6.412  15.960  0.00  0.00    +0.000 A 
BRANCH   7   9
ATOM      9  C   UNL     1      48.716   5.954  18.481  0.00  0.00    +0.000 C 
ATOM     10  C   UNL     1      49.543   4.663  18.316  0.00  0.00    +0.000 C 
ATOM     11  C   UNL     1      48.867   3.674  17.368  0.00  0.00    +0.000 C 
ATOM     12  C   UNL     1      47.404   3.420  17.737  0.00  0.00    +0.000 C 
ATOM     13  N   UNL     1      46.641   4.645  17.958  0.00  0.00    +0.000 NA
ATOM     14  C   UNL     1      47.291   5.540  18.922  0.00  0.00    +0.000 C 
ATOM     15  H   UNL     1      45.700   4.415  18.273  0.00  0.00    +0.000 HD
ENDBRANCH   7   9
ENDBRANCH   1   2
BRANCH   1  16
ATOM     16  C   UNL     1      48.706   7.346  12.532  0.00  0.00    +0.000 C 
BRANCH  16  19
ATOM     17  C   UNL     1      45.481   5.279  12.367  0.00  0.00    +0.000 A 
ATOM     18  C   UNL     1      46.826   5.638  12.578  0.00  0.00    +0.000 A 
ATOM     19  C   UNL     1      47.248   6.962  12.389  0.00  0.00    +0.000 A 
ATOM     20  C   UNL     1      46.304   7.926  12.013  0.00  0.00    +0.000 A 
ATOM     21  C   UNL     1      44.971   7.568  11.801  0.00  0.00    +0.000 A 
ATOM     22  C   UNL     1      44.551   6.240  11.957  0.00  0.00    +0.000 A 
BRANCH  17  24
ATOM     23  C   UNL     1      44.623   3.005  10.884  0.00  0.00    +0.000 C 
ATOM     24  S   UNL     1      45.035   3.560  12.519  0.00  0.00    +0.000 S 
ATOM     25  O   UNL     1      43.811   3.503  13.296  0.00  0.00    +0.000 OA
ATOM     26  O   UNL     1      46.221   2.863  12.968  0.00  0.00    +0.000 OA
ENDBRANCH  17  24
BRANCH  22  27
ATOM     27  C   UNL     1      43.177   5.942  11.678  0.00  0.00    +0.000 C 
ATOM     28  N   UNL     1      42.077   5.643  11.467  0.00  0.00    +0.000 NA
ENDBRANCH  22  27
ENDBRANCH  16  19
ENDBRANCH   1  16
TORSDOF 6
ENDMDL
MODEL 3
REMARK VINA RESULT:    -6.606      2.838      3.958
REMARK INTER + INTRA:          -9.466
REMARK INTER:                  -9.113
REMARK INTRA:                  -0.353
REMARK UNBOUND:                -0.542
REMARK  Name = 
REMARK  7 active torsions:
REMARK  status: ('A' for Active; 'I' for Inactive)
REMARK    1  A    between atoms: C_1  and  S_2
REMARK    2  A    between atoms: S_2  and  C_5
REMARK    3  A    between atoms: C_7  and  C_8
REMARK    4  A    between atoms: C_8  and  O_9
REMARK    5  A    between atoms: O_9  and  C_10
REMARK    6  A    between atoms: C_15  and  C_16
REMARK    7  A    between atoms: C_25  and  C_26
REMARK                            x       y       z     vdW  Elec       q    Type
REMARK                         _______ _______ _______ _____ _____    ______ ____
ROOT
ATOM      1  O   UNL     1      47.210   3.623  15.039  0.00  0.00    +0.000 OA
ENDROOT
BRANCH   1   2
ATOM      2  C   UNL     1      47.060   4.708  14.217  0.00  0.00    +0.000 A 
ATOM      3  C   UNL     1      47.758   5.907  14.331  0.00  0.00    +0.000 A 
ATOM      4  C   UNL     1      47.542   6.922  13.398  0.00  0.00    +0.000 A 
ATOM      5  C   UNL     1      46.634   6.733  12.355  0.00  0.00    +0.000 A 
ATOM      6  F   UNL     1      46.476   7.726  11.468  0.00  0.00    +0.000 F 
ATOM      7  C   UNL     1      45.918   5.539  12.210  0.00  0.00    +0.000 A 
ATOM      8  C   UNL     1      46.166   4.529  13.156  0.00  0.00    +0.000 A 
BRANCH   7   9
ATOM      9  C   UNL     1      44.954   5.360  11.038  0.00  0.00    +0.000 C 
ATOM     10  C   UNL     1      43.468   5.452  11.445  0.00  0.00    +0.000 C 
ATOM     11  C   UNL     1      43.004   4.196  12.179  0.00  0.00    +0.000 C 
ATOM     12  C   UNL     1      43.350   2.914  11.418  0.00  0.00    +0.000 C 
ATOM     13  N   UNL     1      44.741   2.861  10.975  0.00  0.00    +0.000 NA
ATOM     14  C   UNL     1      45.131   4.058  10.220  0.00  0.00    +0.000 C 
ATOM     15  H   UNL     1      44.893   2.026  10.412  0.00  0.00    +0.000 HD
ENDBRANCH   7   9
ENDBRANCH   1   2
BRANCH   1  16
ATOM     16  C   UNL     1      47.322   3.928  16.426  0.00  0.00    +0.000 C 
BRANCH  16  19
ATOM     17  C   UNL     1      50.792   3.964  18.058  0.00  0.00    +0.000 A 
ATOM     18  C   UNL     1      49.497   4.356  17.667  0.00  0.00    +0.000 A 
ATOM     19  C   UNL     1      48.683   3.489  16.923  0.00  0.00    +0.000 A 
ATOM     20  C   UNL     1      49.170   2.216  16.599  0.00  0.00    +0.000 A 
ATOM     21  C   UNL     1      50.456   1.829  16.984  0.00  0.00    +0.000 A 
ATOM     22  C   UNL     1      51.285   2.705  17.700  0.00  0.00    +0.000 A 
BRANCH  17  24
ATOM     23  C   UNL     1      50.817   6.612  19.105  0.00  0.00    +0.000 C 
ATOM     24  S   UNL     1      51.811   5.154  18.906  0.00  0.00    +0.000 S 
ATOM     25  O   UNL     1      52.892   5.509  18.007  0.00  0.00    +0.000 OA
ATOM     26  O   UNL     1      52.098   4.598  20.212  0.00  0.00    +0.000 OA
ENDBRANCH  17  24
BRANCH  22  27
ATOM     27  C   UNL     1      52.607   2.253  18.021  0.00  0.00    +0.000 C 
ATOM     28  N   UNL     1      53.655   1.831  18.275  0.00  0.00    +0.000 NA
ENDBRANCH  22  27
ENDBRANCH  16  19
ENDBRANCH   1  16
TORSDOF 6
ENDMDL
MODEL 4
REMARK VINA RESULT:    -6.113      3.105      5.012
REMARK INTER + INTRA:          -8.799
REMARK INTER:                  -8.317
REMARK INTRA:                  -0.482
REMARK UNBOUND:                -0.542
REMARK  Name = 
REMARK  7 active torsions:
REMARK  status: ('A' for Active; 'I' for Inactive)
REMARK    1  A    between atoms: C_1  and  S_2
REMARK    2  A    between atoms: S_2  and  C_5
REMARK    3  A    between atoms: C_7  and  C_8
REMARK    4  A    between atoms: C_8  and  O_9
REMARK    5  A    between atoms: O_9  and  C_10
REMARK    6  A    between atoms: C_15  and  C_16
REMARK    7  A    between atoms: C_25  and  C_26
REMARK                            x       y       z     vdW  Elec       q    Type
REMARK                         _______ _______ _______ _____ _____    ______ ____
ROOT
ATOM      1  O   UNL     1      47.233   3.260  14.867  0.00  0.00    +0.000 OA
ENDROOT
BRANCH   1   2
ATOM      2  C   UNL     1      46.759   4.057  13.859  0.00  0.00    +0.000 A 
ATOM      3  C   UNL     1      45.851   3.663  12.880  0.00  0.00    +0.000 A 
ATOM      4  C   UNL     1      45.413   4.589  11.933  0.00  0.00    +0.000 A 
ATOM      5  C   UNL     1      45.881   5.903  11.970  0.00  0.00    +0.000 A 
ATOM      6  F   UNL     1      45.414   6.765  11.054  0.00  0.00    +0.000 F 
ATOM      7  C   UNL     1      46.791   6.333  12.942  0.00  0.00    +0.000 A 
ATOM      8  C   UNL     1      47.205   5.382  13.892  0.00  0.00    +0.000 A 
BRANCH   7   9
ATOM      9  C   UNL     1      47.258   7.788  12.966  0.00  0.00    +0.000 C 
ATOM     10  C   UNL     1      48.167   8.162  11.777  0.00  0.00    +0.000 C 
ATOM     11  C   UNL     1      49.571   7.580  11.934  0.00  0.00    +0.000 C 
ATOM     12  C   UNL     1      50.187   7.901  13.297  0.00  0.00    +0.000 C 
ATOM     13  N   UNL     1      49.297   7.609  14.418  0.00  0.00    +0.000 NA
ATOM     14  C   UNL     1      47.979   8.237  14.260  0.00  0.00    +0.000 C 
ATOM     15  H   UNL     1      49.727   7.912  15.290  0.00  0.00    +0.000 HD
ENDBRANCH   7   9
ENDBRANCH   1   2
BRANCH   1  16
ATOM     16  C   UNL     1      47.393   3.908  16.125  0.00  0.00    +0.000 C 
BRANCH  16  19
ATOM     17  C   UNL     1      50.786   4.025  17.908  0.00  0.00    +0.000 A 
ATOM     18  C   UNL     1      49.526   4.410  17.409  0.00  0.00    +0.000 A 
ATOM     19  C   UNL     1      48.712   3.487  16.738  0.00  0.00    +0.000 A 
ATOM     20  C   UNL     1      49.161   2.168  16.595  0.00  0.00    +0.000 A 
ATOM     21  C   UNL     1      50.412   1.787  17.087  0.00  0.00    +0.000 A 
ATOM     22  C   UNL     1      51.243   2.715  17.730  0.00  0.00    +0.000 A 
BRANCH  17  24
ATOM     23  C   UNL     1      52.077   4.768  20.334  0.00  0.00    +0.000 C 
ATOM     24  S   UNL     1      51.814   5.275  18.653  0.00  0.00    +0.000 S 
ATOM     25  O   UNL     1      51.032   6.496  18.706  0.00  0.00    +0.000 OA
ATOM     26  O   UNL     1      53.078   5.245  17.950  0.00  0.00    +0.000 OA
ENDBRANCH  17  24
BRANCH  22  27
ATOM     27  C   UNL     1      52.530   2.261  18.167  0.00  0.00    +0.000 C 
ATOM     28  N   UNL     1      53.543   1.854  18.556  0.00  0.00    +0.000 NA
ENDBRANCH  22  27
ENDBRANCH  16  19
ENDBRANCH   1  16
TORSDOF 6
ENDMDL
MODEL 5
REMARK VINA RESULT:    -5.924      3.663      7.884
REMARK INTER + INTRA:          -8.544
REMARK INTER:                  -8.218
REMARK INTRA:                  -0.326
REMARK UNBOUND:                -0.542
REMARK  Name = 
REMARK  7 active torsions:
REMARK  status: ('A' for Active; 'I' for Inactive)
REMARK    1  A    between atoms: C_1  and  S_2
REMARK    2  A    between atoms: S_2  and  C_5
REMARK    3  A    between atoms: C_7  and  C_8
REMARK    4  A    between atoms: C_8  and  O_9
REMARK    5  A    between atoms: O_9  and  C_10
REMARK    6  A    between atoms: C_15  and  C_16
REMARK    7  A    between atoms: C_25  and  C_26
REMARK                            x       y       z     vdW  Elec       q    Type
REMARK                         _______ _______ _______ _____ _____    ______ ____
ROOT
ATOM      1  O   UNL     1      47.203   3.320  15.810  0.00  0.00    +0.000 OA
ENDROOT
BRANCH   1   2
ATOM      2  C   UNL     1      48.329   3.474  16.574  0.00  0.00    +0.000 A 
ATOM      3  C   UNL     1      49.229   2.461  16.896  0.00  0.00    +0.000 A 
ATOM      4  C   UNL     1      50.364   2.761  17.648  0.00  0.00    +0.000 A 
ATOM      5  C   UNL     1      50.598   4.070  18.073  0.00  0.00    +0.000 A 
ATOM      6  F   UNL     1      51.714   4.317  18.773  0.00  0.00    +0.000 F 
ATOM      7  C   UNL     1      49.715   5.112  17.765  0.00  0.00    +0.000 A 
ATOM      8  C   UNL     1      48.586   4.783  16.993  0.00  0.00    +0.000 A 
BRANCH   7   9
ATOM      9  C   UNL     1      50.021   6.538  18.224  0.00  0.00    +0.000 C 
ATOM     10  C   UNL     1      49.795   6.758  19.734  0.00  0.00    +0.000 C 
ATOM     11  C   UNL     1      48.309   6.834  20.079  0.00  0.00    +0.000 C 
ATOM     12  C   UNL     1      47.555   7.831  19.197  0.00  0.00    +0.000 C 
ATOM     13  N   UNL     1      47.824   7.663  17.772  0.00  0.00    +0.000 NA
ATOM     14  C   UNL     1      49.261   7.658  17.473  0.00  0.00    +0.000 C 
ATOM     15  H   UNL     1      47.358   8.398  17.242  0.00  0.00    +0.000 HD
ENDBRANCH   7   9
ENDBRANCH   1   2
BRANCH   1  16
ATOM     16  C   UNL     1      47.434   3.221  14.408  0.00  0.00    +0.000 C 
BRANCH  16  19
ATOM     17  C   UNL     1      44.854   5.039  12.229  0.00  0.00    +0.000 A 
ATOM     18  C   UNL     1      45.517   4.025  12.947  0.00  0.00    +0.000 A 
ATOM     19  C   UNL     1      46.664   4.317  13.699  0.00  0.00    +0.000 A 
ATOM     20  C   UNL     1      47.125   5.639  13.746  0.00  0.00    +0.000 A 
ATOM     21  C   UNL     1      46.469   6.644  13.031  0.00  0.00    +0.000 A 
ATOM     22  C   UNL     1      45.341   6.351  12.252  0.00  0.00    +0.000 A 
BRANCH  17  24
ATOM     23  C   UNL     1      42.111   5.604  11.719  0.00  0.00    +0.000 C 
ATOM     24  S   UNL     1      43.468   4.580  11.208  0.00  0.00    +0.000 S 
ATOM     25  O   UNL     1      43.113   3.218  11.558  0.00  0.00    +0.000 OA
ATOM     26  O   UNL     1      43.827   4.917   9.847  0.00  0.00    +0.000 OA
ENDBRANCH  17  24
BRANCH  22  27
ATOM     27  C   UNL     1      44.749   7.426  11.511  0.00  0.00    +0.000 C 
ATOM     28  N   UNL     1      44.224   8.259  10.901  0.00  0.00    +0.000 NA
ENDBRANCH  22  27
ENDBRANCH  16  19
ENDBRANCH   1  16
TORSDOF 6
ENDMDL
MODEL 6
REMARK VINA RESULT:    -5.869      2.362      2.928
REMARK INTER + INTRA:          -8.469
REMARK INTER:                  -8.098
REMARK INTRA:                  -0.372
REMARK UNBOUND:                -0.542
REMARK  Name = 
REMARK  7 active torsions:
REMARK  status: ('A' for Active; 'I' for Inactive)
REMARK    1  A    between atoms: C_1  and  S_2
REMARK    2  A    between atoms: S_2  and  C_5
REMARK    3  A    between atoms: C_7  and  C_8
REMARK    4  A    between atoms: C_8  and  O_9
REMARK    5  A    between atoms: O_9  and  C_10
REMARK    6  A    between atoms: C_15  and  C_16
REMARK    7  A    between atoms: C_25  and  C_26
REMARK                            x       y       z     vdW  Elec       q    Type
REMARK                         _______ _______ _______ _____ _____    ______ ____
ROOT
ATOM      1  O   UNL     1      48.439   6.212  13.844  0.00  0.00    +0.000 OA
ENDROOT
BRANCH   1   2
ATOM      2  C   UNL     1      47.340   6.774  13.251  0.00  0.00    +0.000 A 
ATOM      3  C   UNL     1      46.965   8.111  13.353  0.00  0.00    +0.000 A 
ATOM      4  C   UNL     1      45.842   8.567  12.661  0.00  0.00    +0.000 A 
ATOM      5  C   UNL     1      45.103   7.688  11.870  0.00  0.00    +0.000 A 
ATOM      6  F   UNL     1      44.045   8.175  11.204  0.00  0.00    +0.000 F 
ATOM      7  C   UNL     1      45.453   6.338  11.743  0.00  0.00    +0.000 A 
ATOM      8  C   UNL     1      46.597   5.910  12.440  0.00  0.00    +0.000 A 
BRANCH   7   9
ATOM      9  C   UNL     1      44.633   5.413  10.844  0.00  0.00    +0.000 C 
ATOM     10  C   UNL     1      43.156   5.292  11.271  0.00  0.00    +0.000 C 
ATOM     11  C   UNL     1      42.997   4.424  12.517  0.00  0.00    +0.000 C 
ATOM     12  C   UNL     1      43.706   3.075  12.384  0.00  0.00    +0.000 C 
ATOM     13  N   UNL     1      45.084   3.189  11.914  0.00  0.00    +0.000 NA
ATOM     14  C   UNL     1      45.189   3.977  10.680  0.00  0.00    +0.000 C 
ATOM     15  H   UNL     1      45.480   2.261  11.771  0.00  0.00    +0.000 HD
ENDBRANCH   7   9
ENDBRANCH   1   2
BRANCH   1  16
ATOM     16  C   UNL     1      49.120   7.052  14.770  0.00  0.00    +0.000 C 
BRANCH  16  19
ATOM     17  C   UNL     1      49.050   6.781  18.594  0.00  0.00    +0.000 A 
ATOM     18  C   UNL     1      49.167   7.315  17.297  0.00  0.00    +0.000 A 
ATOM     19  C   UNL     1      48.918   6.515  16.171  0.00  0.00    +0.000 A 
ATOM     20  C   UNL     1      48.526   5.184  16.361  0.00  0.00    +0.000 A 
ATOM     21  C   UNL     1      48.413   4.654  17.649  0.00  0.00    +0.000 A 
ATOM     22  C   UNL     1      48.692   5.440  18.775  0.00  0.00    +0.000 A 
BRANCH  17  24
ATOM     23  C   UNL     1      48.021   7.975  20.965  0.00  0.00    +0.000 C 
ATOM     24  S   UNL     1      49.487   7.820  19.975  0.00  0.00    +0.000 S 
ATOM     25  O   UNL     1      49.769   9.140  19.443  0.00  0.00    +0.000 OA
ATOM     26  O   UNL     1      50.492   7.105  20.730  0.00  0.00    +0.000 OA
ENDBRANCH  17  24
BRANCH  22  27
ATOM     27  C   UNL     1      48.599   4.814  20.061  0.00  0.00    +0.000 C 
ATOM     28  N   UNL     1      48.494   4.261  21.074  0.00  0.00    +0.000 NA
ENDBRANCH  22  27
ENDBRANCH  16  19
ENDBRANCH   1  16
TORSDOF 6
ENDMDL
MODEL 7
REMARK VINA RESULT:    -5.867      1.637      2.188
REMARK INTER + INTRA:          -8.467
REMARK INTER:                  -8.403
REMARK INTRA:                  -0.064
REMARK UNBOUND:                -0.542
REMARK  Name = 
REMARK  7 active torsions:
REMARK  status: ('A' for Active; 'I' for Inactive)
REMARK    1  A    between atoms: C_1  and  S_2
REMARK    2  A    between atoms: S_2  and  C_5
REMARK    3  A    between atoms: C_7  and  C_8
REMARK    4  A    between atoms: C_8  and  O_9
REMARK    5  A    between atoms: O_9  and  C_10
REMARK    6  A    between atoms: C_15  and  C_16
REMARK    7  A    between atoms: C_25  and  C_26
REMARK                            x       y       z     vdW  Elec       q    Type
REMARK                         _______ _______ _______ _____ _____    ______ ____
ROOT
ATOM      1  O   UNL     1      48.529   6.361  13.478  0.00  0.00    +0.000 OA
ENDROOT
BRANCH   1   2
ATOM      2  C   UNL     1      47.372   6.888  12.969  0.00  0.00    +0.000 A 
ATOM      3  C   UNL     1      47.242   8.157  12.410  0.00  0.00    +0.000 A 
ATOM      4  C   UNL     1      46.012   8.557  11.887  0.00  0.00    +0.000 A 
ATOM      5  C   UNL     1      44.921   7.688  11.920  0.00  0.00    +0.000 A 
ATOM      6  F   UNL     1      43.765   8.105  11.383  0.00  0.00    +0.000 F 
ATOM      7  C   UNL     1      45.018   6.405  12.471  0.00  0.00    +0.000 A 
ATOM      8  C   UNL     1      46.272   6.023  12.979  0.00  0.00    +0.000 A 
BRANCH   7   9
ATOM      9  C   UNL     1      43.807   5.472  12.463  0.00  0.00    +0.000 C 
ATOM     10  C   UNL     1      44.164   3.999  12.749  0.00  0.00    +0.000 C 
ATOM     11  C   UNL     1      44.837   3.336  11.548  0.00  0.00    +0.000 C 
ATOM     12  C   UNL     1      44.046   3.532  10.254  0.00  0.00    +0.000 C 
ATOM     13  N   UNL     1      43.651   4.919  10.020  0.00  0.00    +0.000 NA
ATOM     14  C   UNL     1      42.952   5.500  11.172  0.00  0.00    +0.000 C 
ATOM     15  H   UNL     1      43.065   4.977   9.189  0.00  0.00    +0.000 HD
ENDBRANCH   7   9
ENDBRANCH   1   2
BRANCH   1  16
ATOM     16  C   UNL     1      49.372   7.293  14.148  0.00  0.00    +0.000 C 
BRANCH  16  19
ATOM     17  C   UNL     1      49.185   5.566  17.566  0.00  0.00    +0.000 A 
ATOM     18  C   UNL     1      48.837   6.017  16.278  0.00  0.00    +0.000 A 
ATOM     19  C   UNL     1      49.760   6.730  15.499  0.00  0.00    +0.000 A 
ATOM     20  C   UNL     1      51.042   6.963  16.013  0.00  0.00    +0.000 A 
ATOM     21  C   UNL     1      51.385   6.517  17.291  0.00  0.00    +0.000 A 
ATOM     22  C   UNL     1      50.456   5.832  18.086  0.00  0.00    +0.000 A 
BRANCH  17  24
ATOM     23  C   UNL     1      47.547   5.873  19.875  0.00  0.00    +0.000 C 
ATOM     24  S   UNL     1      47.931   4.762  18.544  0.00  0.00    +0.000 S 
ATOM     25  O   UNL     1      48.542   3.591  19.144  0.00  0.00    +0.000 OA
ATOM     26  O   UNL     1      46.767   4.626  17.694  0.00  0.00    +0.000 OA
ENDBRANCH  17  24
BRANCH  22  27
ATOM     27  C   UNL     1      50.867   5.447  19.404  0.00  0.00    +0.000 C 
ATOM     28  N   UNL     1      51.141   5.135  20.486  0.00  0.00    +0.000 NA
ENDBRANCH  22  27
ENDBRANCH  16  19
ENDBRANCH   1  16
TORSDOF 6
ENDMDL
MODEL 8
REMARK VINA RESULT:    -5.839      3.330      7.237
REMARK INTER + INTRA:          -8.429
REMARK INTER:                  -8.041
REMARK INTRA:                  -0.388
REMARK UNBOUND:                -0.542
REMARK  Name = 
REMARK  7 active torsions:
REMARK  status: ('A' for Active; 'I' for Inactive)
REMARK    1  A    between atoms: C_1  and  S_2
REMARK    2  A    between atoms: S_2  and  C_5
REMARK    3  A    between atoms: C_7  and  C_8
REMARK    4  A    between atoms: C_8  and  O_9
REMARK    5  A    between atoms: O_9  and  C_10
REMARK    6  A    between atoms: C_15  and  C_16
REMARK    7  A    between atoms: C_25  and  C_26
REMARK                            x       y       z     vdW  Elec       q    Type
REMARK                         _______ _______ _______ _____ _____    ______ ____
ROOT
ATOM      1  O   UNL     1      48.986   6.572  14.293  0.00  0.00    +0.000 OA
ENDROOT
BRANCH   1   2
ATOM      2  C   UNL     1      48.970   6.898  15.623  0.00  0.00    +0.000 A 
ATOM      3  C   UNL     1      48.672   8.156  16.141  0.00  0.00    +0.000 A 
ATOM      4  C   UNL     1      48.647   8.344  17.523  0.00  0.00    +0.000 A 
ATOM      5  C   UNL     1      48.917   7.277  18.380  0.00  0.00    +0.000 A 
ATOM      6  F   UNL     1      48.858   7.498  19.702  0.00  0.00    +0.000 F 
ATOM      7  C   UNL     1      49.218   6.000  17.893  0.00  0.00    +0.000 A 
ATOM      8  C   UNL     1      49.222   5.835  16.497  0.00  0.00    +0.000 A 
BRANCH   7   9
ATOM      9  C   UNL     1      49.479   4.850  18.866  0.00  0.00    +0.000 C 
ATOM     10  C   UNL     1      50.944   4.366  18.865  0.00  0.00    +0.000 C 
ATOM     11  C   UNL     1      51.269   3.547  17.617  0.00  0.00    +0.000 C 
ATOM     12  C   UNL     1      50.256   2.427  17.373  0.00  0.00    +0.000 C 
ATOM     13  N   UNL     1      48.868   2.876  17.442  0.00  0.00    +0.000 NA
ATOM     14  C   UNL     1      48.579   3.604  18.683  0.00  0.00    +0.000 C 
ATOM     15  H   UNL     1      48.240   2.078  17.349  0.00  0.00    +0.000 HD
ENDBRANCH   7   9
ENDBRANCH   1   2
BRANCH   1  16
ATOM     16  C   UNL     1      47.931   7.136  13.521  0.00  0.00    +0.000 C 
BRANCH  16  19
ATOM     17  C   UNL     1      44.836   5.329  12.157  0.00  0.00    +0.000 A 
ATOM     18  C   UNL     1      45.782   6.337  12.427  0.00  0.00    +0.000 A 
ATOM     19  C   UNL     1      46.947   6.046  13.152  0.00  0.00    +0.000 A 
ATOM     20  C   UNL     1      47.166   4.730  13.580  0.00  0.00    +0.000 A 
ATOM     21  C   UNL     1      46.226   3.732  13.314  0.00  0.00    +0.000 A 
ATOM     22  C   UNL     1      45.045   4.025  12.618  0.00  0.00    +0.000 A 
BRANCH  17  24
ATOM     23  C   UNL     1      43.417   7.546  11.070  0.00  0.00    +0.000 C 
ATOM     24  S   UNL     1      43.328   5.791  11.326  0.00  0.00    +0.000 S 
ATOM     25  O   UNL     1      42.240   5.562  12.258  0.00  0.00    +0.000 OA
ATOM     26  O   UNL     1      43.344   5.126  10.041  0.00  0.00    +0.000 OA
ENDBRANCH  17  24
BRANCH  22  27
ATOM     27  C   UNL     1      44.108   2.958  12.423  0.00  0.00    +0.000 C 
ATOM     28  N   UNL     1      43.362   2.077  12.322  0.00  0.00    +0.000 NA
ENDBRANCH  22  27
ENDBRANCH  16  19
ENDBRANCH   1  16
TORSDOF 6
ENDMDL
MODEL 9
REMARK VINA RESULT:    -5.831      2.502      3.577
REMARK INTER + INTRA:          -8.419
REMARK INTER:                  -8.151
REMARK INTRA:                  -0.268
REMARK UNBOUND:                -0.542
REMARK  Name = 
REMARK  7 active torsions:
REMARK  status: ('A' for Active; 'I' for Inactive)
REMARK    1  A    between atoms: C_1  and  S_2
REMARK    2  A    between atoms: S_2  and  C_5
REMARK    3  A    between atoms: C_7  and  C_8
REMARK    4  A    between atoms: C_8  and  O_9
REMARK    5  A    between atoms: O_9  and  C_10
REMARK    6  A    between atoms: C_15  and  C_16
REMARK    7  A    between atoms: C_25  and  C_26
REMARK                            x       y       z     vdW  Elec       q    Type
REMARK                         _______ _______ _______ _____ _____    ______ ____
ROOT
ATOM      1  O   UNL     1      47.693   4.064  14.886  0.00  0.00    +0.000 OA
ENDROOT
BRANCH   1   2
ATOM      2  C   UNL     1      47.167   5.124  14.197  0.00  0.00    +0.000 A 
ATOM      3  C   UNL     1      47.830   6.319  13.930  0.00  0.00    +0.000 A 
ATOM      4  C   UNL     1      47.193   7.307  13.178  0.00  0.00    +0.000 A 
ATOM      5  C   UNL     1      45.901   7.097  12.695  0.00  0.00    +0.000 A 
ATOM      6  F   UNL     1      45.337   8.064  11.957  0.00  0.00    +0.000 F 
ATOM      7  C   UNL     1      45.207   5.906  12.944  0.00  0.00    +0.000 A 
ATOM      8  C   UNL     1      45.878   4.923  13.692  0.00  0.00    +0.000 A 
BRANCH   7   9
ATOM      9  C   UNL     1      43.804   5.702  12.373  0.00  0.00    +0.000 C 
ATOM     10  C   UNL     1      43.043   4.527  13.020  0.00  0.00    +0.000 C 
ATOM     11  C   UNL     1      43.569   3.177  12.537  0.00  0.00    +0.000 C 
ATOM     12  C   UNL     1      43.642   3.091  11.011  0.00  0.00    +0.000 C 
ATOM     13  N   UNL     1      44.304   4.239  10.397  0.00  0.00    +0.000 NA
ATOM     14  C   UNL     1      43.729   5.515  10.838  0.00  0.00    +0.000 C 
ATOM     15  H   UNL     1      44.255   4.165   9.382  0.00  0.00    +0.000 HD
ENDBRANCH   7   9
ENDBRANCH   1   2
BRANCH   1  16
ATOM     16  C   UNL     1      47.173   3.879  16.198  0.00  0.00    +0.000 C 
BRANCH  16  19
ATOM     17  C   UNL     1      49.064   5.917  18.840  0.00  0.00    +0.000 A 
ATOM     18  C   UNL     1      48.054   5.486  17.958  0.00  0.00    +0.000 A 
ATOM     19  C   UNL     1      48.214   4.309  17.211  0.00  0.00    +0.000 A 
ATOM     20  C   UNL     1      49.383   3.556  17.376  0.00  0.00    +0.000 A 
ATOM     21  C   UNL     1      50.386   3.986  18.249  0.00  0.00    +0.000 A 
ATOM     22  C   UNL     1      50.244   5.178  18.973  0.00  0.00    +0.000 A 
BRANCH  17  24
ATOM     23  C   UNL     1      50.128   8.547  19.081  0.00  0.00    +0.000 C 
ATOM     24  S   UNL     1      48.843   7.475  19.675  0.00  0.00    +0.000 S 
ATOM     25  O   UNL     1      49.112   7.247  21.082  0.00  0.00    +0.000 OA
ATOM     26  O   UNL     1      47.562   7.995  19.249  0.00  0.00    +0.000 OA
ENDBRANCH  17  24
BRANCH  22  27
ATOM     27  C   UNL     1      51.335   5.577  19.814  0.00  0.00    +0.000 C 
ATOM     28  N   UNL     1      52.208   5.848  20.525  0.00  0.00    +0.000 NA
ENDBRANCH  22  27
ENDBRANCH  16  19
ENDBRANCH   1  16
TORSDOF 6
ENDMDL
