MODEL 1
REMARK VINA RESULT:    -6.431      0.000      0.000
REMARK INTER + INTRA:          -8.867
REMARK INTER:                  -8.310
REMARK INTRA:                  -0.557
REMARK UNBOUND:                -0.557
REMARK  Name = 
REMARK  9 active torsions:
REMARK  status: ('A' for Active; 'I' for Inactive)
REMARK    1  A    between atoms: C_1  and  C_2
REMARK    2  A    between atoms: C_2  and  C_3
REMARK    3  A    between atoms: C_2  and  N_4
REMARK    4  A    between atoms: C_5  and  C_7
REMARK    5  A    between atoms: N_11  and  C_12
REMARK    6  A    between atoms: C_12  and  C_13
REMARK    7  A    between atoms: C_13  and  C_14
REMARK    8  A    between atoms: C_13  and  C_15
REMARK    9  A    between atoms: C_13  and  C_16
REMARK                            x       y       z     vdW  Elec       q    Type
REMARK                         _______ _______ _______ _____ _____    ______ ____
ROOT
ATOM      1  C   UNL     1      48.377   5.167  16.450  0.00  0.00    +0.000 A 
ATOM      2  C   UNL     1      48.625   6.224  15.582  0.00  0.00    +0.000 A 
ATOM      3  C   UNL     1      47.921   6.296  14.378  0.00  0.00    +0.000 A 
ATOM      4  C   UNL     1      46.977   5.317  14.058  0.00  0.00    +0.000 A 
ATOM      5  N   UNL     1      46.374   5.376  12.794  0.00  0.00    +0.000 N 
ATOM      6  N   UNL     1      46.724   4.293  14.896  0.00  0.00    +0.000 NA
ATOM      7  C   UNL     1      47.429   4.231  16.060  0.00  0.00    +0.000 A 
ATOM      8  H   UNL     1      46.086   6.326  12.592  0.00  0.00    +0.000 HD
ENDROOT
BRANCH   1  10
ATOM      9  N   UNL     1      48.754   5.739  18.791  0.00  0.00    +0.000 N 
ATOM     10  C   UNL     1      49.120   4.954  17.716  0.00  0.00    +0.000 C 
ATOM     11  O   UNL     1      50.008   4.110  17.765  0.00  0.00    +0.000 OA
ATOM     12  H   UNL     1      47.892   6.266  18.747  0.00  0.00    +0.000 HD
BRANCH   9  14
ATOM     13  C   UNL     1      49.548   7.004  20.724  0.00  0.00    +0.000 C 
ATOM     14  C   UNL     1      49.411   5.624  20.088  0.00  0.00    +0.000 C 
ATOM     15  C   UNL     1      48.649   4.682  21.018  0.00  0.00    +0.000 C 
ENDBRANCH   9  14
ENDBRANCH   1  10
BRANCH   5  16
ATOM     16  C   UNL     1      45.329   4.375  12.535  0.00  0.00    +0.000 C 
BRANCH  16  17
ATOM     17  C   UNL     1      44.449   4.749  11.291  0.00  0.00    +0.000 C 
ATOM     18  C   UNL     1      42.969   4.369  11.541  0.00  0.00    +0.000 C 
ATOM     19  C   UNL     1      44.499   6.285  11.091  0.00  0.00    +0.000 C 
BRANCH  17  20
ATOM     20  C   UNL     1      44.955   3.982  10.048  0.00  0.00    +0.000 A 
ATOM     21  C   UNL     1      44.894   2.576   9.992  0.00  0.00    +0.000 A 
ATOM     22  C   UNL     1      45.357   1.915   8.862  0.00  0.00    +0.000 A 
ATOM     23  N   UNL     1      45.873   2.536   7.783  0.00  0.00    +0.000 NA
ATOM     24  C   UNL     1      45.929   3.875   7.841  0.00  0.00    +0.000 A 
ATOM     25  C   UNL     1      45.492   4.627   8.926  0.00  0.00    +0.000 A 
ENDBRANCH  17  20
ENDBRANCH  16  17
ENDBRANCH   5  16
TORSDOF 5
ENDMDL
MODEL 2
REMARK VINA RESULT:    -6.429      2.860      8.747
REMARK INTER + INTRA:          -8.866
REMARK INTER:                  -8.329
REMARK INTRA:                  -0.536
REMARK UNBOUND:                -0.557
REMARK  Name = 
REMARK  9 active torsions:
REMARK  status: ('A' for Active; 'I' for Inactive)
REMARK    1  A    between atoms: C_1  and  C_2
REMARK    2  A    between atoms: C_2  and  C_3
REMARK    3  A    between atoms: C_2  and  N_4
REMARK    4  A    between atoms: C_5  and  C_7
REMARK    5  A    between atoms: N_11  and  C_12
REMARK    6  A    between atoms: C_12  and  C_13
REMARK    7  A    between atoms: C_13  and  C_14
REMARK    8  A    between atoms: C_13  and  C_15
REMARK    9  A    between atoms: C_13  and  C_16
REMARK                            x       y       z     vdW  Elec       q    Type
REMARK                         _______ _______ _______ _____ _____    ______ ____
ROOT
ATOM      1  C   UNL     1      45.740   4.765  12.079  0.00  0.00    +0.000 A 
ATOM      2  C   UNL     1      46.337   6.010  12.246  0.00  0.00    +0.000 A 
ATOM      3  C   UNL     1      47.058   6.268  13.414  0.00  0.00    +0.000 A 
ATOM      4  C   UNL     1      47.178   5.282  14.396  0.00  0.00    +0.000 A 
ATOM      5  N   UNL     1      47.822   5.625  15.594  0.00  0.00    +0.000 N 
ATOM      6  N   UNL     1      46.610   4.070  14.241  0.00  0.00    +0.000 NA
ATOM      7  C   UNL     1      45.899   3.840  13.101  0.00  0.00    +0.000 A 
ATOM      8  H   UNL     1      48.675   6.132  15.394  0.00  0.00    +0.000 HD
ENDROOT
BRANCH   1  10
ATOM      9  N   UNL     1      45.310   3.351  10.138  0.00  0.00    +0.000 N 
ATOM     10  C   UNL     1      44.891   4.413  10.915  0.00  0.00    +0.000 C 
ATOM     11  O   UNL     1      43.873   5.056  10.688  0.00  0.00    +0.000 OA
ATOM     12  H   UNL     1      46.037   2.741  10.488  0.00  0.00    +0.000 HD
BRANCH   9  14
ATOM     13  C   UNL     1      45.050   3.654   7.730  0.00  0.00    +0.000 C 
ATOM     14  C   UNL     1      44.561   2.910   8.967  0.00  0.00    +0.000 C 
ATOM     15  C   UNL     1      44.681   1.400   8.765  0.00  0.00    +0.000 C 
ENDBRANCH   9  14
ENDBRANCH   1  10
BRANCH   5  16
ATOM     16  C   UNL     1      47.997   4.532  16.562  0.00  0.00    +0.000 C 
BRANCH  16  17
ATOM     17  C   UNL     1      49.057   4.885  17.664  0.00  0.00    +0.000 C 
ATOM     18  C   UNL     1      49.680   6.276  17.390  0.00  0.00    +0.000 C 
ATOM     19  C   UNL     1      48.340   4.966  19.035  0.00  0.00    +0.000 C 
BRANCH  17  20
ATOM     20  C   UNL     1      50.184   3.827  17.656  0.00  0.00    +0.000 A 
ATOM     21  C   UNL     1      49.927   2.500  17.260  0.00  0.00    +0.000 A 
ATOM     22  C   UNL     1      50.959   1.572  17.264  0.00  0.00    +0.000 A 
ATOM     23  N   UNL     1      52.227   1.854  17.626  0.00  0.00    +0.000 NA
ATOM     24  C   UNL     1      52.466   3.119  18.003  0.00  0.00    +0.000 A 
ATOM     25  C   UNL     1      51.501   4.119  18.034  0.00  0.00    +0.000 A 
ENDBRANCH  17  20
ENDBRANCH  16  17
ENDBRANCH   5  16
TORSDOF 5
ENDMDL
MODEL 3
REMARK VINA RESULT:    -6.239      4.636      5.423
REMARK INTER + INTRA:          -8.620
REMARK INTER:                  -7.834
REMARK INTRA:                  -0.787
REMARK UNBOUND:                -0.557
REMARK  Name = 
REMARK  9 active torsions:
REMARK  status: ('A' for Active; 'I' for Inactive)
REMARK    1  A    between atoms: C_1  and  C_2
REMARK    2  A    between atoms: C_2  and  C_3
REMARK    3  A    between atoms: C_2  and  N_4
REMARK    4  A    between atoms: C_5  and  C_7
REMARK    5  A    between atoms: N_11  and  C_12
REMARK    6  A    between atoms: C_12  and  C_13
REMARK    7  A    between atoms: C_13  and  C_14
REMARK    8  A    between atoms: C_13  and  C_15
REMARK    9  A    between atoms: C_13  and  C_16
REMARK                            x       y       z     vdW  Elec       q    Type
REMARK                         _______ _______ _______ _____ _____    ______ ____
ROOT
ATOM      1  C   UNL     1      48.091   8.738  12.073  0.00  0.00    +0.000 A 
ATOM      2  C   UNL     1      46.902   9.239  12.590  0.00  0.00    +0.000 A 
ATOM      3  C   UNL     1      45.848   8.359  12.848  0.00  0.00    +0.000 A 
ATOM      4  C   UNL     1      45.995   6.994  12.590  0.00  0.00    +0.000 A 
ATOM      5  N   UNL     1      44.875   6.170  12.766  0.00  0.00    +0.000 N 
ATOM      6  N   UNL     1      47.146   6.498  12.096  0.00  0.00    +0.000 NA
ATOM      7  C   UNL     1      48.159   7.372  11.838  0.00  0.00    +0.000 A 
ATOM      8  H   UNL     1      44.418   6.390  13.643  0.00  0.00    +0.000 HD
ENDROOT
BRANCH   1  10
ATOM      9  N   UNL     1      50.455   8.955  11.510  0.00  0.00    +0.000 N 
ATOM     10  C   UNL     1      49.243   9.592  11.693  0.00  0.00    +0.000 C 
ATOM     11  O   UNL     1      49.086  10.799  11.556  0.00  0.00    +0.000 OA
ATOM     12  H   UNL     1      50.476   7.947  11.439  0.00  0.00    +0.000 HD
BRANCH   9  14
ATOM     13  C   UNL     1      52.618   9.746  12.322  0.00  0.00    +0.000 C 
ATOM     14  C   UNL     1      51.660   9.686  11.136  0.00  0.00    +0.000 C 
ATOM     15  C   UNL     1      52.346   9.050   9.928  0.00  0.00    +0.000 C 
ENDBRANCH   9  14
ENDBRANCH   1  10
BRANCH   5  16
ATOM     16  C   UNL     1      45.100   4.731  12.563  0.00  0.00    +0.000 C 
BRANCH  16  17
ATOM     17  C   UNL     1      44.058   4.105  11.571  0.00  0.00    +0.000 C 
ATOM     18  C   UNL     1      43.462   2.805  12.162  0.00  0.00    +0.000 C 
ATOM     19  C   UNL     1      42.887   5.103  11.385  0.00  0.00    +0.000 C 
BRANCH  17  20
ATOM     20  C   UNL     1      44.756   3.768  10.233  0.00  0.00    +0.000 A 
ATOM     21  C   UNL     1      44.856   2.437   9.785  0.00  0.00    +0.000 A 
ATOM     22  C   UNL     1      45.489   2.165   8.580  0.00  0.00    +0.000 A 
ATOM     23  N   UNL     1      46.027   3.107   7.780  0.00  0.00    +0.000 NA
ATOM     24  C   UNL     1      45.929   4.374   8.211  0.00  0.00    +0.000 A 
ATOM     25  C   UNL     1      45.316   4.748   9.402  0.00  0.00    +0.000 A 
ENDBRANCH  17  20
ENDBRANCH  16  17
ENDBRANCH   5  16
TORSDOF 5
ENDMDL
MODEL 4
REMARK VINA RESULT:    -6.165      1.456      2.071
REMARK INTER + INTRA:          -8.524
REMARK INTER:                  -7.965
REMARK INTRA:                  -0.559
REMARK UNBOUND:                -0.557
REMARK  Name = 
REMARK  9 active torsions:
REMARK  status: ('A' for Active; 'I' for Inactive)
REMARK    1  A    between atoms: C_1  and  C_2
REMARK    2  A    between atoms: C_2  and  C_3
REMARK    3  A    between atoms: C_2  and  N_4
REMARK    4  A    between atoms: C_5  and  C_7
REMARK    5  A    between atoms: N_11  and  C_12
REMARK    6  A    between atoms: C_12  and  C_13
REMARK    7  A    between atoms: C_13  and  C_14
REMARK    8  A    between atoms: C_13  and  C_15
REMARK    9  A    between atoms: C_13  and  C_16
REMARK                            x       y       z     vdW  Elec       q    Type
REMARK                         _______ _______ _______ _____ _____    ______ ____
ROOT
ATOM      1  C   UNL     1      48.837   5.279  16.942  0.00  0.00    +0.000 A 
ATOM      2  C   UNL     1      48.046   4.143  17.077  0.00  0.00    +0.000 A 
ATOM      3  C   UNL     1      47.163   3.804  16.050  0.00  0.00    +0.000 A 
ATOM      4  C   UNL     1      47.082   4.597  14.904  0.00  0.00    +0.000 A 
ATOM      5  N   UNL     1      46.107   4.274  13.950  0.00  0.00    +0.000 N 
ATOM      6  N   UNL     1      47.850   5.695  14.760  0.00  0.00    +0.000 NA
ATOM      7  C   UNL     1      48.697   6.019  15.777  0.00  0.00    +0.000 A 
ATOM      8  H   UNL     1      46.110   3.276  13.777  0.00  0.00    +0.000 HD
ENDROOT
BRANCH   1  10
ATOM      9  N   UNL     1      50.439   4.814  18.723  0.00  0.00    +0.000 N 
ATOM     10  C   UNL     1      49.752   5.771  18.002  0.00  0.00    +0.000 C 
ATOM     11  O   UNL     1      49.866   6.975  18.195  0.00  0.00    +0.000 OA
ATOM     12  H   UNL     1      50.457   3.861  18.386  0.00  0.00    +0.000 HD
BRANCH   9  14
ATOM     13  C   UNL     1      50.660   5.093  21.139  0.00  0.00    +0.000 C 
ATOM     14  C   UNL     1      51.367   5.173  19.790  0.00  0.00    +0.000 C 
ATOM     15  C   UNL     1      52.602   4.274  19.781  0.00  0.00    +0.000 C 
ENDBRANCH   9  14
ENDBRANCH   1  10
BRANCH   5  16
ATOM     16  C   UNL     1      46.116   5.085  12.724  0.00  0.00    +0.000 C 
BRANCH  16  17
ATOM     17  C   UNL     1      44.728   5.062  11.992  0.00  0.00    +0.000 C 
ATOM     18  C   UNL     1      43.668   4.347  12.863  0.00  0.00    +0.000 C 
ATOM     19  C   UNL     1      44.248   6.522  11.792  0.00  0.00    +0.000 C 
BRANCH  17  20
ATOM     20  C   UNL     1      44.862   4.304  10.651  0.00  0.00    +0.000 A 
ATOM     21  C   UNL     1      45.467   4.912   9.534  0.00  0.00    +0.000 A 
ATOM     22  C   UNL     1      45.572   4.206   8.343  0.00  0.00    +0.000 A 
ATOM     23  N   UNL     1      45.129   2.944   8.172  0.00  0.00    +0.000 NA
ATOM     24  C   UNL     1      44.553   2.370   9.239  0.00  0.00    +0.000 A 
ATOM     25  C   UNL     1      44.401   2.993  10.473  0.00  0.00    +0.000 A 
ENDBRANCH  17  20
ENDBRANCH  16  17
ENDBRANCH   5  16
TORSDOF 5
ENDMDL
MODEL 5
REMARK VINA RESULT:    -6.126      2.842      8.527
REMARK INTER + INTRA:          -8.474
REMARK INTER:                  -7.753
REMARK INTRA:                  -0.720
REMARK UNBOUND:                -0.557
REMARK  Name = 
REMARK  9 active torsions:
REMARK  status: ('A' for Active; 'I' for Inactive)
REMARK    1  A    between atoms: C_1  and  C_2
REMARK    2  A    between atoms: C_2  and  C_3
REMARK    3  A    between atoms: C_2  and  N_4
REMARK    4  A    between atoms: C_5  and  C_7
REMARK    5  A    between atoms: N_11  and  C_12
REMARK    6  A    between atoms: C_12  and  C_13
REMARK    7  A    between atoms: C_13  and  C_14
REMARK    8  A    between atoms: C_13  and  C_15
REMARK    9  A    between atoms: C_13  and  C_16
REMARK                            x       y       z     vdW  Elec       q    Type
REMARK                         _______ _______ _______ _____ _____    ______ ____
ROOT
ATOM      1  C   UNL     1      46.757   4.867  13.802  0.00  0.00    +0.000 A 
ATOM      2  C   UNL     1      47.381   6.073  13.505  0.00  0.00    +0.000 A 
ATOM      3  C   UNL     1      48.296   6.608  14.414  0.00  0.00    +0.000 A 
ATOM      4  C   UNL     1      48.579   5.933  15.604  0.00  0.00    +0.000 A 
ATOM      5  N   UNL     1      49.423   6.562  16.529  0.00  0.00    +0.000 N 
ATOM      6  N   UNL     1      47.985   4.760  15.897  0.00  0.00    +0.000 NA
ATOM      7  C   UNL     1      47.085   4.259  15.005  0.00  0.00    +0.000 A 
ATOM      8  H   UNL     1      50.232   6.944  16.055  0.00  0.00    +0.000 HD
ENDROOT
BRANCH   1  10
ATOM      9  N   UNL     1      44.851   5.112  12.298  0.00  0.00    +0.000 N 
ATOM     10  C   UNL     1      45.716   4.250  12.944  0.00  0.00    +0.000 C 
ATOM     11  O   UNL     1      45.660   3.030  12.837  0.00  0.00    +0.000 OA
ATOM     12  H   UNL     1      45.071   6.098  12.265  0.00  0.00    +0.000 HD
BRANCH   9  14
ATOM     13  C   UNL     1      42.559   5.521  11.564  0.00  0.00    +0.000 C 
ATOM     14  C   UNL     1      43.786   4.626  11.428  0.00  0.00    +0.000 C 
ATOM     15  C   UNL     1      44.241   4.561   9.972  0.00  0.00    +0.000 C 
ENDBRANCH   9  14
ENDBRANCH   1  10
BRANCH   5  16
ATOM     16  C   UNL     1      49.757   5.778  17.727  0.00  0.00    +0.000 C 
BRANCH  16  17
ATOM     17  C   UNL     1      51.298   5.503  17.842  0.00  0.00    +0.000 C 
ATOM     18  C   UNL     1      52.059   6.199  16.687  0.00  0.00    +0.000 C 
ATOM     19  C   UNL     1      51.815   6.119  19.167  0.00  0.00    +0.000 C 
BRANCH  17  20
ATOM     20  C   UNL     1      51.560   3.982  17.764  0.00  0.00    +0.000 A 
ATOM     21  C   UNL     1      52.827   3.450  18.073  0.00  0.00    +0.000 A 
ATOM     22  C   UNL     1      53.033   2.080  17.993  0.00  0.00    +0.000 A 
ATOM     23  N   UNL     1      52.083   1.193  17.634  0.00  0.00    +0.000 NA
ATOM     24  C   UNL     1      50.878   1.705  17.341  0.00  0.00    +0.000 A 
ATOM     25  C   UNL     1      50.573   3.060  17.390  0.00  0.00    +0.000 A 
ENDBRANCH  17  20
ENDBRANCH  16  17
ENDBRANCH   5  16
TORSDOF 5
ENDMDL
MODEL 6
REMARK VINA RESULT:    -5.935      3.225      8.718
REMARK INTER + INTRA:          -8.227
REMARK INTER:                  -7.802
REMARK INTRA:                  -0.425
REMARK UNBOUND:                -0.557
REMARK  Name = 
REMARK  9 active torsions:
REMARK  status: ('A' for Active; 'I' for Inactive)
REMARK    1  A    between atoms: C_1  and  C_2
REMARK    2  A    between atoms: C_2  and  C_3
REMARK    3  A    between atoms: C_2  and  N_4
REMARK    4  A    between atoms: C_5  and  C_7
REMARK    5  A    between atoms: N_11  and  C_12
REMARK    6  A    between atoms: C_12  and  C_13
REMARK    7  A    between atoms: C_13  and  C_14
REMARK    8  A    between atoms: C_13  and  C_15
REMARK    9  A    between atoms: C_13  and  C_16
REMARK                            x       y       z     vdW  Elec       q    Type
REMARK                         _______ _______ _______ _____ _____    ______ ____
ROOT
ATOM      1  C   UNL     1      45.208   4.201  10.370  0.00  0.00    +0.000 A 
ATOM      2  C   UNL     1      44.999   3.904  11.713  0.00  0.00    +0.000 A 
ATOM      3  C   UNL     1      45.218   4.897  12.671  0.00  0.00    +0.000 A 
ATOM      4  C   UNL     1      45.637   6.170  12.279  0.00  0.00    +0.000 A 
ATOM      5  N   UNL     1      45.943   7.098  13.284  0.00  0.00    +0.000 N 
ATOM      6  N   UNL     1      45.834   6.470  10.980  0.00  0.00    +0.000 NA
ATOM      7  C   UNL     1      45.629   5.486  10.059  0.00  0.00    +0.000 A 
ATOM      8  H   UNL     1      45.221   7.088  13.995  0.00  0.00    +0.000 HD
ENDROOT
BRANCH   1  10
ATOM      9  N   UNL     1      46.090   3.174   8.341  0.00  0.00    +0.000 N 
ATOM     10  C   UNL     1      45.078   3.203   9.281  0.00  0.00    +0.000 C 
ATOM     11  O   UNL     1      44.107   2.456   9.253  0.00  0.00    +0.000 OA
ATOM     12  H   UNL     1      46.951   3.668   8.528  0.00  0.00    +0.000 HD
BRANCH   9  14
ATOM     13  C   UNL     1      46.698   2.891   5.993  0.00  0.00    +0.000 C 
ATOM     14  C   UNL     1      46.075   2.238   7.222  0.00  0.00    +0.000 C 
ATOM     15  C   UNL     1      46.809   0.944   7.569  0.00  0.00    +0.000 C 
ENDBRANCH   9  14
ENDBRANCH   1  10
BRANCH   5  16
ATOM     16  C   UNL     1      46.299   8.448  12.823  0.00  0.00    +0.000 C 
BRANCH  16  17
ATOM     17  C   UNL     1      47.820   8.765  13.046  0.00  0.00    +0.000 C 
ATOM     18  C   UNL     1      48.684   8.038  11.988  0.00  0.00    +0.000 C 
ATOM     19  C   UNL     1      48.043  10.286  12.854  0.00  0.00    +0.000 C 
BRANCH  17  20
ATOM     20  C   UNL     1      48.249   8.284  14.452  0.00  0.00    +0.000 A 
ATOM     21  C   UNL     1      48.125   9.127  15.573  0.00  0.00    +0.000 A 
ATOM     22  C   UNL     1      48.519   8.668  16.822  0.00  0.00    +0.000 A 
ATOM     23  N   UNL     1      49.024   7.439  17.050  0.00  0.00    +0.000 NA
ATOM     24  C   UNL     1      49.140   6.640  15.978  0.00  0.00    +0.000 A 
ATOM     25  C   UNL     1      48.774   7.007  14.688  0.00  0.00    +0.000 A 
ENDBRANCH  17  20
ENDBRANCH  16  17
ENDBRANCH   5  16
TORSDOF 5
ENDMDL
MODEL 7
REMARK VINA RESULT:    -5.914      2.790      8.178
REMARK INTER + INTRA:          -8.199
REMARK INTER:                  -7.348
REMARK INTRA:                  -0.851
REMARK UNBOUND:                -0.557
REMARK  Name = 
REMARK  9 active torsions:
REMARK  status: ('A' for Active; 'I' for Inactive)
REMARK    1  A    between atoms: C_1  and  C_2
REMARK    2  A    between atoms: C_2  and  C_3
REMARK    3  A    between atoms: C_2  and  N_4
REMARK    4  A    between atoms: C_5  and  C_7
REMARK    5  A    between atoms: N_11  and  C_12
REMARK    6  A    between atoms: C_12  and  C_13
REMARK    7  A    between atoms: C_13  and  C_14
REMARK    8  A    between atoms: C_13  and  C_15
REMARK    9  A    between atoms: C_13  and  C_16
REMARK                            x       y       z     vdW  Elec       q    Type
REMARK                         _______ _______ _______ _____ _____    ______ ____
ROOT
ATOM      1  C   UNL     1      46.148   6.568  12.328  0.00  0.00    +0.000 A 
ATOM      2  C   UNL     1      46.177   7.907  12.700  0.00  0.00    +0.000 A 
ATOM      3  C   UNL     1      47.162   8.345  13.587  0.00  0.00    +0.000 A 
ATOM      4  C   UNL     1      48.106   7.446  14.088  0.00  0.00    +0.000 A 
ATOM      5  N   UNL     1      49.008   7.912  15.055  0.00  0.00    +0.000 N 
ATOM      6  N   UNL     1      48.091   6.148  13.727  0.00  0.00    +0.000 NA
ATOM      7  C   UNL     1      47.115   5.734  12.871  0.00  0.00    +0.000 A 
ATOM      8  H   UNL     1      49.384   8.809  14.773  0.00  0.00    +0.000 HD
ENDROOT
BRANCH   1  10
ATOM      9  N   UNL     1      45.489   4.938  10.636  0.00  0.00    +0.000 N 
ATOM     10  C   UNL     1      45.103   5.983  11.453  0.00  0.00    +0.000 C 
ATOM     11  O   UNL     1      43.963   6.431  11.485  0.00  0.00    +0.000 OA
ATOM     12  H   UNL     1      46.378   4.487  10.800  0.00  0.00    +0.000 HD
BRANCH   9  14
ATOM     13  C   UNL     1      45.204   4.083   8.367  0.00  0.00    +0.000 C 
ATOM     14  C   UNL     1      44.552   4.282   9.731  0.00  0.00    +0.000 C 
ATOM     15  C   UNL     1      44.077   2.944  10.295  0.00  0.00    +0.000 C 
ENDBRANCH   9  14
ENDBRANCH   1  10
BRANCH   5  16
ATOM     16  C   UNL     1      50.033   6.952  15.490  0.00  0.00    +0.000 C 
BRANCH  16  17
ATOM     17  C   UNL     1      49.889   6.583  17.008  0.00  0.00    +0.000 C 
ATOM     18  C   UNL     1      51.281   6.493  17.678  0.00  0.00    +0.000 C 
ATOM     19  C   UNL     1      49.108   7.715  17.723  0.00  0.00    +0.000 C 
BRANCH  17  20
ATOM     20  C   UNL     1      49.184   5.213  17.143  0.00  0.00    +0.000 A 
ATOM     21  C   UNL     1      49.924   4.041  17.393  0.00  0.00    +0.000 A 
ATOM     22  C   UNL     1      49.264   2.825  17.509  0.00  0.00    +0.000 A 
ATOM     23  N   UNL     1      47.928   2.679  17.399  0.00  0.00    +0.000 NA
ATOM     24  C   UNL     1      47.228   3.798  17.161  0.00  0.00    +0.000 A 
ATOM     25  C   UNL     1      47.796   5.060  17.028  0.00  0.00    +0.000 A 
ENDBRANCH  17  20
ENDBRANCH  16  17
ENDBRANCH   5  16
TORSDOF 5
ENDMDL
MODEL 8
REMARK VINA RESULT:    -5.783      2.490      9.181
REMARK INTER + INTRA:          -8.031
REMARK INTER:                  -7.465
REMARK INTRA:                  -0.565
REMARK UNBOUND:                -0.557
REMARK  Name = 
REMARK  9 active torsions:
REMARK  status: ('A' for Active; 'I' for Inactive)
REMARK    1  A    between atoms: C_1  and  C_2
REMARK    2  A    between atoms: C_2  and  C_3
REMARK    3  A    between atoms: C_2  and  N_4
REMARK    4  A    between atoms: C_5  and  C_7
REMARK    5  A    between atoms: N_11  and  C_12
REMARK    6  A    between atoms: C_12  and  C_13
REMARK    7  A    between atoms: C_13  and  C_14
REMARK    8  A    between atoms: C_13  and  C_15
REMARK    9  A    between atoms: C_13  and  C_16
REMARK                            x       y       z     vdW  Elec       q    Type
REMARK                         _______ _______ _______ _____ _____    ______ ____
ROOT
ATOM      1  C   UNL     1      45.682   4.921  12.023  0.00  0.00    +0.000 A 
ATOM      2  C   UNL     1      46.261   6.183  12.107  0.00  0.00    +0.000 A 
ATOM      3  C   UNL     1      47.013   6.513  13.236  0.00  0.00    +0.000 A 
ATOM      4  C   UNL     1      47.181   5.581  14.263  0.00  0.00    +0.000 A 
ATOM      5  N   UNL     1      47.855   5.996  15.421  0.00  0.00    +0.000 N 
ATOM      6  N   UNL     1      46.631   4.354  14.188  0.00  0.00    +0.000 NA
ATOM      7  C   UNL     1      45.889   4.053  13.085  0.00  0.00    +0.000 A 
ATOM      8  H   UNL     1      48.693   6.506  15.168  0.00  0.00    +0.000 HD
ENDROOT
BRANCH   1  10
ATOM      9  N   UNL     1      45.299   3.519  10.064  0.00  0.00    +0.000 N 
ATOM     10  C   UNL     1      44.804   4.495  10.906  0.00  0.00    +0.000 C 
ATOM     11  O   UNL     1      43.699   5.008  10.772  0.00  0.00    +0.000 OA
ATOM     12  H   UNL     1      46.120   2.998  10.341  0.00  0.00    +0.000 HD
BRANCH   9  14
ATOM     13  C   UNL     1      45.093   3.587   7.632  0.00  0.00    +0.000 C 
ATOM     14  C   UNL     1      44.531   3.018   8.930  0.00  0.00    +0.000 C 
ATOM     15  C   UNL     1      44.531   1.491   8.887  0.00  0.00    +0.000 C 
ENDBRANCH   9  14
ENDBRANCH   1  10
BRANCH   5  16
ATOM     16  C   UNL     1      48.080   4.959  16.438  0.00  0.00    +0.000 C 
BRANCH  16  17
ATOM     17  C   UNL     1      49.229   5.347  17.432  0.00  0.00    +0.000 C 
ATOM     18  C   UNL     1      50.001   4.084  17.887  0.00  0.00    +0.000 C 
ATOM     19  C   UNL     1      50.240   6.259  16.692  0.00  0.00    +0.000 C 
BRANCH  17  20
ATOM     20  C   UNL     1      48.626   6.035  18.678  0.00  0.00    +0.000 A 
ATOM     21  C   UNL     1      48.201   5.279  19.788  0.00  0.00    +0.000 A 
ATOM     22  C   UNL     1      47.663   5.925  20.892  0.00  0.00    +0.000 A 
ATOM     23  N   UNL     1      47.514   7.262  20.986  0.00  0.00    +0.000 NA
ATOM     24  C   UNL     1      47.920   7.978  19.927  0.00  0.00    +0.000 A 
ATOM     25  C   UNL     1      48.471   7.425  18.776  0.00  0.00    +0.000 A 
ENDBRANCH  17  20
ENDBRANCH  16  17
ENDBRANCH   5  16
TORSDOF 5
ENDMDL
MODEL 9
REMARK VINA RESULT:    -5.759      3.822      8.353
REMARK INTER + INTRA:          -7.999
REMARK INTER:                  -7.323
REMARK INTRA:                  -0.677
REMARK UNBOUND:                -0.557
REMARK  Name = 
REMARK  9 active torsions:
REMARK  status: ('A' for Active; 'I' for Inactive)
REMARK    1  A    between atoms: C_1  and  C_2
REMARK    2  A    between atoms: C_2  and  C_3
REMARK    3  A    between atoms: C_2  and  N_4
REMARK    4  A    between atoms: C_5  and  C_7
REMARK    5  A    between atoms: N_11  and  C_12
REMARK    6  A    between atoms: C_12  and  C_13
REMARK    7  A    between atoms: C_13  and  C_14
REMARK    8  A    between atoms: C_13  and  C_15
REMARK    9  A    between atoms: C_13  and  C_16
REMARK                            x       y       z     vdW  Elec       q    Type
REMARK                         _______ _______ _______ _____ _____    ______ ____
ROOT
ATOM      1  C   UNL     1      45.077   4.894  10.747  0.00  0.00    +0.000 A 
ATOM      2  C   UNL     1      44.457   4.874  11.991  0.00  0.00    +0.000 A 
ATOM      3  C   UNL     1      44.789   5.850  12.933  0.00  0.00    +0.000 A 
ATOM      4  C   UNL     1      45.731   6.833  12.622  0.00  0.00    +0.000 A 
ATOM      5  N   UNL     1      46.107   7.725  13.636  0.00  0.00    +0.000 N 
ATOM      6  N   UNL     1      46.332   6.866  11.417  0.00  0.00    +0.000 NA
ATOM      7  C   UNL     1      46.006   5.899  10.514  0.00  0.00    +0.000 A 
ATOM      8  H   UNL     1      45.285   8.063  14.122  0.00  0.00    +0.000 HD
ENDROOT
BRANCH   1  10
ATOM      9  N   UNL     1      45.822   3.752   8.724  0.00  0.00    +0.000 N 
ATOM     10  C   UNL     1      44.854   3.864   9.703  0.00  0.00    +0.000 C 
ATOM     11  O   UNL     1      43.849   3.164   9.744  0.00  0.00    +0.000 OA
ATOM     12  H   UNL     1      46.713   4.210   8.856  0.00  0.00    +0.000 HD
BRANCH   9  14
ATOM     13  C   UNL     1      46.466   3.281   6.416  0.00  0.00    +0.000 C 
ATOM     14  C   UNL     1      45.715   2.777   7.644  0.00  0.00    +0.000 C 
ATOM     15  C   UNL     1      46.248   1.411   8.071  0.00  0.00    +0.000 C 
ENDBRANCH   9  14
ENDBRANCH   1  10
BRANCH   5  16
ATOM     16  C   UNL     1      47.038   8.791  13.239  0.00  0.00    +0.000 C 
BRANCH  16  17
ATOM     17  C   UNL     1      48.446   8.626  13.911  0.00  0.00    +0.000 C 
ATOM     18  C   UNL     1      48.685   9.750  14.948  0.00  0.00    +0.000 C 
ATOM     19  C   UNL     1      48.475   7.281  14.679  0.00  0.00    +0.000 C 
BRANCH  17  20
ATOM     20  C   UNL     1      49.548   8.705  12.830  0.00  0.00    +0.000 A 
ATOM     21  C   UNL     1      49.820   7.606  11.993  0.00  0.00    +0.000 A 
ATOM     22  C   UNL     1      50.817   7.706  11.032  0.00  0.00    +0.000 A 
ATOM     23  N   UNL     1      51.564   8.811  10.832  0.00  0.00    +0.000 NA
ATOM     24  C   UNL     1      51.302   9.855  11.632  0.00  0.00    +0.000 A 
ATOM     25  C   UNL     1      50.326   9.853  12.623  0.00  0.00    +0.000 A 
ENDBRANCH  17  20
ENDBRANCH  16  17
ENDBRANCH   5  16
TORSDOF 5
ENDMDL
