MODEL 1
REMARK VINA RESULT:    -7.992      0.000      0.000
REMARK INTER + INTRA:         -11.871
REMARK INTER:                 -10.795
REMARK INTRA:                  -1.076
REMARK UNBOUND:                -1.076
REMARK  Name = 
REMARK  6 active torsions:
REMARK  status: ('A' for Active; 'I' for Inactive)
REMARK    1  A    between atoms: C_2  and  C_25
REMARK    2  A    between atoms: N_3  and  C_4
REMARK    3  A    between atoms: C_4  and  C_5
REMARK    4  A    between atoms: C_8  and  C_9
REMARK    5  A    between atoms: C_9  and  N_10
REMARK    6  A    between atoms: C_11  and  C_13
REMARK                            x       y       z     vdW  Elec       q    Type
REMARK                         _______ _______ _______ _____ _____    ______ ____
ROOT
ATOM      1  C   UNL     1      44.898   5.762  10.849  0.00  0.00    +0.000 A 
ATOM      2  C   UNL     1      46.295   5.830  10.749  0.00  0.00    +0.000 A 
ATOM      3  C   UNL     1      47.033   6.651  11.609  0.00  0.00    +0.000 A 
ATOM      4  C   UNL     1      46.391   7.407  12.598  0.00  0.00    +0.000 A 
ATOM      5  C   UNL     1      44.993   7.355  12.683  0.00  0.00    +0.000 A 
ATOM      6  C   UNL     1      44.256   6.533  11.825  0.00  0.00    +0.000 A 
ENDROOT
BRANCH   1   7
ATOM      7  C   UNL     1      44.104   4.879   9.924  0.00  0.00    +0.000 C 
BRANCH   7  10
ATOM      8  O   UNL     1      44.438   2.153  10.021  0.00  0.00    +0.000 OA
ATOM      9  C   UNL     1      45.051   2.757   9.140  0.00  0.00    +0.000 C 
ATOM     10  N   UNL     1      44.940   4.132   9.017  0.00  0.00    +0.000 N 
ATOM     11  H   UNL     1      45.466   4.605   8.288  0.00  0.00    +0.000 HD
BRANCH   9  12
ATOM     12  C   UNL     1      45.922   2.115   8.166  0.00  0.00    +0.000 A 
ATOM     13  N   UNL     1      46.261   0.840   8.203  0.00  0.00    +0.000 NA
ATOM     14  N   UNL     1      47.100   0.501   7.156  0.00  0.00    +0.000 NA
ATOM     15  C   UNL     1      47.354   1.533   6.381  0.00  0.00    +0.000 A 
ATOM     16  S   UNL     1      46.596   2.993   6.855  0.00  0.00    +0.000 S 
ENDBRANCH   9  12
ENDBRANCH   7  10
ENDBRANCH   1   7
BRANCH   4  17
ATOM     17  C   UNL     1      47.177   8.283  13.542  0.00  0.00    +0.000 C 
BRANCH  17  18
ATOM     18  N   UNL     1      47.595   7.558  14.714  0.00  0.00    +0.000 N 
ATOM     19  C   UNL     1      48.826   6.957  14.777  0.00  0.00    +0.000 C 
ATOM     20  O   UNL     1      49.643   7.043  13.865  0.00  0.00    +0.000 OA
ATOM     21  H   UNL     1      46.866   7.268  15.358  0.00  0.00    +0.000 HD
BRANCH  19  22
ATOM     22  C   UNL     1      49.144   6.253  16.027  0.00  0.00    +0.000 A 
ATOM     23  C   UNL     1      50.200   6.694  16.817  0.00  0.00    +0.000 A 
ATOM     24  S   UNL     1      50.395   5.803  18.258  0.00  0.00    +0.000 S 
ATOM     25  C   UNL     1      49.111   4.763  17.852  0.00  0.00    +0.000 A 
ATOM     26  N   UNL     1      48.761   3.732  18.667  0.00  0.00    +0.000 NA
ATOM     27  C   UNL     1      47.793   3.003  18.219  0.00  0.00    +0.000 A 
ATOM     28  N   UNL     1      47.142   3.213  17.032  0.00  0.00    +0.000 N 
ATOM     29  C   UNL     1      47.439   4.261  16.193  0.00  0.00    +0.000 A 
ATOM     30  O   UNL     1      46.802   4.450  15.162  0.00  0.00    +0.000 OA
ATOM     31  C   UNL     1      48.530   5.102  16.643  0.00  0.00    +0.000 A 
ATOM     32  H   UNL     1      46.384   2.612  16.744  0.00  0.00    +0.000 HD
ENDBRANCH  19  22
ENDBRANCH  17  18
ENDBRANCH   4  17
TORSDOF 6
ENDMDL
MODEL 2
REMARK VINA RESULT:    -7.572      1.874      2.224
REMARK INTER + INTRA:         -11.303
REMARK INTER:                 -10.380
REMARK INTRA:                  -0.923
REMARK UNBOUND:                -1.076
REMARK  Name = 
REMARK  6 active torsions:
REMARK  status: ('A' for Active; 'I' for Inactive)
REMARK    1  A    between atoms: C_2  and  C_25
REMARK    2  A    between atoms: N_3  and  C_4
REMARK    3  A    between atoms: C_4  and  C_5
REMARK    4  A    between atoms: C_8  and  C_9
REMARK    5  A    between atoms: C_9  and  N_10
REMARK    6  A    between atoms: C_11  and  C_13
REMARK                            x       y       z     vdW  Elec       q    Type
REMARK                         _______ _______ _______ _____ _____    ______ ____
ROOT
ATOM      1  C   UNL     1      44.626   4.840  11.684  0.00  0.00    +0.000 A 
ATOM      2  C   UNL     1      45.749   4.846  12.523  0.00  0.00    +0.000 A 
ATOM      3  C   UNL     1      46.316   6.052  12.948  0.00  0.00    +0.000 A 
ATOM      4  C   UNL     1      45.760   7.278  12.559  0.00  0.00    +0.000 A 
ATOM      5  C   UNL     1      44.650   7.271  11.703  0.00  0.00    +0.000 A 
ATOM      6  C   UNL     1      44.083   6.065  11.279  0.00  0.00    +0.000 A 
ENDROOT
BRANCH   1   7
ATOM      7  C   UNL     1      44.016   3.542  11.226  0.00  0.00    +0.000 C 
BRANCH   7  10
ATOM      8  O   UNL     1      44.289   3.961   8.524  0.00  0.00    +0.000 OA
ATOM      9  C   UNL     1      44.973   3.064   9.019  0.00  0.00    +0.000 C 
ATOM     10  N   UNL     1      44.899   2.785  10.374  0.00  0.00    +0.000 N 
ATOM     11  H   UNL     1      45.466   2.033  10.753  0.00  0.00    +0.000 HD
BRANCH   9  12
ATOM     12  C   UNL     1      45.901   2.234   8.264  0.00  0.00    +0.000 A 
ATOM     13  N   UNL     1      46.010   0.927   8.408  0.00  0.00    +0.000 NA
ATOM     14  N   UNL     1      46.971   0.396   7.567  0.00  0.00    +0.000 NA
ATOM     15  C   UNL     1      47.542   1.324   6.831  0.00  0.00    +0.000 A 
ATOM     16  S   UNL     1      46.958   2.912   7.095  0.00  0.00    +0.000 S 
ENDBRANCH   9  12
ENDBRANCH   7  10
ENDBRANCH   1   7
BRANCH   4  17
ATOM     17  C   UNL     1      46.351   8.585  13.024  0.00  0.00    +0.000 C 
BRANCH  17  18
ATOM     18  N   UNL     1      46.905   8.474  14.349  0.00  0.00    +0.000 N 
ATOM     19  C   UNL     1      48.098   9.068  14.672  0.00  0.00    +0.000 C 
ATOM     20  O   UNL     1      48.726   9.753  13.870  0.00  0.00    +0.000 OA
ATOM     21  H   UNL     1      46.544   7.729  14.936  0.00  0.00    +0.000 HD
BRANCH  19  22
ATOM     22  C   UNL     1      48.558   8.893  16.057  0.00  0.00    +0.000 A 
ATOM     23  C   UNL     1      48.641   9.996  16.900  0.00  0.00    +0.000 A 
ATOM     24  S   UNL     1      49.136   9.608  18.485  0.00  0.00    +0.000 S 
ATOM     25  C   UNL     1      49.311   7.963  18.087  0.00  0.00    +0.000 A 
ATOM     26  N   UNL     1      49.742   7.061  19.009  0.00  0.00    +0.000 NA
ATOM     27  C   UNL     1      49.861   5.856  18.561  0.00  0.00    +0.000 A 
ATOM     28  N   UNL     1      49.585   5.470  17.276  0.00  0.00    +0.000 N 
ATOM     29  C   UNL     1      49.115   6.339  16.320  0.00  0.00    +0.000 A 
ATOM     30  O   UNL     1      48.829   5.949  15.192  0.00  0.00    +0.000 OA
ATOM     31  C   UNL     1      48.977   7.710  16.768  0.00  0.00    +0.000 A 
ATOM     32  H   UNL     1      49.689   4.507  16.991  0.00  0.00    +0.000 HD
ENDBRANCH  19  22
ENDBRANCH  17  18
ENDBRANCH   4  17
TORSDOF 6
ENDMDL
MODEL 3
REMARK VINA RESULT:    -7.347      2.234      2.572
REMARK INTER + INTRA:         -11.000
REMARK INTER:                 -10.107
REMARK INTRA:                  -0.893
REMARK UNBOUND:                -1.076
REMARK  Name = 
REMARK  6 active torsions:
REMARK  status: ('A' for Active; 'I' for Inactive)
REMARK    1  A    between atoms: C_2  and  C_25
REMARK    2  A    between atoms: N_3  and  C_4
REMARK    3  A    between atoms: C_4  and  C_5
REMARK    4  A    between atoms: C_8  and  C_9
REMARK    5  A    between atoms: C_9  and  N_10
REMARK    6  A    between atoms: C_11  and  C_13
REMARK                            x       y       z     vdW  Elec       q    Type
REMARK                         _______ _______ _______ _____ _____    ______ ____
ROOT
ATOM      1  C   UNL     1      45.122   5.546  11.471  0.00  0.00    +0.000 A 
ATOM      2  C   UNL     1      45.977   4.859  12.344  0.00  0.00    +0.000 A 
ATOM      3  C   UNL     1      46.902   5.553  13.131  0.00  0.00    +0.000 A 
ATOM      4  C   UNL     1      46.979   6.950  13.076  0.00  0.00    +0.000 A 
ATOM      5  C   UNL     1      46.139   7.635  12.187  0.00  0.00    +0.000 A 
ATOM      6  C   UNL     1      45.213   6.941  11.401  0.00  0.00    +0.000 A 
ENDROOT
BRANCH   1   7
ATOM      7  C   UNL     1      44.127   4.799  10.624  0.00  0.00    +0.000 C 
BRANCH   7  10
ATOM      8  O   UNL     1      45.670   4.948   8.355  0.00  0.00    +0.000 OA
ATOM      9  C   UNL     1      45.474   3.825   8.820  0.00  0.00    +0.000 C 
ATOM     10  N   UNL     1      44.708   3.658   9.963  0.00  0.00    +0.000 N 
ATOM     11  H   UNL     1      44.553   2.719  10.318  0.00  0.00    +0.000 HD
BRANCH   9  12
ATOM     12  C   UNL     1      46.007   2.598   8.246  0.00  0.00    +0.000 A 
ATOM     13  N   UNL     1      45.749   1.390   8.710  0.00  0.00    +0.000 NA
ATOM     14  N   UNL     1      46.389   0.409   7.974  0.00  0.00    +0.000 NA
ATOM     15  C   UNL     1      47.100   0.921   6.993  0.00  0.00    +0.000 A 
ATOM     16  S   UNL     1      47.046   2.629   6.881  0.00  0.00    +0.000 S 
ENDBRANCH   9  12
ENDBRANCH   7  10
ENDBRANCH   1   7
BRANCH   4  17
ATOM     17  C   UNL     1      47.960   7.711  13.932  0.00  0.00    +0.000 C 
BRANCH  17  18
ATOM     18  N   UNL     1      47.940   7.252  15.297  0.00  0.00    +0.000 N 
ATOM     19  C   UNL     1      49.063   6.731  15.888  0.00  0.00    +0.000 C 
ATOM     20  O   UNL     1      50.141   6.671  15.304  0.00  0.00    +0.000 OA
ATOM     21  H   UNL     1      47.030   7.063  15.703  0.00  0.00    +0.000 HD
BRANCH  19  22
ATOM     22  C   UNL     1      48.923   6.304  17.287  0.00  0.00    +0.000 A 
ATOM     23  C   UNL     1      49.297   5.016  17.655  0.00  0.00    +0.000 A 
ATOM     24  S   UNL     1      49.125   4.705  19.323  0.00  0.00    +0.000 S 
ATOM     25  C   UNL     1      48.494   6.261  19.603  0.00  0.00    +0.000 A 
ATOM     26  N   UNL     1      48.107   6.645  20.849  0.00  0.00    +0.000 NA
ATOM     27  C   UNL     1      47.614   7.837  20.910  0.00  0.00    +0.000 A 
ATOM     28  N   UNL     1      47.478   8.682  19.840  0.00  0.00    +0.000 N 
ATOM     29  C   UNL     1      47.886   8.349  18.569  0.00  0.00    +0.000 A 
ATOM     30  O   UNL     1      47.796   9.148  17.643  0.00  0.00    +0.000 OA
ATOM     31  C   UNL     1      48.433   7.013  18.443  0.00  0.00    +0.000 A 
ATOM     32  H   UNL     1      47.094   9.608  19.956  0.00  0.00    +0.000 HD
ENDBRANCH  19  22
ENDBRANCH  17  18
ENDBRANCH   4  17
TORSDOF 6
ENDMDL
MODEL 4
REMARK VINA RESULT:    -6.873      3.398      5.158
REMARK INTER + INTRA:         -10.359
REMARK INTER:                  -9.534
REMARK INTRA:                  -0.825
REMARK UNBOUND:                -1.076
REMARK  Name = 
REMARK  6 active torsions:
REMARK  status: ('A' for Active; 'I' for Inactive)
REMARK    1  A    between atoms: C_2  and  C_25
REMARK    2  A    between atoms: N_3  and  C_4
REMARK    3  A    between atoms: C_4  and  C_5
REMARK    4  A    between atoms: C_8  and  C_9
REMARK    5  A    between atoms: C_9  and  N_10
REMARK    6  A    between atoms: C_11  and  C_13
REMARK                            x       y       z     vdW  Elec       q    Type
REMARK                         _______ _______ _______ _____ _____    ______ ____
ROOT
ATOM      1  C   UNL     1      47.474   5.916  14.075  0.00  0.00    +0.000 A 
ATOM      2  C   UNL     1      46.890   4.645  14.162  0.00  0.00    +0.000 A 
ATOM      3  C   UNL     1      47.070   3.852  15.301  0.00  0.00    +0.000 A 
ATOM      4  C   UNL     1      47.822   4.323  16.385  0.00  0.00    +0.000 A 
ATOM      5  C   UNL     1      48.424   5.584  16.289  0.00  0.00    +0.000 A 
ATOM      6  C   UNL     1      48.242   6.378  15.150  0.00  0.00    +0.000 A 
ENDROOT
BRANCH   1   7
ATOM      7  C   UNL     1      47.280   6.769  12.850  0.00  0.00    +0.000 C 
BRANCH   7  10
ATOM      8  O   UNL     1      44.848   6.895  11.576  0.00  0.00    +0.000 OA
ATOM      9  C   UNL     1      45.683   6.120  11.106  0.00  0.00    +0.000 C 
ATOM     10  N   UNL     1      46.935   5.994  11.685  0.00  0.00    +0.000 N 
ATOM     11  H   UNL     1      47.600   5.340  11.282  0.00  0.00    +0.000 HD
BRANCH   9  12
ATOM     12  C   UNL     1      45.454   5.288   9.933  0.00  0.00    +0.000 A 
ATOM     13  N   UNL     1      46.149   5.379   8.814  0.00  0.00    +0.000 NA
ATOM     14  N   UNL     1      45.716   4.469   7.866  0.00  0.00    +0.000 NA
ATOM     15  C   UNL     1      44.718   3.738   8.312  0.00  0.00    +0.000 A 
ATOM     16  S   UNL     1      44.226   4.090   9.914  0.00  0.00    +0.000 S 
ENDBRANCH   9  12
ENDBRANCH   7  10
ENDBRANCH   1   7
BRANCH   4  17
ATOM     17  C   UNL     1      48.010   3.485  17.625  0.00  0.00    +0.000 C 
BRANCH  17  18
ATOM     18  N   UNL     1      49.402   3.225  17.883  0.00  0.00    +0.000 N 
ATOM     19  C   UNL     1      50.104   2.309  17.142  0.00  0.00    +0.000 C 
ATOM     20  O   UNL     1      49.598   1.702  16.203  0.00  0.00    +0.000 OA
ATOM     21  H   UNL     1      49.763   3.517  18.786  0.00  0.00    +0.000 HD
BRANCH  19  22
ATOM     22  C   UNL     1      51.521   2.135  17.493  0.00  0.00    +0.000 A 
ATOM     23  C   UNL     1      52.040   0.855  17.652  0.00  0.00    +0.000 A 
ATOM     24  S   UNL     1      53.709   0.833  18.000  0.00  0.00    +0.000 S 
ATOM     25  C   UNL     1      53.786   2.533  18.005  0.00  0.00    +0.000 A 
ATOM     26  N   UNL     1      54.952   3.181  18.270  0.00  0.00    +0.000 NA
ATOM     27  C   UNL     1      54.858   4.469  18.275  0.00  0.00    +0.000 A 
ATOM     28  N   UNL     1      53.704   5.168  18.035  0.00  0.00    +0.000 N 
ATOM     29  C   UNL     1      52.511   4.557  17.730  0.00  0.00    +0.000 A 
ATOM     30  O   UNL     1      51.508   5.215  17.470  0.00  0.00    +0.000 OA
ATOM     31  C   UNL     1      52.559   3.109  17.726  0.00  0.00    +0.000 A 
ATOM     32  H   UNL     1      53.700   6.178  18.044  0.00  0.00    +0.000 HD
ENDBRANCH  19  22
ENDBRANCH  17  18
ENDBRANCH   4  17
TORSDOF 6
ENDMDL
MODEL 5
REMARK VINA RESULT:    -6.768      2.303      3.136
REMARK INTER + INTRA:         -10.217
REMARK INTER:                  -9.241
REMARK INTRA:                  -0.976
REMARK UNBOUND:                -1.076
REMARK  Name = 
REMARK  6 active torsions:
REMARK  status: ('A' for Active; 'I' for Inactive)
REMARK    1  A    between atoms: C_2  and  C_25
REMARK    2  A    between atoms: N_3  and  C_4
REMARK    3  A    between atoms: C_4  and  C_5
REMARK    4  A    between atoms: C_8  and  C_9
REMARK    5  A    between atoms: C_9  and  N_10
REMARK    6  A    between atoms: C_11  and  C_13
REMARK                            x       y       z     vdW  Elec       q    Type
REMARK                         _______ _______ _______ _____ _____    ______ ____
ROOT
ATOM      1  C   UNL     1      45.394   5.023  11.723  0.00  0.00    +0.000 A 
ATOM      2  C   UNL     1      45.770   4.695  13.033  0.00  0.00    +0.000 A 
ATOM      3  C   UNL     1      46.642   5.520  13.753  0.00  0.00    +0.000 A 
ATOM      4  C   UNL     1      47.139   6.700  13.185  0.00  0.00    +0.000 A 
ATOM      5  C   UNL     1      46.779   7.016  11.868  0.00  0.00    +0.000 A 
ATOM      6  C   UNL     1      45.907   6.192  11.149  0.00  0.00    +0.000 A 
ENDROOT
BRANCH   1   7
ATOM      7  C   UNL     1      44.457   4.136  10.948  0.00  0.00    +0.000 C 
BRANCH   7  10
ATOM      8  O   UNL     1      44.919   4.392   8.251  0.00  0.00    +0.000 OA
ATOM      9  C   UNL     1      45.341   3.369   8.793  0.00  0.00    +0.000 C 
ATOM     10  N   UNL     1      45.153   3.159  10.149  0.00  0.00    +0.000 N 
ATOM     11  H   UNL     1      45.502   2.301  10.567  0.00  0.00    +0.000 HD
BRANCH   9  12
ATOM     12  C   UNL     1      46.060   2.313   8.094  0.00  0.00    +0.000 A 
ATOM     13  N   UNL     1      46.011   1.038   8.430  0.00  0.00    +0.000 NA
ATOM     14  N   UNL     1      46.792   0.257   7.597  0.00  0.00    +0.000 NA
ATOM     15  C   UNL     1      47.392   0.977   6.675  0.00  0.00    +0.000 A 
ATOM     16  S   UNL     1      47.057   2.655   6.740  0.00  0.00    +0.000 S 
ENDBRANCH   9  12
ENDBRANCH   7  10
ENDBRANCH   1   7
BRANCH   4  17
ATOM     17  C   UNL     1      48.065   7.606  13.957  0.00  0.00    +0.000 C 
BRANCH  17  18
ATOM     18  N   UNL     1      49.022   6.854  14.728  0.00  0.00    +0.000 N 
ATOM     19  C   UNL     1      49.124   7.016  16.086  0.00  0.00    +0.000 C 
ATOM     20  O   UNL     1      48.384   7.768  16.713  0.00  0.00    +0.000 OA
ATOM     21  H   UNL     1      49.788   6.428  14.218  0.00  0.00    +0.000 HD
BRANCH  19  22
ATOM     22  C   UNL     1      50.130   6.188  16.767  0.00  0.00    +0.000 A 
ATOM     23  C   UNL     1      49.728   5.256  17.716  0.00  0.00    +0.000 A 
ATOM     24  S   UNL     1      51.013   4.342  18.365  0.00  0.00    +0.000 S 
ATOM     25  C   UNL     1      52.158   5.196  17.440  0.00  0.00    +0.000 A 
ATOM     26  N   UNL     1      53.486   4.921  17.542  0.00  0.00    +0.000 NA
ATOM     27  C   UNL     1      54.244   5.668  16.810  0.00  0.00    +0.000 A 
ATOM     28  N   UNL     1      53.793   6.662  15.982  0.00  0.00    +0.000 N 
ATOM     29  C   UNL     1      52.459   6.953  15.822  0.00  0.00    +0.000 A 
ATOM     30  O   UNL     1      52.087   7.817  15.033  0.00  0.00    +0.000 OA
ATOM     31  C   UNL     1      51.566   6.152  16.634  0.00  0.00    +0.000 A 
ATOM     32  H   UNL     1      54.438   7.205  15.426  0.00  0.00    +0.000 HD
ENDBRANCH  19  22
ENDBRANCH  17  18
ENDBRANCH   4  17
TORSDOF 6
ENDMDL
MODEL 6
REMARK VINA RESULT:    -6.730      2.872      8.066
REMARK INTER + INTRA:         -10.167
REMARK INTER:                  -9.302
REMARK INTRA:                  -0.864
REMARK UNBOUND:                -1.076
REMARK  Name = 
REMARK  6 active torsions:
REMARK  status: ('A' for Active; 'I' for Inactive)
REMARK    1  A    between atoms: C_2  and  C_25
REMARK    2  A    between atoms: N_3  and  C_4
REMARK    3  A    between atoms: C_4  and  C_5
REMARK    4  A    between atoms: C_8  and  C_9
REMARK    5  A    between atoms: C_9  and  N_10
REMARK    6  A    between atoms: C_11  and  C_13
REMARK                            x       y       z     vdW  Elec       q    Type
REMARK                         _______ _______ _______ _____ _____    ______ ____
ROOT
ATOM      1  C   UNL     1      49.926   6.734  16.151  0.00  0.00    +0.000 A 
ATOM      2  C   UNL     1      50.617   7.634  15.327  0.00  0.00    +0.000 A 
ATOM      3  C   UNL     1      50.100   8.001  14.080  0.00  0.00    +0.000 A 
ATOM      4  C   UNL     1      48.871   7.492  13.639  0.00  0.00    +0.000 A 
ATOM      5  C   UNL     1      48.192   6.577  14.454  0.00  0.00    +0.000 A 
ATOM      6  C   UNL     1      48.708   6.210  15.701  0.00  0.00    +0.000 A 
ENDROOT
BRANCH   1   7
ATOM      7  C   UNL     1      50.482   6.338  17.492  0.00  0.00    +0.000 C 
BRANCH   7  10
ATOM      8  O   UNL     1      49.407   3.899  18.160  0.00  0.00    +0.000 OA
ATOM      9  C   UNL     1      50.585   3.907  17.801  0.00  0.00    +0.000 C 
ATOM     10  N   UNL     1      51.207   5.093  17.446  0.00  0.00    +0.000 N 
ATOM     11  H   UNL     1      52.183   5.072  17.165  0.00  0.00    +0.000 HD
BRANCH   9  12
ATOM     12  C   UNL     1      51.420   2.718  17.711  0.00  0.00    +0.000 A 
ATOM     13  N   UNL     1      50.980   1.532  17.332  0.00  0.00    +0.000 NA
ATOM     14  N   UNL     1      51.987   0.584  17.342  0.00  0.00    +0.000 NA
ATOM     15  C   UNL     1      53.136   1.096  17.727  0.00  0.00    +0.000 A 
ATOM     16  S   UNL     1      53.089   2.766  18.105  0.00  0.00    +0.000 S 
ENDBRANCH   9  12
ENDBRANCH   7  10
ENDBRANCH   1   7
BRANCH   4  17
ATOM     17  C   UNL     1      48.295   7.894  12.304  0.00  0.00    +0.000 C 
BRANCH  17  18
ATOM     18  N   UNL     1      47.578   6.808  11.688  0.00  0.00    +0.000 N 
ATOM     19  C   UNL     1      46.225   6.882  11.474  0.00  0.00    +0.000 C 
ATOM     20  O   UNL     1      45.572   7.883  11.752  0.00  0.00    +0.000 OA
ATOM     21  H   UNL     1      48.035   5.902  11.681  0.00  0.00    +0.000 HD
BRANCH  19  22
ATOM     22  C   UNL     1      45.603   5.716  10.829  0.00  0.00    +0.000 A 
ATOM     23  C   UNL     1      45.735   5.535   9.457  0.00  0.00    +0.000 A 
ATOM     24  S   UNL     1      45.004   4.106   8.883  0.00  0.00    +0.000 S 
ATOM     25  C   UNL     1      44.440   3.705  10.438  0.00  0.00    +0.000 A 
ATOM     26  N   UNL     1      43.699   2.584  10.646  0.00  0.00    +0.000 NA
ATOM     27  C   UNL     1      43.308   2.422  11.867  0.00  0.00    +0.000 A 
ATOM     28  N   UNL     1      43.596   3.277  12.898  0.00  0.00    +0.000 N 
ATOM     29  C   UNL     1      44.368   4.403  12.741  0.00  0.00    +0.000 A 
ATOM     30  O   UNL     1      44.649   5.120  13.697  0.00  0.00    +0.000 OA
ATOM     31  C   UNL     1      44.820   4.640  11.385  0.00  0.00    +0.000 A 
ATOM     32  H   UNL     1      43.268   3.087  13.834  0.00  0.00    +0.000 HD
ENDBRANCH  19  22
ENDBRANCH  17  18
ENDBRANCH   4  17
TORSDOF 6
ENDMDL
MODEL 7
REMARK VINA RESULT:    -6.642      1.975      2.440
REMARK INTER + INTRA:         -10.048
REMARK INTER:                  -9.171
REMARK INTRA:                  -0.877
REMARK UNBOUND:                -1.076
REMARK  Name = 
REMARK  6 active torsions:
REMARK  status: ('A' for Active; 'I' for Inactive)
REMARK    1  A    between atoms: C_2  and  C_25
REMARK    2  A    between atoms: N_3  and  C_4
REMARK    3  A    between atoms: C_4  and  C_5
REMARK    4  A    between atoms: C_8  and  C_9
REMARK    5  A    between atoms: C_9  and  N_10
REMARK    6  A    between atoms: C_11  and  C_13
REMARK                            x       y       z     vdW  Elec       q    Type
REMARK                         _______ _______ _______ _____ _____    ______ ____
ROOT
ATOM      1  C   UNL     1      45.857   6.998  12.280  0.00  0.00    +0.000 A 
ATOM      2  C   UNL     1      46.886   6.171  12.751  0.00  0.00    +0.000 A 
ATOM      3  C   UNL     1      47.834   6.657  13.658  0.00  0.00    +0.000 A 
ATOM      4  C   UNL     1      47.761   7.975  14.128  0.00  0.00    +0.000 A 
ATOM      5  C   UNL     1      46.745   8.808  13.640  0.00  0.00    +0.000 A 
ATOM      6  C   UNL     1      45.796   8.321  12.734  0.00  0.00    +0.000 A 
ENDROOT
BRANCH   1   7
ATOM      7  C   UNL     1      44.837   6.476  11.304  0.00  0.00    +0.000 C 
BRANCH   7  10
ATOM      8  O   UNL     1      43.693   4.220  10.230  0.00  0.00    +0.000 OA
ATOM      9  C   UNL     1      44.782   4.564   9.769  0.00  0.00    +0.000 C 
ATOM     10  N   UNL     1      45.430   5.690  10.251  0.00  0.00    +0.000 N 
ATOM     11  H   UNL     1      46.332   5.944   9.860  0.00  0.00    +0.000 HD
BRANCH   9  12
ATOM     12  C   UNL     1      45.479   3.855   8.705  0.00  0.00    +0.000 A 
ATOM     13  N   UNL     1      46.087   4.448   7.695  0.00  0.00    +0.000 NA
ATOM     14  N   UNL     1      46.663   3.532   6.833  0.00  0.00    +0.000 NA
ATOM     15  C   UNL     1      46.462   2.295   7.231  0.00  0.00    +0.000 A 
ATOM     16  S   UNL     1      45.564   2.141   8.681  0.00  0.00    +0.000 S 
ENDBRANCH   9  12
ENDBRANCH   7  10
ENDBRANCH   1   7
BRANCH   4  17
ATOM     17  C   UNL     1      48.767   8.505  15.119  0.00  0.00    +0.000 C 
BRANCH  17  18
ATOM     18  N   UNL     1      49.659   7.471  15.574  0.00  0.00    +0.000 N 
ATOM     19  C   UNL     1      49.564   6.956  16.842  0.00  0.00    +0.000 C 
ATOM     20  O   UNL     1      48.694   7.316  17.629  0.00  0.00    +0.000 OA
ATOM     21  H   UNL     1      50.517   7.341  15.047  0.00  0.00    +0.000 HD
BRANCH  19  22
ATOM     22  C   UNL     1      50.523   5.898  17.189  0.00  0.00    +0.000 A 
ATOM     23  C   UNL     1      51.806   6.240  17.602  0.00  0.00    +0.000 A 
ATOM     24  S   UNL     1      52.769   4.897  18.021  0.00  0.00    +0.000 S 
ATOM     25  C   UNL     1      51.525   3.809  17.614  0.00  0.00    +0.000 A 
ATOM     26  N   UNL     1      51.708   2.466  17.719  0.00  0.00    +0.000 NA
ATOM     27  C   UNL     1      50.695   1.758  17.344  0.00  0.00    +0.000 A 
ATOM     28  N   UNL     1      49.513   2.273  16.879  0.00  0.00    +0.000 N 
ATOM     29  C   UNL     1      49.271   3.624  16.788  0.00  0.00    +0.000 A 
ATOM     30  O   UNL     1      48.183   4.050  16.415  0.00  0.00    +0.000 OA
ATOM     31  C   UNL     1      50.385   4.463  17.183  0.00  0.00    +0.000 A 
ATOM     32  H   UNL     1      48.753   1.665  16.611  0.00  0.00    +0.000 HD
ENDBRANCH  19  22
ENDBRANCH  17  18
ENDBRANCH   4  17
TORSDOF 6
ENDMDL
MODEL 8
REMARK VINA RESULT:    -6.642      3.517      4.594
REMARK INTER + INTRA:         -10.048
REMARK INTER:                  -9.015
REMARK INTRA:                  -1.033
REMARK UNBOUND:                -1.076
REMARK  Name = 
REMARK  6 active torsions:
REMARK  status: ('A' for Active; 'I' for Inactive)
REMARK    1  A    between atoms: C_2  and  C_25
REMARK    2  A    between atoms: N_3  and  C_4
REMARK    3  A    between atoms: C_4  and  C_5
REMARK    4  A    between atoms: C_8  and  C_9
REMARK    5  A    between atoms: C_9  and  N_10
REMARK    6  A    between atoms: C_11  and  C_13
REMARK                            x       y       z     vdW  Elec       q    Type
REMARK                         _______ _______ _______ _____ _____    ______ ____
ROOT
ATOM      1  C   UNL     1      44.898   5.851  11.161  0.00  0.00    +0.000 A 
ATOM      2  C   UNL     1      46.037   5.443  11.869  0.00  0.00    +0.000 A 
ATOM      3  C   UNL     1      46.711   6.332  12.713  0.00  0.00    +0.000 A 
ATOM      4  C   UNL     1      46.249   7.644  12.881  0.00  0.00    +0.000 A 
ATOM      5  C   UNL     1      45.123   8.058  12.157  0.00  0.00    +0.000 A 
ATOM      6  C   UNL     1      44.448   7.168  11.315  0.00  0.00    +0.000 A 
ENDROOT
BRANCH   1   7
ATOM      7  C   UNL     1      44.173   4.894  10.254  0.00  0.00    +0.000 C 
BRANCH   7  10
ATOM      8  O   UNL     1      44.217   2.171   9.884  0.00  0.00    +0.000 OA
ATOM      9  C   UNL     1      45.014   2.835   9.220  0.00  0.00    +0.000 C 
ATOM     10  N   UNL     1      45.060   4.215   9.343  0.00  0.00    +0.000 N 
ATOM     11  H   UNL     1      45.735   4.735   8.791  0.00  0.00    +0.000 HD
BRANCH   9  12
ATOM     12  C   UNL     1      45.957   2.265   8.268  0.00  0.00    +0.000 A 
ATOM     13  N   UNL     1      46.271   0.985   8.214  0.00  0.00    +0.000 NA
ATOM     14  N   UNL     1      47.193   0.724   7.216  0.00  0.00    +0.000 NA
ATOM     15  C   UNL     1      47.530   1.816   6.566  0.00  0.00    +0.000 A 
ATOM     16  S   UNL     1      46.757   3.244   7.108  0.00  0.00    +0.000 S 
ENDBRANCH   9  12
ENDBRANCH   7  10
ENDBRANCH   1   7
BRANCH   4  17
ATOM     17  C   UNL     1      46.956   8.607  13.801  0.00  0.00    +0.000 C 
BRANCH  17  18
ATOM     18  N   UNL     1      48.367   8.671  13.518  0.00  0.00    +0.000 N 
ATOM     19  C   UNL     1      48.977   9.859  13.207  0.00  0.00    +0.000 C 
ATOM     20  O   UNL     1      48.367  10.924  13.198  0.00  0.00    +0.000 OA
ATOM     21  H   UNL     1      48.826   7.798  13.279  0.00  0.00    +0.000 HD
BRANCH  19  22
ATOM     22  C   UNL     1      50.422   9.802  12.946  0.00  0.00    +0.000 A 
ATOM     23  C   UNL     1      51.270  10.718  13.557  0.00  0.00    +0.000 A 
ATOM     24  S   UNL     1      52.917  10.474  13.192  0.00  0.00    +0.000 S 
ATOM     25  C   UNL     1      52.552   9.170  12.162  0.00  0.00    +0.000 A 
ATOM     26  N   UNL     1      53.534   8.511  11.491  0.00  0.00    +0.000 NA
ATOM     27  C   UNL     1      53.111   7.566  10.719  0.00  0.00    +0.000 A 
ATOM     28  N   UNL     1      51.796   7.217  10.560  0.00  0.00    +0.000 N 
ATOM     29  C   UNL     1      50.773   7.833  11.242  0.00  0.00    +0.000 A 
ATOM     30  O   UNL     1      49.610   7.462  11.115  0.00  0.00    +0.000 OA
ATOM     31  C   UNL     1      51.193   8.912  12.112  0.00  0.00    +0.000 A 
ATOM     32  H   UNL     1      51.531   6.460   9.947  0.00  0.00    +0.000 HD
ENDBRANCH  19  22
ENDBRANCH  17  18
ENDBRANCH   4  17
TORSDOF 6
ENDMDL
MODEL 9
REMARK VINA RESULT:    -6.542      3.419      4.891
REMARK INTER + INTRA:          -9.913
REMARK INTER:                  -9.115
REMARK INTRA:                  -0.798
REMARK UNBOUND:                -1.076
REMARK  Name = 
REMARK  6 active torsions:
REMARK  status: ('A' for Active; 'I' for Inactive)
REMARK    1  A    between atoms: C_2  and  C_25
REMARK    2  A    between atoms: N_3  and  C_4
REMARK    3  A    between atoms: C_4  and  C_5
REMARK    4  A    between atoms: C_8  and  C_9
REMARK    5  A    between atoms: C_9  and  N_10
REMARK    6  A    between atoms: C_11  and  C_13
REMARK                            x       y       z     vdW  Elec       q    Type
REMARK                         _______ _______ _______ _____ _____    ______ ____
ROOT
ATOM      1  C   UNL     1      44.659   4.733  11.712  0.00  0.00    +0.000 A 
ATOM      2  C   UNL     1      44.316   6.018  11.268  0.00  0.00    +0.000 A 
ATOM      3  C   UNL     1      44.944   7.149  11.801  0.00  0.00    +0.000 A 
ATOM      4  C   UNL     1      45.942   7.018  12.775  0.00  0.00    +0.000 A 
ATOM      5  C   UNL     1      46.269   5.735  13.234  0.00  0.00    +0.000 A 
ATOM      6  C   UNL     1      45.642   4.604  12.700  0.00  0.00    +0.000 A 
ENDROOT
BRANCH   1   7
ATOM      7  C   UNL     1      43.983   3.516  11.140  0.00  0.00    +0.000 C 
BRANCH   7  10
ATOM      8  O   UNL     1      44.351   3.960   8.453  0.00  0.00    +0.000 OA
ATOM      9  C   UNL     1      44.985   3.031   8.955  0.00  0.00    +0.000 C 
ATOM     10  N   UNL     1      44.861   2.737  10.303  0.00  0.00    +0.000 N 
ATOM     11  H   UNL     1      45.387   1.958  10.688  0.00  0.00    +0.000 HD
BRANCH   9  12
ATOM     12  C   UNL     1      45.903   2.176   8.215  0.00  0.00    +0.000 A 
ATOM     13  N   UNL     1      45.988   0.868   8.376  0.00  0.00    +0.000 NA
ATOM     14  N   UNL     1      46.944   0.310   7.547  0.00  0.00    +0.000 NA
ATOM     15  C   UNL     1      47.535   1.219   6.803  0.00  0.00    +0.000 A 
ATOM     16  S   UNL     1      46.978   2.821   7.044  0.00  0.00    +0.000 S 
ENDBRANCH   9  12
ENDBRANCH   7  10
ENDBRANCH   1   7
BRANCH   4  17
ATOM     17  C   UNL     1      46.638   8.229  13.344  0.00  0.00    +0.000 C 
BRANCH  17  18
ATOM     18  N   UNL     1      47.916   8.449  12.717  0.00  0.00    +0.000 N 
ATOM     19  C   UNL     1      49.082   8.051  13.320  0.00  0.00    +0.000 C 
ATOM     20  O   UNL     1      49.092   7.453  14.391  0.00  0.00    +0.000 OA
ATOM     21  H   UNL     1      47.949   9.143  11.977  0.00  0.00    +0.000 HD
BRANCH  19  22
ATOM     22  C   UNL     1      50.322   8.322  12.580  0.00  0.00    +0.000 A 
ATOM     23  C   UNL     1      50.546   7.699  11.358  0.00  0.00    +0.000 A 
ATOM     24  S   UNL     1      52.004   8.168  10.608  0.00  0.00    +0.000 S 
ATOM     25  C   UNL     1      52.414   9.178  11.915  0.00  0.00    +0.000 A 
ATOM     26  N   UNL     1      53.583   9.873  11.923  0.00  0.00    +0.000 NA
ATOM     27  C   UNL     1      53.781  10.572  12.991  0.00  0.00    +0.000 A 
ATOM     28  N   UNL     1      52.914  10.642  14.050  0.00  0.00    +0.000 N 
ATOM     29  C   UNL     1      51.707   9.983  14.071  0.00  0.00    +0.000 A 
ATOM     30  O   UNL     1      50.932  10.109  15.014  0.00  0.00    +0.000 OA
ATOM     31  C   UNL     1      51.443   9.172  12.901  0.00  0.00    +0.000 A 
ATOM     32  H   UNL     1      53.124  11.216  14.854  0.00  0.00    +0.000 HD
ENDBRANCH  19  22
ENDBRANCH  17  18
ENDBRANCH   4  17
TORSDOF 6
ENDMDL
