MODEL 1
REMARK VINA RESULT:    -7.983      0.000      0.000
REMARK INTER + INTRA:         -11.977
REMARK INTER:                 -10.783
REMARK INTRA:                  -1.194
REMARK UNBOUND:                -1.194
REMARK  Name = 
REMARK  8 active torsions:
REMARK  status: ('A' for Active; 'I' for Inactive)
REMARK    1  A    between atoms: C_1  and  C_2
REMARK    2  A    between atoms: C_2  and  N_3
REMARK    3  A    between atoms: C_2  and  C_17
REMARK    4  A    between atoms: C_4  and  C_6
REMARK    5  A    between atoms: N_12  and  C_13
REMARK    6  A    between atoms: C_20  and  O_21
REMARK    7  A    between atoms: O_21  and  C_22
REMARK    8  A    between atoms: C_22  and  C_23
REMARK                            x       y       z     vdW  Elec       q    Type
REMARK                         _______ _______ _______ _____ _____    ______ ____
ROOT
ATOM      1  C   UNL     1      47.502   8.758  12.243  0.00  0.00    +0.000 C 
ATOM      2  C   UNL     1      46.991   7.744  13.269  0.00  0.00    +0.000 C 
ENDROOT
BRANCH   2   3
ATOM      3  C   UNL     1      46.286   6.585  12.573  0.00  0.00    +0.000 A 
ATOM      4  C   UNL     1      46.254   5.320  13.155  0.00  0.00    +0.000 A 
ATOM      5  C   UNL     1      45.667   4.267  12.451  0.00  0.00    +0.000 A 
ATOM      6  C   UNL     1      45.152   4.487  11.179  0.00  0.00    +0.000 A 
ATOM      7  C   UNL     1      45.213   5.779  10.682  0.00  0.00    +0.000 A 
ATOM      8  N   UNL     1      45.784   6.815  11.332  0.00  0.00    +0.000 NA
BRANCH   6   9
ATOM      9  O   UNL     1      44.640   3.403  10.526  0.00  0.00    +0.000 OA
BRANCH   9  10
ATOM     10  C   UNL     1      44.406   3.599   9.128  0.00  0.00    +0.000 C 
BRANCH  10  11
ATOM     11  C   UNL     1      45.487   2.902   8.346  0.00  0.00    +0.000 A 
ATOM     12  C   UNL     1      45.695   1.525   8.494  0.00  0.00    +0.000 A 
ATOM     13  C   UNL     1      46.698   0.882   7.768  0.00  0.00    +0.000 A 
ATOM     14  C   UNL     1      47.500   1.609   6.889  0.00  0.00    +0.000 A 
ATOM     15  C   UNL     1      47.298   2.980   6.732  0.00  0.00    +0.000 A 
ATOM     16  C   UNL     1      46.297   3.622   7.457  0.00  0.00    +0.000 A 
ENDBRANCH  10  11
ENDBRANCH   9  10
ENDBRANCH   6   9
ENDBRANCH   2   3
BRANCH   2  17
ATOM     17  N   UNL     1      48.090   7.214  14.055  0.00  0.00    +0.000 N 
ATOM     18  C   UNL     1      48.651   7.848  15.131  0.00  0.00    +0.000 C 
ATOM     19  O   UNL     1      48.214   8.902  15.581  0.00  0.00    +0.000 OA
ATOM     20  H   UNL     1      48.620   6.493  13.579  0.00  0.00    +0.000 HD
BRANCH  18  21
ATOM     21  C   UNL     1      49.749   7.118  15.781  0.00  0.00    +0.000 A 
ATOM     22  C   UNL     1      51.038   7.634  15.791  0.00  0.00    +0.000 A 
ATOM     23  S   UNL     1      52.122   6.720  16.747  0.00  0.00    +0.000 S 
ATOM     24  C   UNL     1      50.918   5.581  17.129  0.00  0.00    +0.000 A 
ATOM     25  N   UNL     1      51.164   4.539  17.965  0.00  0.00    +0.000 NA
ATOM     26  C   UNL     1      50.153   3.755  18.158  0.00  0.00    +0.000 A 
ATOM     27  N   UNL     1      48.914   3.888  17.568  0.00  0.00    +0.000 N 
ATOM     28  C   UNL     1      47.845   2.949  17.838  0.00  0.00    +0.000 C 
ATOM     29  C   UNL     1      48.642   4.918  16.679  0.00  0.00    +0.000 A 
ATOM     30  O   UNL     1      47.568   5.031  16.098  0.00  0.00    +0.000 OA
ATOM     31  C   UNL     1      49.725   5.867  16.500  0.00  0.00    +0.000 A 
ENDBRANCH  18  21
ENDBRANCH   2  17
TORSDOF 6
ENDMDL
MODEL 2
REMARK VINA RESULT:    -7.844      2.220      4.268
REMARK INTER + INTRA:         -11.790
REMARK INTER:                 -10.525
REMARK INTRA:                  -1.265
REMARK UNBOUND:                -1.194
REMARK  Name = 
REMARK  8 active torsions:
REMARK  status: ('A' for Active; 'I' for Inactive)
REMARK    1  A    between atoms: C_1  and  C_2
REMARK    2  A    between atoms: C_2  and  N_3
REMARK    3  A    between atoms: C_2  and  C_17
REMARK    4  A    between atoms: C_4  and  C_6
REMARK    5  A    between atoms: N_12  and  C_13
REMARK    6  A    between atoms: C_20  and  O_21
REMARK    7  A    between atoms: O_21  and  C_22
REMARK    8  A    between atoms: C_22  and  C_23
REMARK                            x       y       z     vdW  Elec       q    Type
REMARK                         _______ _______ _______ _____ _____    ______ ____
ROOT
ATOM      1  C   UNL     1      46.852   4.022  16.074  0.00  0.00    +0.000 C 
ATOM      2  C   UNL     1      47.571   4.694  14.902  0.00  0.00    +0.000 C 
ENDROOT
BRANCH   2   3
ATOM      3  C   UNL     1      46.757   4.551  13.620  0.00  0.00    +0.000 A 
ATOM      4  C   UNL     1      46.525   5.654  12.801  0.00  0.00    +0.000 A 
ATOM      5  C   UNL     1      45.710   5.501  11.677  0.00  0.00    +0.000 A 
ATOM      6  C   UNL     1      45.123   4.269  11.411  0.00  0.00    +0.000 A 
ATOM      7  C   UNL     1      45.419   3.223  12.270  0.00  0.00    +0.000 A 
ATOM      8  N   UNL     1      46.193   3.341  13.370  0.00  0.00    +0.000 NA
BRANCH   6   9
ATOM      9  O   UNL     1      44.297   4.202  10.327  0.00  0.00    +0.000 OA
BRANCH   9  10
ATOM     10  C   UNL     1      44.182   2.903   9.738  0.00  0.00    +0.000 C 
BRANCH  10  11
ATOM     11  C   UNL     1      45.262   2.734   8.703  0.00  0.00    +0.000 A 
ATOM     12  C   UNL     1      45.728   3.836   7.975  0.00  0.00    +0.000 A 
ATOM     13  C   UNL     1      46.728   3.674   7.016  0.00  0.00    +0.000 A 
ATOM     14  C   UNL     1      47.270   2.412   6.778  0.00  0.00    +0.000 A 
ATOM     15  C   UNL     1      46.815   1.309   7.500  0.00  0.00    +0.000 A 
ATOM     16  C   UNL     1      45.816   1.470   8.457  0.00  0.00    +0.000 A 
ENDBRANCH  10  11
ENDBRANCH   9  10
ENDBRANCH   6   9
ENDBRANCH   2   3
BRANCH   2  17
ATOM     17  N   UNL     1      47.774   6.105  15.169  0.00  0.00    +0.000 N 
ATOM     18  C   UNL     1      48.852   6.621  15.838  0.00  0.00    +0.000 C 
ATOM     19  O   UNL     1      49.795   5.930  16.208  0.00  0.00    +0.000 OA
ATOM     20  H   UNL     1      46.928   6.658  15.102  0.00  0.00    +0.000 HD
BRANCH  18  21
ATOM     21  C   UNL     1      48.853   8.084  15.985  0.00  0.00    +0.000 A 
ATOM     22  C   UNL     1      48.666   8.674  17.227  0.00  0.00    +0.000 A 
ATOM     23  S   UNL     1      48.877  10.371  17.206  0.00  0.00    +0.000 S 
ATOM     24  C   UNL     1      49.170  10.373  15.530  0.00  0.00    +0.000 A 
ATOM     25  N   UNL     1      49.475  11.516  14.862  0.00  0.00    +0.000 NA
ATOM     26  C   UNL     1      49.667  11.361  13.592  0.00  0.00    +0.000 A 
ATOM     27  N   UNL     1      49.552  10.171  12.905  0.00  0.00    +0.000 N 
ATOM     28  C   UNL     1      49.775  10.100  11.477  0.00  0.00    +0.000 C 
ATOM     29  C   UNL     1      49.202   8.993  13.551  0.00  0.00    +0.000 A 
ATOM     30  O   UNL     1      49.040   7.932  12.958  0.00  0.00    +0.000 OA
ATOM     31  C   UNL     1      49.060   9.109  14.990  0.00  0.00    +0.000 A 
ENDBRANCH  18  21
ENDBRANCH   2  17
TORSDOF 6
ENDMDL
MODEL 3
REMARK VINA RESULT:    -7.786      2.822      3.743
REMARK INTER + INTRA:         -11.711
REMARK INTER:                 -10.625
REMARK INTRA:                  -1.086
REMARK UNBOUND:                -1.194
REMARK  Name = 
REMARK  8 active torsions:
REMARK  status: ('A' for Active; 'I' for Inactive)
REMARK    1  A    between atoms: C_1  and  C_2
REMARK    2  A    between atoms: C_2  and  N_3
REMARK    3  A    between atoms: C_2  and  C_17
REMARK    4  A    between atoms: C_4  and  C_6
REMARK    5  A    between atoms: N_12  and  C_13
REMARK    6  A    between atoms: C_20  and  O_21
REMARK    7  A    between atoms: O_21  and  C_22
REMARK    8  A    between atoms: C_22  and  C_23
REMARK                            x       y       z     vdW  Elec       q    Type
REMARK                         _______ _______ _______ _____ _____    ______ ____
ROOT
ATOM      1  C   UNL     1      47.102   4.153  16.110  0.00  0.00    +0.000 C 
ATOM      2  C   UNL     1      47.766   4.923  14.967  0.00  0.00    +0.000 C 
ENDROOT
BRANCH   2   3
ATOM      3  C   UNL     1      46.930   4.825  13.696  0.00  0.00    +0.000 A 
ATOM      4  C   UNL     1      46.893   5.880  12.786  0.00  0.00    +0.000 A 
ATOM      5  C   UNL     1      46.055   5.783  11.674  0.00  0.00    +0.000 A 
ATOM      6  C   UNL     1      45.255   4.658  11.505  0.00  0.00    +0.000 A 
ATOM      7  C   UNL     1      45.366   3.651  12.450  0.00  0.00    +0.000 A 
ATOM      8  N   UNL     1      46.157   3.719  13.542  0.00  0.00    +0.000 NA
BRANCH   6   9
ATOM      9  O   UNL     1      44.422   4.652  10.425  0.00  0.00    +0.000 OA
BRANCH   9  10
ATOM     10  C   UNL     1      44.135   3.354   9.895  0.00  0.00    +0.000 C 
BRANCH  10  11
ATOM     11  C   UNL     1      45.167   3.008   8.854  0.00  0.00    +0.000 A 
ATOM     12  C   UNL     1      45.648   3.989   7.978  0.00  0.00    +0.000 A 
ATOM     13  C   UNL     1      46.603   3.665   7.014  0.00  0.00    +0.000 A 
ATOM     14  C   UNL     1      47.084   2.359   6.918  0.00  0.00    +0.000 A 
ATOM     15  C   UNL     1      46.614   1.377   7.789  0.00  0.00    +0.000 A 
ATOM     16  C   UNL     1      45.660   1.700   8.751  0.00  0.00    +0.000 A 
ENDBRANCH  10  11
ENDBRANCH   9  10
ENDBRANCH   6   9
ENDBRANCH   2   3
BRANCH   2  17
ATOM     17  N   UNL     1      47.918   6.324  15.316  0.00  0.00    +0.000 N 
ATOM     18  C   UNL     1      49.074   6.886  15.787  0.00  0.00    +0.000 C 
ATOM     19  O   UNL     1      50.124   6.258  15.885  0.00  0.00    +0.000 OA
ATOM     20  H   UNL     1      47.039   6.800  15.480  0.00  0.00    +0.000 HD
BRANCH  18  21
ATOM     21  C   UNL     1      48.999   8.327  16.067  0.00  0.00    +0.000 A 
ATOM     22  C   UNL     1      49.369   9.258  15.107  0.00  0.00    +0.000 A 
ATOM     23  S   UNL     1      49.039  10.871  15.569  0.00  0.00    +0.000 S 
ATOM     24  C   UNL     1      48.445  10.377  17.085  0.00  0.00    +0.000 A 
ATOM     25  N   UNL     1      47.943  11.270  17.978  0.00  0.00    +0.000 NA
ATOM     26  C   UNL     1      47.532  10.745  19.088  0.00  0.00    +0.000 A 
ATOM     27  N   UNL     1      47.603   9.408  19.415  0.00  0.00    +0.000 N 
ATOM     28  C   UNL     1      47.127   8.918  20.691  0.00  0.00    +0.000 C 
ATOM     29  C   UNL     1      48.146   8.477  18.542  0.00  0.00    +0.000 A 
ATOM     30  O   UNL     1      48.270   7.290  18.826  0.00  0.00    +0.000 OA
ATOM     31  C   UNL     1      48.542   9.012  17.252  0.00  0.00    +0.000 A 
ENDBRANCH  18  21
ENDBRANCH   2  17
TORSDOF 6
ENDMDL
MODEL 4
REMARK VINA RESULT:    -7.785      2.319      2.904
REMARK INTER + INTRA:         -11.710
REMARK INTER:                 -11.430
REMARK INTRA:                  -0.280
REMARK UNBOUND:                -1.194
REMARK  Name = 
REMARK  8 active torsions:
REMARK  status: ('A' for Active; 'I' for Inactive)
REMARK    1  A    between atoms: C_1  and  C_2
REMARK    2  A    between atoms: C_2  and  N_3
REMARK    3  A    between atoms: C_2  and  C_17
REMARK    4  A    between atoms: C_4  and  C_6
REMARK    5  A    between atoms: N_12  and  C_13
REMARK    6  A    between atoms: C_20  and  O_21
REMARK    7  A    between atoms: O_21  and  C_22
REMARK    8  A    between atoms: C_22  and  C_23
REMARK                            x       y       z     vdW  Elec       q    Type
REMARK                         _______ _______ _______ _____ _____    ______ ____
ROOT
ATOM      1  C   UNL     1      48.945   7.028  13.073  0.00  0.00    +0.000 C 
ATOM      2  C   UNL     1      47.551   6.749  13.639  0.00  0.00    +0.000 C 
ENDROOT
BRANCH   2   3
ATOM      3  C   UNL     1      46.732   5.913  12.661  0.00  0.00    +0.000 A 
ATOM      4  C   UNL     1      46.432   6.398  11.390  0.00  0.00    +0.000 A 
ATOM      5  C   UNL     1      45.615   5.637  10.552  0.00  0.00    +0.000 A 
ATOM      6  C   UNL     1      45.093   4.430  11.005  0.00  0.00    +0.000 A 
ATOM      7  C   UNL     1      45.454   4.017  12.277  0.00  0.00    +0.000 A 
ATOM      8  N   UNL     1      46.232   4.735  13.115  0.00  0.00    +0.000 NA
BRANCH   6   9
ATOM      9  O   UNL     1      44.259   3.763  10.155  0.00  0.00    +0.000 OA
BRANCH   9  10
ATOM     10  C   UNL     1      44.427   4.088   8.771  0.00  0.00    +0.000 C 
BRANCH  10  11
ATOM     11  C   UNL     1      45.463   3.174   8.172  0.00  0.00    +0.000 A 
ATOM     12  C   UNL     1      46.388   3.663   7.242  0.00  0.00    +0.000 A 
ATOM     13  C   UNL     1      47.347   2.813   6.689  0.00  0.00    +0.000 A 
ATOM     14  C   UNL     1      47.388   1.470   7.061  0.00  0.00    +0.000 A 
ATOM     15  C   UNL     1      46.473   0.975   7.989  0.00  0.00    +0.000 A 
ATOM     16  C   UNL     1      45.515   1.823   8.542  0.00  0.00    +0.000 A 
ENDBRANCH  10  11
ENDBRANCH   9  10
ENDBRANCH   6   9
ENDBRANCH   2   3
BRANCH   2  17
ATOM     17  N   UNL     1      47.644   6.034  14.898  0.00  0.00    +0.000 N 
ATOM     18  C   UNL     1      48.603   6.258  15.850  0.00  0.00    +0.000 C 
ATOM     19  O   UNL     1      49.435   7.154  15.753  0.00  0.00    +0.000 OA
ATOM     20  H   UNL     1      47.147   5.151  14.902  0.00  0.00    +0.000 HD
BRANCH  18  21
ATOM     21  C   UNL     1      48.497   5.419  17.052  0.00  0.00    +0.000 A 
ATOM     22  C   UNL     1      48.658   4.043  16.975  0.00  0.00    +0.000 A 
ATOM     23  S   UNL     1      48.671   3.279  18.505  0.00  0.00    +0.000 S 
ATOM     24  C   UNL     1      48.408   4.755  19.309  0.00  0.00    +0.000 A 
ATOM     25  N   UNL     1      48.362   4.827  20.665  0.00  0.00    +0.000 NA
ATOM     26  C   UNL     1      48.151   6.016  21.132  0.00  0.00    +0.000 A 
ATOM     27  N   UNL     1      47.946   7.148  20.373  0.00  0.00    +0.000 N 
ATOM     28  C   UNL     1      47.705   8.436  20.990  0.00  0.00    +0.000 C 
ATOM     29  C   UNL     1      47.948   7.101  18.987  0.00  0.00    +0.000 A 
ATOM     30  O   UNL     1      47.717   8.081  18.286  0.00  0.00    +0.000 OA
ATOM     31  C   UNL     1      48.264   5.802  18.424  0.00  0.00    +0.000 A 
ENDBRANCH  18  21
ENDBRANCH   2  17
TORSDOF 6
ENDMDL
MODEL 5
REMARK VINA RESULT:    -7.596      1.971      2.332
REMARK INTER + INTRA:         -11.455
REMARK INTER:                 -10.352
REMARK INTRA:                  -1.103
REMARK UNBOUND:                -1.194
REMARK  Name = 
REMARK  8 active torsions:
REMARK  status: ('A' for Active; 'I' for Inactive)
REMARK    1  A    between atoms: C_1  and  C_2
REMARK    2  A    between atoms: C_2  and  N_3
REMARK    3  A    between atoms: C_2  and  C_17
REMARK    4  A    between atoms: C_4  and  C_6
REMARK    5  A    between atoms: N_12  and  C_13
REMARK    6  A    between atoms: C_20  and  O_21
REMARK    7  A    between atoms: O_21  and  C_22
REMARK    8  A    between atoms: C_22  and  C_23
REMARK                            x       y       z     vdW  Elec       q    Type
REMARK                         _______ _______ _______ _____ _____    ______ ____
ROOT
ATOM      1  C   UNL     1      49.739   7.668  13.473  0.00  0.00    +0.000 C 
ATOM      2  C   UNL     1      48.302   7.773  13.988  0.00  0.00    +0.000 C 
ENDROOT
BRANCH   2   3
ATOM      3  C   UNL     1      47.393   6.801  13.242  0.00  0.00    +0.000 A 
ATOM      4  C   UNL     1      46.762   7.184  12.060  0.00  0.00    +0.000 A 
ATOM      5  C   UNL     1      45.876   6.295  11.449  0.00  0.00    +0.000 A 
ATOM      6  C   UNL     1      45.616   5.063  12.038  0.00  0.00    +0.000 A 
ATOM      7  C   UNL     1      46.298   4.758  13.205  0.00  0.00    +0.000 A 
ATOM      8  N   UNL     1      47.151   5.600  13.827  0.00  0.00    +0.000 NA
BRANCH   6   9
ATOM      9  O   UNL     1      44.701   4.264  11.415  0.00  0.00    +0.000 OA
BRANCH   9  10
ATOM     10  C   UNL     1      44.401   4.633  10.066  0.00  0.00    +0.000 C 
BRANCH  10  11
ATOM     11  C   UNL     1      45.193   3.761   9.129  0.00  0.00    +0.000 A 
ATOM     12  C   UNL     1      45.201   2.370   9.289  0.00  0.00    +0.000 A 
ATOM     13  C   UNL     1      45.937   1.565   8.418  0.00  0.00    +0.000 A 
ATOM     14  C   UNL     1      46.669   2.144   7.382  0.00  0.00    +0.000 A 
ATOM     15  C   UNL     1      46.664   3.528   7.213  0.00  0.00    +0.000 A 
ATOM     16  C   UNL     1      45.930   4.332   8.082  0.00  0.00    +0.000 A 
ENDBRANCH  10  11
ENDBRANCH   9  10
ENDBRANCH   6   9
ENDBRANCH   2   3
BRANCH   2  17
ATOM     17  N   UNL     1      48.244   7.468  15.405  0.00  0.00    +0.000 N 
ATOM     18  C   UNL     1      48.654   8.317  16.399  0.00  0.00    +0.000 C 
ATOM     19  O   UNL     1      49.041   9.460  16.176  0.00  0.00    +0.000 OA
ATOM     20  H   UNL     1      48.169   6.478  15.606  0.00  0.00    +0.000 HD
BRANCH  18  21
ATOM     21  C   UNL     1      48.494   7.800  17.766  0.00  0.00    +0.000 A 
ATOM     22  C   UNL     1      48.003   8.610  18.780  0.00  0.00    +0.000 A 
ATOM     23  S   UNL     1      47.731   7.768  20.243  0.00  0.00    +0.000 S 
ATOM     24  C   UNL     1      48.313   6.312  19.582  0.00  0.00    +0.000 A 
ATOM     25  N   UNL     1      48.313   5.157  20.297  0.00  0.00    +0.000 NA
ATOM     26  C   UNL     1      48.789   4.134  19.662  0.00  0.00    +0.000 A 
ATOM     27  N   UNL     1      49.301   4.154  18.383  0.00  0.00    +0.000 N 
ATOM     28  C   UNL     1      49.824   2.955  17.761  0.00  0.00    +0.000 C 
ATOM     29  C   UNL     1      49.351   5.325  17.641  0.00  0.00    +0.000 A 
ATOM     30  O   UNL     1      49.849   5.384  16.521  0.00  0.00    +0.000 OA
ATOM     31  C   UNL     1      48.751   6.478  18.285  0.00  0.00    +0.000 A 
ENDBRANCH  18  21
ENDBRANCH   2  17
TORSDOF 6
ENDMDL
MODEL 6
REMARK VINA RESULT:    -7.199      3.048      4.078
REMARK INTER + INTRA:         -10.918
REMARK INTER:                 -10.093
REMARK INTRA:                  -0.825
REMARK UNBOUND:                -1.194
REMARK  Name = 
REMARK  8 active torsions:
REMARK  status: ('A' for Active; 'I' for Inactive)
REMARK    1  A    between atoms: C_1  and  C_2
REMARK    2  A    between atoms: C_2  and  N_3
REMARK    3  A    between atoms: C_2  and  C_17
REMARK    4  A    between atoms: C_4  and  C_6
REMARK    5  A    between atoms: N_12  and  C_13
REMARK    6  A    between atoms: C_20  and  O_21
REMARK    7  A    between atoms: O_21  and  C_22
REMARK    8  A    between atoms: C_22  and  C_23
REMARK                            x       y       z     vdW  Elec       q    Type
REMARK                         _______ _______ _______ _____ _____    ______ ____
ROOT
ATOM      1  C   UNL     1      45.371   8.828  12.618  0.00  0.00    +0.000 C 
ATOM      2  C   UNL     1      46.338   7.716  13.031  0.00  0.00    +0.000 C 
ENDROOT
BRANCH   2   3
ATOM      3  C   UNL     1      46.005   6.417  12.305  0.00  0.00    +0.000 A 
ATOM      4  C   UNL     1      45.883   6.391  10.917  0.00  0.00    +0.000 A 
ATOM      5  C   UNL     1      45.500   5.201  10.295  0.00  0.00    +0.000 A 
ATOM      6  C   UNL     1      45.221   4.077  11.064  0.00  0.00    +0.000 A 
ATOM      7  C   UNL     1      45.381   4.188  12.436  0.00  0.00    +0.000 A 
ATOM      8  N   UNL     1      45.738   5.326  13.068  0.00  0.00    +0.000 NA
BRANCH   6   9
ATOM      9  O   UNL     1      44.802   2.963  10.396  0.00  0.00    +0.000 OA
BRANCH   9  10
ATOM     10  C   UNL     1      44.419   3.186   9.036  0.00  0.00    +0.000 C 
BRANCH  10  11
ATOM     11  C   UNL     1      45.504   2.670   8.128  0.00  0.00    +0.000 A 
ATOM     12  C   UNL     1      45.985   3.460   7.076  0.00  0.00    +0.000 A 
ATOM     13  C   UNL     1      46.990   2.978   6.236  0.00  0.00    +0.000 A 
ATOM     14  C   UNL     1      47.521   1.705   6.441  0.00  0.00    +0.000 A 
ATOM     15  C   UNL     1      47.050   0.913   7.488  0.00  0.00    +0.000 A 
ATOM     16  C   UNL     1      46.047   1.393   8.327  0.00  0.00    +0.000 A 
ENDBRANCH  10  11
ENDBRANCH   9  10
ENDBRANCH   6   9
ENDBRANCH   2   3
BRANCH   2  17
ATOM     17  N   UNL     1      47.706   8.086  12.717  0.00  0.00    +0.000 N 
ATOM     18  C   UNL     1      48.814   7.446  13.203  0.00  0.00    +0.000 C 
ATOM     19  O   UNL     1      48.745   6.437  13.897  0.00  0.00    +0.000 OA
ATOM     20  H   UNL     1      47.801   9.031  12.363  0.00  0.00    +0.000 HD
BRANCH  18  21
ATOM     21  C   UNL     1      50.100   7.990  12.743  0.00  0.00    +0.000 A 
ATOM     22  C   UNL     1      50.532   7.789  11.439  0.00  0.00    +0.000 A 
ATOM     23  S   UNL     1      51.961   8.649  11.063  0.00  0.00    +0.000 S 
ATOM     24  C   UNL     1      52.074   9.270  12.643  0.00  0.00    +0.000 A 
ATOM     25  N   UNL     1      53.059  10.136  12.998  0.00  0.00    +0.000 NA
ATOM     26  C   UNL     1      53.017  10.518  14.234  0.00  0.00    +0.000 A 
ATOM     27  N   UNL     1      52.100  10.094  15.171  0.00  0.00    +0.000 N 
ATOM     28  C   UNL     1      52.143  10.572  16.537  0.00  0.00    +0.000 C 
ATOM     29  C   UNL     1      51.106   9.181  14.851  0.00  0.00    +0.000 A 
ATOM     30  O   UNL     1      50.310   8.746  15.676  0.00  0.00    +0.000 OA
ATOM     31  C   UNL     1      51.068   8.791  13.454  0.00  0.00    +0.000 A 
ENDBRANCH  18  21
ENDBRANCH   2  17
TORSDOF 6
ENDMDL
MODEL 7
REMARK VINA RESULT:    -6.942      2.897      4.242
REMARK INTER + INTRA:         -10.571
REMARK INTER:                  -9.300
REMARK INTRA:                  -1.271
REMARK UNBOUND:                -1.194
REMARK  Name = 
REMARK  8 active torsions:
REMARK  status: ('A' for Active; 'I' for Inactive)
REMARK    1  A    between atoms: C_1  and  C_2
REMARK    2  A    between atoms: C_2  and  N_3
REMARK    3  A    between atoms: C_2  and  C_17
REMARK    4  A    between atoms: C_4  and  C_6
REMARK    5  A    between atoms: N_12  and  C_13
REMARK    6  A    between atoms: C_20  and  O_21
REMARK    7  A    between atoms: O_21  and  C_22
REMARK    8  A    between atoms: C_22  and  C_23
REMARK                            x       y       z     vdW  Elec       q    Type
REMARK                         _______ _______ _______ _____ _____    ______ ____
ROOT
ATOM      1  C   UNL     1      47.529   3.268  16.226  0.00  0.00    +0.000 C 
ATOM      2  C   UNL     1      47.992   4.640  15.732  0.00  0.00    +0.000 C 
ENDROOT
BRANCH   2   3
ATOM      3  C   UNL     1      47.236   5.040  14.470  0.00  0.00    +0.000 A 
ATOM      4  C   UNL     1      46.023   4.434  14.147  0.00  0.00    +0.000 A 
ATOM      5  C   UNL     1      45.399   4.771  12.944  0.00  0.00    +0.000 A 
ATOM      6  C   UNL     1      46.005   5.676  12.080  0.00  0.00    +0.000 A 
ATOM      7  C   UNL     1      47.203   6.242  12.487  0.00  0.00    +0.000 A 
ATOM      8  N   UNL     1      47.837   5.929  13.637  0.00  0.00    +0.000 NA
BRANCH   6   9
ATOM      9  O   UNL     1      45.367   5.921  10.899  0.00  0.00    +0.000 OA
BRANCH   9  10
ATOM     10  C   UNL     1      44.421   4.921  10.509  0.00  0.00    +0.000 C 
BRANCH  10  11
ATOM     11  C   UNL     1      45.063   3.997   9.508  0.00  0.00    +0.000 A 
ATOM     12  C   UNL     1      44.955   2.609   9.651  0.00  0.00    +0.000 A 
ATOM     13  C   UNL     1      45.552   1.756   8.722  0.00  0.00    +0.000 A 
ATOM     14  C   UNL     1      46.262   2.285   7.644  0.00  0.00    +0.000 A 
ATOM     15  C   UNL     1      46.372   3.666   7.491  0.00  0.00    +0.000 A 
ATOM     16  C   UNL     1      45.776   4.518   8.419  0.00  0.00    +0.000 A 
ENDBRANCH  10  11
ENDBRANCH   9  10
ENDBRANCH   6   9
ENDBRANCH   2   3
BRANCH   2  17
ATOM     17  N   UNL     1      47.768   5.651  16.749  0.00  0.00    +0.000 N 
ATOM     18  C   UNL     1      48.590   5.869  17.821  0.00  0.00    +0.000 C 
ATOM     19  O   UNL     1      49.649   5.270  17.977  0.00  0.00    +0.000 OA
ATOM     20  H   UNL     1      46.811   5.982  16.789  0.00  0.00    +0.000 HD
BRANCH  18  21
ATOM     21  C   UNL     1      48.169   6.954  18.720  0.00  0.00    +0.000 A 
ATOM     22  C   UNL     1      47.708   6.679  20.000  0.00  0.00    +0.000 A 
ATOM     23  S   UNL     1      47.439   8.085  20.935  0.00  0.00    +0.000 S 
ATOM     24  C   UNL     1      47.876   9.101  19.642  0.00  0.00    +0.000 A 
ATOM     25  N   UNL     1      47.912  10.452  19.780  0.00  0.00    +0.000 NA
ATOM     26  C   UNL     1      48.258  11.091  18.709  0.00  0.00    +0.000 A 
ATOM     27  N   UNL     1      48.544  10.514  17.491  0.00  0.00    +0.000 N 
ATOM     28  C   UNL     1      48.912  11.318  16.344  0.00  0.00    +0.000 C 
ATOM     29  C   UNL     1      48.478   9.141  17.306  0.00  0.00    +0.000 A 
ATOM     30  O   UNL     1      48.675   8.604  16.222  0.00  0.00    +0.000 OA
ATOM     31  C   UNL     1      48.174   8.381  18.505  0.00  0.00    +0.000 A 
ENDBRANCH  18  21
ENDBRANCH   2  17
TORSDOF 6
ENDMDL
MODEL 8
REMARK VINA RESULT:    -6.361      1.718      2.566
REMARK INTER + INTRA:          -9.786
REMARK INTER:                  -8.410
REMARK INTRA:                  -1.376
REMARK UNBOUND:                -1.194
REMARK  Name = 
REMARK  8 active torsions:
REMARK  status: ('A' for Active; 'I' for Inactive)
REMARK    1  A    between atoms: C_1  and  C_2
REMARK    2  A    between atoms: C_2  and  N_3
REMARK    3  A    between atoms: C_2  and  C_17
REMARK    4  A    between atoms: C_4  and  C_6
REMARK    5  A    between atoms: N_12  and  C_13
REMARK    6  A    between atoms: C_20  and  O_21
REMARK    7  A    between atoms: O_21  and  C_22
REMARK    8  A    between atoms: C_22  and  C_23
REMARK                            x       y       z     vdW  Elec       q    Type
REMARK                         _______ _______ _______ _____ _____    ______ ____
ROOT
ATOM      1  C   UNL     1      50.232   8.805  12.038  0.00  0.00    +0.000 C 
ATOM      2  C   UNL     1      49.601   8.483  13.395  0.00  0.00    +0.000 C 
ENDROOT
BRANCH   2   3
ATOM      3  C   UNL     1      48.294   7.719  13.211  0.00  0.00    +0.000 A 
ATOM      4  C   UNL     1      48.300   6.341  13.000  0.00  0.00    +0.000 A 
ATOM      5  C   UNL     1      47.089   5.690  12.759  0.00  0.00    +0.000 A 
ATOM      6  C   UNL     1      45.908   6.422  12.704  0.00  0.00    +0.000 A 
ATOM      7  C   UNL     1      45.992   7.785  12.940  0.00  0.00    +0.000 A 
ATOM      8  N   UNL     1      47.148   8.446  13.164  0.00  0.00    +0.000 NA
BRANCH   6   9
ATOM      9  O   UNL     1      44.769   5.730  12.412  0.00  0.00    +0.000 OA
BRANCH   9  10
ATOM     10  C   UNL     1      44.282   5.909  11.079  0.00  0.00    +0.000 C 
BRANCH  10  11
ATOM     11  C   UNL     1      44.544   4.656  10.286  0.00  0.00    +0.000 A 
ATOM     12  C   UNL     1      45.236   4.717   9.070  0.00  0.00    +0.000 A 
ATOM     13  C   UNL     1      45.476   3.553   8.338  0.00  0.00    +0.000 A 
ATOM     14  C   UNL     1      45.028   2.322   8.816  0.00  0.00    +0.000 A 
ATOM     15  C   UNL     1      44.342   2.252  10.028  0.00  0.00    +0.000 A 
ATOM     16  C   UNL     1      44.101   3.413  10.758  0.00  0.00    +0.000 A 
ENDBRANCH  10  11
ENDBRANCH   9  10
ENDBRANCH   6   9
ENDBRANCH   2   3
BRANCH   2  17
ATOM     17  N   UNL     1      50.501   7.677  14.198  0.00  0.00    +0.000 N 
ATOM     18  C   UNL     1      50.960   8.029  15.439  0.00  0.00    +0.000 C 
ATOM     19  O   UNL     1      50.582   9.039  16.024  0.00  0.00    +0.000 OA
ATOM     20  H   UNL     1      51.013   6.984  13.665  0.00  0.00    +0.000 HD
BRANCH  18  21
ATOM     21  C   UNL     1      51.858   7.052  16.072  0.00  0.00    +0.000 A 
ATOM     22  C   UNL     1      53.232   7.247  16.076  0.00  0.00    +0.000 A 
ATOM     23  S   UNL     1      54.075   6.091  17.012  0.00  0.00    +0.000 S 
ATOM     24  C   UNL     1      52.637   5.265  17.394  0.00  0.00    +0.000 A 
ATOM     25  N   UNL     1      52.634   4.185  18.218  0.00  0.00    +0.000 NA
ATOM     26  C   UNL     1      51.466   3.661  18.412  0.00  0.00    +0.000 A 
ATOM     27  N   UNL     1      50.291   4.091  17.834  0.00  0.00    +0.000 N 
ATOM     28  C   UNL     1      49.032   3.430  18.105  0.00  0.00    +0.000 C 
ATOM     29  C   UNL     1      50.266   5.166  16.958  0.00  0.00    +0.000 A 
ATOM     30  O   UNL     1      49.245   5.538  16.388  0.00  0.00    +0.000 OA
ATOM     31  C   UNL     1      51.542   5.834  16.779  0.00  0.00    +0.000 A 
ENDBRANCH  18  21
ENDBRANCH   2  17
TORSDOF 6
ENDMDL
MODEL 9
REMARK VINA RESULT:    -6.295      3.478      7.982
REMARK INTER + INTRA:          -9.697
REMARK INTER:                  -8.278
REMARK INTRA:                  -1.419
REMARK UNBOUND:                -1.194
REMARK  Name = 
REMARK  8 active torsions:
REMARK  status: ('A' for Active; 'I' for Inactive)
REMARK    1  A    between atoms: C_1  and  C_2
REMARK    2  A    between atoms: C_2  and  N_3
REMARK    3  A    between atoms: C_2  and  C_17
REMARK    4  A    between atoms: C_4  and  C_6
REMARK    5  A    between atoms: N_12  and  C_13
REMARK    6  A    between atoms: C_20  and  O_21
REMARK    7  A    between atoms: O_21  and  C_22
REMARK    8  A    between atoms: C_22  and  C_23
REMARK                            x       y       z     vdW  Elec       q    Type
REMARK                         _______ _______ _______ _____ _____    ______ ____
ROOT
ATOM      1  C   UNL     1      47.908  10.182  17.238  0.00  0.00    +0.000 C 
ATOM      2  C   UNL     1      48.507   9.230  16.200  0.00  0.00    +0.000 C 
ENDROOT
BRANCH   2   3
ATOM      3  C   UNL     1      49.037   7.968  16.871  0.00  0.00    +0.000 A 
ATOM      4  C   UNL     1      49.911   7.118  16.196  0.00  0.00    +0.000 A 
ATOM      5  C   UNL     1      50.312   5.932  16.814  0.00  0.00    +0.000 A 
ATOM      6  C   UNL     1      49.818   5.606  18.072  0.00  0.00    +0.000 A 
ATOM      7  C   UNL     1      48.965   6.515  18.677  0.00  0.00    +0.000 A 
ATOM      8  N   UNL     1      48.549   7.663  18.101  0.00  0.00    +0.000 NA
BRANCH   6   9
ATOM      9  O   UNL     1      50.211   4.408  18.596  0.00  0.00    +0.000 OA
BRANCH   9  10
ATOM     10  C   UNL     1      50.231   3.323  17.664  0.00  0.00    +0.000 C 
BRANCH  10  11
ATOM     11  C   UNL     1      51.563   2.627  17.747  0.00  0.00    +0.000 A 
ATOM     12  C   UNL     1      51.684   1.278  17.389  0.00  0.00    +0.000 A 
ATOM     13  C   UNL     1      52.920   0.637  17.468  0.00  0.00    +0.000 A 
ATOM     14  C   UNL     1      54.045   1.337  17.904  0.00  0.00    +0.000 A 
ATOM     15  C   UNL     1      53.935   2.681  18.259  0.00  0.00    +0.000 A 
ATOM     16  C   UNL     1      52.700   3.322  18.180  0.00  0.00    +0.000 A 
ENDBRANCH  10  11
ENDBRANCH   9  10
ENDBRANCH   6   9
ENDBRANCH   2   3
BRANCH   2  17
ATOM     17  N   UNL     1      47.508   8.850  15.219  0.00  0.00    +0.000 N 
ATOM     18  C   UNL     1      47.695   8.891  13.863  0.00  0.00    +0.000 C 
ATOM     19  O   UNL     1      48.772   9.185  13.352  0.00  0.00    +0.000 OA
ATOM     20  H   UNL     1      46.562   8.843  15.583  0.00  0.00    +0.000 HD
BRANCH  18  21
ATOM     21  C   UNL     1      46.545   8.451  13.061  0.00  0.00    +0.000 A 
ATOM     22  C   UNL     1      45.741   9.373  12.405  0.00  0.00    +0.000 A 
ATOM     23  S   UNL     1      44.572   8.646  11.391  0.00  0.00    +0.000 S 
ATOM     24  C   UNL     1      45.070   7.082  11.839  0.00  0.00    +0.000 A 
ATOM     25  N   UNL     1      44.507   5.973  11.292  0.00  0.00    +0.000 NA
ATOM     26  C   UNL     1      44.986   4.855  11.734  0.00  0.00    +0.000 A 
ATOM     27  N   UNL     1      45.960   4.729  12.702  0.00  0.00    +0.000 N 
ATOM     28  C   UNL     1      46.424   3.430  13.140  0.00  0.00    +0.000 C 
ATOM     29  C   UNL     1      46.526   5.841  13.308  0.00  0.00    +0.000 A 
ATOM     30  O   UNL     1      47.355   5.759  14.208  0.00  0.00    +0.000 OA
ATOM     31  C   UNL     1      46.076   7.116  12.781  0.00  0.00    +0.000 A 
ENDBRANCH  18  21
ENDBRANCH   2  17
TORSDOF 6
ENDMDL
