MODEL 1
REMARK VINA RESULT:    -8.269      0.000      0.000
REMARK INTER + INTRA:         -13.477
REMARK INTER:                 -11.895
REMARK INTRA:                  -1.582
REMARK UNBOUND:                -1.582
REMARK  Name = 
REMARK  8 active torsions:
REMARK  status: ('A' for Active; 'I' for Inactive)
REMARK    1  A    between atoms: C_2  and  C_21
REMARK    2  A    between atoms: N_3  and  C_4
REMARK    3  A    between atoms: C_4  and  C_5
REMARK    4  A    between atoms: C_8  and  C_9
REMARK    5  A    between atoms: C_9  and  O_10
REMARK    6  A    between atoms: C_9  and  C_11
REMARK    7  A    between atoms: C_11  and  C_12
REMARK    8  A    between atoms: C_12  and  C_13
REMARK                            x       y       z     vdW  Elec       q    Type
REMARK                         _______ _______ _______ _____ _____    ______ ____
ROOT
ATOM      1  C   UNL     1      46.287   7.398  12.334  0.00  0.00    +0.000 A 
ATOM      2  C   UNL     1      45.029   7.080  12.853  0.00  0.00    +0.000 A 
ATOM      3  C   UNL     1      44.255   6.059  12.290  0.00  0.00    +0.000 A 
ATOM      4  C   UNL     1      44.731   5.301  11.210  0.00  0.00    +0.000 A 
ATOM      5  C   UNL     1      46.002   5.619  10.698  0.00  0.00    +0.000 A 
ATOM      6  C   UNL     1      46.773   6.648  11.255  0.00  0.00    +0.000 A 
ENDROOT
BRANCH   1   7
ATOM      7  C   UNL     1      47.128   8.471  12.981  0.00  0.00    +0.000 C 
BRANCH   7  10
ATOM      8  O   UNL     1      49.370   6.837  13.684  0.00  0.00    +0.000 OA
ATOM      9  C   UNL     1      48.561   7.191  14.530  0.00  0.00    +0.000 C 
ATOM     10  N   UNL     1      47.512   8.056  14.301  0.00  0.00    +0.000 N 
ATOM     11  H   UNL     1      46.784   8.099  14.999  0.00  0.00    +0.000 HD
BRANCH   9  12
ATOM     12  C   UNL     1      48.448   6.579  15.849  0.00  0.00    +0.000 A 
ATOM     13  C   UNL     1      48.854   7.220  17.007  0.00  0.00    +0.000 A 
ATOM     14  S   UNL     1      49.182   6.095  18.263  0.00  0.00    +0.000 S 
ATOM     15  C   UNL     1      48.630   4.787  17.314  0.00  0.00    +0.000 A 
ATOM     16  N   UNL     1      48.759   3.492  17.706  0.00  0.00    +0.000 NA
ATOM     17  C   UNL     1      48.224   2.639  16.895  0.00  0.00    +0.000 A 
ATOM     18  N   UNL     1      47.530   2.961  15.753  0.00  0.00    +0.000 N 
ATOM     19  C   UNL     1      47.375   4.258  15.314  0.00  0.00    +0.000 A 
ATOM     20  O   UNL     1      46.702   4.536  14.333  0.00  0.00    +0.000 OA
ATOM     21  C   UNL     1      48.072   5.229  16.137  0.00  0.00    +0.000 A 
ATOM     22  H   UNL     1      47.057   2.252  15.214  0.00  0.00    +0.000 HD
ENDBRANCH   9  12
ENDBRANCH   7  10
ENDBRANCH   1   7
BRANCH   4  23
ATOM     23  C   UNL     1      43.962   4.139  10.601  0.00  0.00    +0.000 C 
BRANCH  23  24
ATOM     24  O   UNL     1      42.801   3.878  11.390  0.00  0.00    +0.000 OA
ATOM     25  H   UNL     1      42.330   3.135  10.973  0.00  0.00    +0.000 HD
ENDBRANCH  23  24
BRANCH  23  26
ATOM     26  C   UNL     1      44.738   2.821  10.449  0.00  0.00    +0.000 C 
BRANCH  26  27
ATOM     27  C   UNL     1      44.531   2.170   9.076  0.00  0.00    +0.000 C 
BRANCH  27  28
ATOM     28  C   UNL     1      45.779   2.235   8.244  0.00  0.00    +0.000 A 
ATOM     29  C   UNL     1      46.238   3.417   7.694  0.00  0.00    +0.000 A 
ATOM     30  N   UNL     1      47.338   3.508   6.924  0.00  0.00    +0.000 NA
ATOM     31  C   UNL     1      47.992   2.360   6.704  0.00  0.00    +0.000 A 
ATOM     32  N   UNL     1      47.643   1.148   7.176  0.00  0.00    +0.000 NA
ATOM     33  C   UNL     1      46.533   1.121   7.938  0.00  0.00    +0.000 A 
ENDBRANCH  27  28
ENDBRANCH  26  27
ENDBRANCH  23  26
ENDBRANCH   4  23
TORSDOF 8
ENDMDL
MODEL 2
REMARK VINA RESULT:    -8.114      1.531      1.938
REMARK INTER + INTRA:         -13.253
REMARK INTER:                 -12.083
REMARK INTRA:                  -1.170
REMARK UNBOUND:                -1.582
REMARK  Name = 
REMARK  8 active torsions:
REMARK  status: ('A' for Active; 'I' for Inactive)
REMARK    1  A    between atoms: C_2  and  C_21
REMARK    2  A    between atoms: N_3  and  C_4
REMARK    3  A    between atoms: C_4  and  C_5
REMARK    4  A    between atoms: C_8  and  C_9
REMARK    5  A    between atoms: C_9  and  O_10
REMARK    6  A    between atoms: C_9  and  C_11
REMARK    7  A    between atoms: C_11  and  C_12
REMARK    8  A    between atoms: C_12  and  C_13
REMARK                            x       y       z     vdW  Elec       q    Type
REMARK                         _______ _______ _______ _____ _____    ______ ____
ROOT
ATOM      1  C   UNL     1      46.886   6.152  12.891  0.00  0.00    +0.000 A 
ATOM      2  C   UNL     1      46.355   6.570  11.667  0.00  0.00    +0.000 A 
ATOM      3  C   UNL     1      45.441   5.772  10.970  0.00  0.00    +0.000 A 
ATOM      4  C   UNL     1      45.004   4.546  11.491  0.00  0.00    +0.000 A 
ATOM      5  C   UNL     1      45.534   4.135  12.728  0.00  0.00    +0.000 A 
ATOM      6  C   UNL     1      46.457   4.929  13.422  0.00  0.00    +0.000 A 
ENDROOT
BRANCH   1   7
ATOM      7  C   UNL     1      47.835   7.045  13.652  0.00  0.00    +0.000 C 
BRANCH   7  10
ATOM      8  O   UNL     1      48.456   8.208  16.191  0.00  0.00    +0.000 OA
ATOM      9  C   UNL     1      48.671   7.024  15.974  0.00  0.00    +0.000 C 
ATOM     10  N   UNL     1      48.314   6.360  14.820  0.00  0.00    +0.000 N 
ATOM     11  H   UNL     1      48.735   5.459  14.652  0.00  0.00    +0.000 HD
BRANCH   9  12
ATOM     12  C   UNL     1      49.536   6.193  16.803  0.00  0.00    +0.000 A 
ATOM     13  C   UNL     1      50.739   6.648  17.318  0.00  0.00    +0.000 A 
ATOM     14  S   UNL     1      51.790   5.344  17.696  0.00  0.00    +0.000 S 
ATOM     15  C   UNL     1      50.587   4.191  17.327  0.00  0.00    +0.000 A 
ATOM     16  N   UNL     1      50.840   2.855  17.288  0.00  0.00    +0.000 NA
ATOM     17  C   UNL     1      49.795   2.126  17.059  0.00  0.00    +0.000 A 
ATOM     18  N   UNL     1      48.515   2.604  16.914  0.00  0.00    +0.000 N 
ATOM     19  C   UNL     1      48.210   3.947  16.945  0.00  0.00    +0.000 A 
ATOM     20  O   UNL     1      47.060   4.354  16.879  0.00  0.00    +0.000 OA
ATOM     21  C   UNL     1      49.378   4.797  17.074  0.00  0.00    +0.000 A 
ATOM     22  H   UNL     1      47.732   1.974  16.832  0.00  0.00    +0.000 HD
ENDBRANCH   9  12
ENDBRANCH   7  10
ENDBRANCH   1   7
BRANCH   4  23
ATOM     23  C   UNL     1      43.965   3.669  10.809  0.00  0.00    +0.000 C 
BRANCH  23  24
ATOM     24  O   UNL     1      43.810   2.459  11.551  0.00  0.00    +0.000 OA
ATOM     25  H   UNL     1      44.699   2.175  11.827  0.00  0.00    +0.000 HD
ENDBRANCH  23  24
BRANCH  23  26
ATOM     26  C   UNL     1      44.256   3.293   9.346  0.00  0.00    +0.000 C 
BRANCH  26  27
ATOM     27  C   UNL     1      45.192   2.084   9.224  0.00  0.00    +0.000 C 
BRANCH  27  28
ATOM     28  C   UNL     1      46.054   2.179   8.000  0.00  0.00    +0.000 A 
ATOM     29  C   UNL     1      46.941   1.181   7.642  0.00  0.00    +0.000 A 
ATOM     30  N   UNL     1      47.746   1.244   6.565  0.00  0.00    +0.000 NA
ATOM     31  C   UNL     1      47.648   2.358   5.828  0.00  0.00    +0.000 A 
ATOM     32  N   UNL     1      46.831   3.400   6.075  0.00  0.00    +0.000 NA
ATOM     33  C   UNL     1      46.052   3.279   7.167  0.00  0.00    +0.000 A 
ENDBRANCH  27  28
ENDBRANCH  26  27
ENDBRANCH  23  26
ENDBRANCH   4  23
TORSDOF 8
ENDMDL
MODEL 3
REMARK VINA RESULT:    -7.843      1.510      2.026
REMARK INTER + INTRA:         -12.864
REMARK INTER:                 -11.608
REMARK INTRA:                  -1.256
REMARK UNBOUND:                -1.582
REMARK  Name = 
REMARK  8 active torsions:
REMARK  status: ('A' for Active; 'I' for Inactive)
REMARK    1  A    between atoms: C_2  and  C_21
REMARK    2  A    between atoms: N_3  and  C_4
REMARK    3  A    between atoms: C_4  and  C_5
REMARK    4  A    between atoms: C_8  and  C_9
REMARK    5  A    between atoms: C_9  and  O_10
REMARK    6  A    between atoms: C_9  and  C_11
REMARK    7  A    between atoms: C_11  and  C_12
REMARK    8  A    between atoms: C_12  and  C_13
REMARK                            x       y       z     vdW  Elec       q    Type
REMARK                         _______ _______ _______ _____ _____    ______ ____
ROOT
ATOM      1  C   UNL     1      47.300   6.189  12.901  0.00  0.00    +0.000 A 
ATOM      2  C   UNL     1      46.781   5.105  13.616  0.00  0.00    +0.000 A 
ATOM      3  C   UNL     1      45.717   4.351  13.107  0.00  0.00    +0.000 A 
ATOM      4  C   UNL     1      45.161   4.637  11.852  0.00  0.00    +0.000 A 
ATOM      5  C   UNL     1      45.694   5.723  11.132  0.00  0.00    +0.000 A 
ATOM      6  C   UNL     1      46.753   6.485  11.646  0.00  0.00    +0.000 A 
ENDROOT
BRANCH   1   7
ATOM      7  C   UNL     1      48.477   6.963  13.442  0.00  0.00    +0.000 C 
BRANCH   7  10
ATOM      8  O   UNL     1      50.373   6.591  15.552  0.00  0.00    +0.000 OA
ATOM      9  C   UNL     1      49.226   6.938  15.793  0.00  0.00    +0.000 C 
ATOM     10  N   UNL     1      48.278   7.235  14.838  0.00  0.00    +0.000 N 
ATOM     11  H   UNL     1      47.315   7.287  15.136  0.00  0.00    +0.000 HD
BRANCH   9  12
ATOM     12  C   UNL     1      48.621   6.870  17.119  0.00  0.00    +0.000 A 
ATOM     13  C   UNL     1      48.206   7.997  17.809  0.00  0.00    +0.000 A 
ATOM     14  S   UNL     1      48.126   7.701  19.498  0.00  0.00    +0.000 S 
ATOM     15  C   UNL     1      48.483   6.045  19.284  0.00  0.00    +0.000 A 
ATOM     16  N   UNL     1      48.718   5.205  20.327  0.00  0.00    +0.000 NA
ATOM     17  C   UNL     1      48.904   3.973  19.981  0.00  0.00    +0.000 A 
ATOM     18  N   UNL     1      48.828   3.493  18.696  0.00  0.00    +0.000 N 
ATOM     19  C   UNL     1      48.594   4.304  17.607  0.00  0.00    +0.000 A 
ATOM     20  O   UNL     1      48.465   3.856  16.478  0.00  0.00    +0.000 OA
ATOM     21  C   UNL     1      48.506   5.711  17.949  0.00  0.00    +0.000 A 
ATOM     22  H   UNL     1      48.890   2.504  18.505  0.00  0.00    +0.000 HD
ENDBRANCH   9  12
ENDBRANCH   7  10
ENDBRANCH   1   7
BRANCH   4  23
ATOM     23  C   UNL     1      44.049   3.813  11.222  0.00  0.00    +0.000 C 
BRANCH  23  24
ATOM     24  O   UNL     1      43.970   2.549  11.881  0.00  0.00    +0.000 OA
ATOM     25  H   UNL     1      44.756   2.471  12.449  0.00  0.00    +0.000 HD
ENDBRANCH  23  24
BRANCH  23  26
ATOM     26  C   UNL     1      44.173   3.554   9.711  0.00  0.00    +0.000 C 
BRANCH  26  27
ATOM     27  C   UNL     1      44.731   2.159   9.398  0.00  0.00    +0.000 C 
BRANCH  27  28
ATOM     28  C   UNL     1      45.767   2.213   8.315  0.00  0.00    +0.000 A 
ATOM     29  C   UNL     1      46.500   1.104   7.938  0.00  0.00    +0.000 A 
ATOM     30  N   UNL     1      47.453   1.122   6.987  0.00  0.00    +0.000 NA
ATOM     31  C   UNL     1      47.671   2.307   6.403  0.00  0.00    +0.000 A 
ATOM     32  N   UNL     1      47.031   3.458   6.686  0.00  0.00    +0.000 NA
ATOM     33  C   UNL     1      46.090   3.376   7.646  0.00  0.00    +0.000 A 
ENDBRANCH  27  28
ENDBRANCH  26  27
ENDBRANCH  23  26
ENDBRANCH   4  23
TORSDOF 8
ENDMDL
MODEL 4
REMARK VINA RESULT:    -7.216      1.667      2.430
REMARK INTER + INTRA:         -11.961
REMARK INTER:                 -10.931
REMARK INTRA:                  -1.030
REMARK UNBOUND:                -1.582
REMARK  Name = 
REMARK  8 active torsions:
REMARK  status: ('A' for Active; 'I' for Inactive)
REMARK    1  A    between atoms: C_2  and  C_21
REMARK    2  A    between atoms: N_3  and  C_4
REMARK    3  A    between atoms: C_4  and  C_5
REMARK    4  A    between atoms: C_8  and  C_9
REMARK    5  A    between atoms: C_9  and  O_10
REMARK    6  A    between atoms: C_9  and  C_11
REMARK    7  A    between atoms: C_11  and  C_12
REMARK    8  A    between atoms: C_12  and  C_13
REMARK                            x       y       z     vdW  Elec       q    Type
REMARK                         _______ _______ _______ _____ _____    ______ ____
ROOT
ATOM      1  C   UNL     1      46.452   7.013  12.666  0.00  0.00    +0.000 A 
ATOM      2  C   UNL     1      45.375   7.437  11.882  0.00  0.00    +0.000 A 
ATOM      3  C   UNL     1      44.580   6.514  11.193  0.00  0.00    +0.000 A 
ATOM      4  C   UNL     1      44.818   5.135  11.294  0.00  0.00    +0.000 A 
ATOM      5  C   UNL     1      45.897   4.714  12.092  0.00  0.00    +0.000 A 
ATOM      6  C   UNL     1      46.700   5.639  12.774  0.00  0.00    +0.000 A 
ENDROOT
BRANCH   1   7
ATOM      7  C   UNL     1      47.271   8.018  13.440  0.00  0.00    +0.000 C 
BRANCH   7  10
ATOM      8  O   UNL     1      49.768   6.928  14.313  0.00  0.00    +0.000 OA
ATOM      9  C   UNL     1      48.786   6.908  15.041  0.00  0.00    +0.000 C 
ATOM     10  N   UNL     1      47.575   7.496  14.742  0.00  0.00    +0.000 N 
ATOM     11  H   UNL     1      46.777   7.228  15.299  0.00  0.00    +0.000 HD
BRANCH   9  12
ATOM     12  C   UNL     1      48.675   6.070  16.229  0.00  0.00    +0.000 A 
ATOM     13  C   UNL     1      48.036   4.841  16.218  0.00  0.00    +0.000 A 
ATOM     14  S   UNL     1      47.524   4.390  17.794  0.00  0.00    +0.000 S 
ATOM     15  C   UNL     1      48.292   5.743  18.495  0.00  0.00    +0.000 A 
ATOM     16  N   UNL     1      48.142   6.073  19.806  0.00  0.00    +0.000 NA
ATOM     17  C   UNL     1      48.852   7.089  20.179  0.00  0.00    +0.000 A 
ATOM     18  N   UNL     1      49.732   7.774  19.377  0.00  0.00    +0.000 N 
ATOM     19  C   UNL     1      49.917   7.479  18.045  0.00  0.00    +0.000 A 
ATOM     20  O   UNL     1      50.750   8.054  17.360  0.00  0.00    +0.000 OA
ATOM     21  C   UNL     1      49.043   6.425  17.565  0.00  0.00    +0.000 A 
ATOM     22  H   UNL     1      50.325   8.498  19.756  0.00  0.00    +0.000 HD
ENDBRANCH   9  12
ENDBRANCH   7  10
ENDBRANCH   1   7
BRANCH   4  23
ATOM     23  C   UNL     1      43.948   4.085  10.619  0.00  0.00    +0.000 C 
BRANCH  23  24
ATOM     24  O   UNL     1      42.742   3.924  11.366  0.00  0.00    +0.000 OA
ATOM     25  H   UNL     1      42.006   4.170  10.780  0.00  0.00    +0.000 HD
ENDBRANCH  23  24
BRANCH  23  26
ATOM     26  C   UNL     1      44.584   2.697  10.440  0.00  0.00    +0.000 C 
BRANCH  26  27
ATOM     27  C   UNL     1      44.399   2.143   9.022  0.00  0.00    +0.000 C 
BRANCH  27  28
ATOM     28  C   UNL     1      45.668   2.233   8.227  0.00  0.00    +0.000 A 
ATOM     29  C   UNL     1      46.143   3.432   7.728  0.00  0.00    +0.000 A 
ATOM     30  N   UNL     1      47.264   3.546   6.992  0.00  0.00    +0.000 NA
ATOM     31  C   UNL     1      47.923   2.405   6.753  0.00  0.00    +0.000 A 
ATOM     32  N   UNL     1      47.561   1.179   7.176  0.00  0.00    +0.000 NA
ATOM     33  C   UNL     1      46.430   1.129   7.906  0.00  0.00    +0.000 A 
ENDBRANCH  27  28
ENDBRANCH  26  27
ENDBRANCH  23  26
ENDBRANCH   4  23
TORSDOF 8
ENDMDL
MODEL 5
REMARK VINA RESULT:    -6.431      3.113      7.561
REMARK INTER + INTRA:         -10.832
REMARK INTER:                  -9.236
REMARK INTRA:                  -1.596
REMARK UNBOUND:                -1.582
REMARK  Name = 
REMARK  8 active torsions:
REMARK  status: ('A' for Active; 'I' for Inactive)
REMARK    1  A    between atoms: C_2  and  C_21
REMARK    2  A    between atoms: N_3  and  C_4
REMARK    3  A    between atoms: C_4  and  C_5
REMARK    4  A    between atoms: C_8  and  C_9
REMARK    5  A    between atoms: C_9  and  O_10
REMARK    6  A    between atoms: C_9  and  C_11
REMARK    7  A    between atoms: C_11  and  C_12
REMARK    8  A    between atoms: C_12  and  C_13
REMARK                            x       y       z     vdW  Elec       q    Type
REMARK                         _______ _______ _______ _____ _____    ______ ____
ROOT
ATOM      1  C   UNL     1      47.748   8.221  13.772  0.00  0.00    +0.000 A 
ATOM      2  C   UNL     1      47.933   8.990  14.926  0.00  0.00    +0.000 A 
ATOM      3  C   UNL     1      49.022   8.762  15.774  0.00  0.00    +0.000 A 
ATOM      4  C   UNL     1      49.979   7.781  15.478  0.00  0.00    +0.000 A 
ATOM      5  C   UNL     1      49.793   7.017  14.311  0.00  0.00    +0.000 A 
ATOM      6  C   UNL     1      48.697   7.237  13.466  0.00  0.00    +0.000 A 
ENDROOT
BRANCH   1   7
ATOM      7  C   UNL     1      46.594   8.510  12.844  0.00  0.00    +0.000 C 
BRANCH   7  10
ATOM      8  O   UNL     1      44.273   7.852  11.305  0.00  0.00    +0.000 OA
ATOM      9  C   UNL     1      45.277   7.157  11.254  0.00  0.00    +0.000 C 
ATOM     10  N   UNL     1      46.469   7.451  11.881  0.00  0.00    +0.000 N 
ATOM     11  H   UNL     1      47.149   6.709  11.962  0.00  0.00    +0.000 HD
BRANCH   9  12
ATOM     12  C   UNL     1      45.299   5.803  10.713  0.00  0.00    +0.000 A 
ATOM     13  C   UNL     1      45.624   5.531   9.395  0.00  0.00    +0.000 A 
ATOM     14  S   UNL     1      44.987   4.017   8.893  0.00  0.00    +0.000 S 
ATOM     15  C   UNL     1      44.427   3.665  10.467  0.00  0.00    +0.000 A 
ATOM     16  N   UNL     1      43.649   2.585  10.743  0.00  0.00    +0.000 NA
ATOM     17  C   UNL     1      43.376   2.439  12.000  0.00  0.00    +0.000 A 
ATOM     18  N   UNL     1      43.847   3.242  13.009  0.00  0.00    +0.000 N 
ATOM     19  C   UNL     1      44.636   4.348  12.779  0.00  0.00    +0.000 A 
ATOM     20  O   UNL     1      45.101   5.016  13.690  0.00  0.00    +0.000 OA
ATOM     21  C   UNL     1      44.856   4.611  11.369  0.00  0.00    +0.000 A 
ATOM     22  H   UNL     1      43.673   3.017  13.977  0.00  0.00    +0.000 HD
ENDBRANCH   9  12
ENDBRANCH   7  10
ENDBRANCH   1   7
BRANCH   4  23
ATOM     23  C   UNL     1      51.215   7.534  16.329  0.00  0.00    +0.000 C 
BRANCH  23  24
ATOM     24  O   UNL     1      52.296   7.139  15.485  0.00  0.00    +0.000 OA
ATOM     25  H   UNL     1      52.753   7.951  15.203  0.00  0.00    +0.000 HD
ENDBRANCH  23  24
BRANCH  23  26
ATOM     26  C   UNL     1      51.071   6.479  17.439  0.00  0.00    +0.000 C 
BRANCH  26  27
ATOM     27  C   UNL     1      49.608   6.235  17.832  0.00  0.00    +0.000 C 
BRANCH  27  28
ATOM     28  C   UNL     1      49.113   4.917  17.313  0.00  0.00    +0.000 A 
ATOM     29  C   UNL     1      49.864   3.760  17.402  0.00  0.00    +0.000 A 
ATOM     30  N   UNL     1      49.461   2.566  16.926  0.00  0.00    +0.000 NA
ATOM     31  C   UNL     1      48.257   2.549  16.339  0.00  0.00    +0.000 A 
ATOM     32  N   UNL     1      47.437   3.606  16.185  0.00  0.00    +0.000 NA
ATOM     33  C   UNL     1      47.896   4.772  16.679  0.00  0.00    +0.000 A 
ENDBRANCH  27  28
ENDBRANCH  26  27
ENDBRANCH  23  26
ENDBRANCH   4  23
TORSDOF 8
ENDMDL
MODEL 6
REMARK VINA RESULT:    -6.354      2.783      4.219
REMARK INTER + INTRA:         -10.722
REMARK INTER:                  -9.724
REMARK INTRA:                  -0.997
REMARK UNBOUND:                -1.582
REMARK  Name = 
REMARK  8 active torsions:
REMARK  status: ('A' for Active; 'I' for Inactive)
REMARK    1  A    between atoms: C_2  and  C_21
REMARK    2  A    between atoms: N_3  and  C_4
REMARK    3  A    between atoms: C_4  and  C_5
REMARK    4  A    between atoms: C_8  and  C_9
REMARK    5  A    between atoms: C_9  and  O_10
REMARK    6  A    between atoms: C_9  and  C_11
REMARK    7  A    between atoms: C_11  and  C_12
REMARK    8  A    between atoms: C_12  and  C_13
REMARK                            x       y       z     vdW  Elec       q    Type
REMARK                         _______ _______ _______ _____ _____    ______ ____
ROOT
ATOM      1  C   UNL     1      46.535   7.029  13.089  0.00  0.00    +0.000 A 
ATOM      2  C   UNL     1      45.855   7.511  11.967  0.00  0.00    +0.000 A 
ATOM      3  C   UNL     1      45.177   6.638  11.107  0.00  0.00    +0.000 A 
ATOM      4  C   UNL     1      45.131   5.260  11.362  0.00  0.00    +0.000 A 
ATOM      5  C   UNL     1      45.810   4.782  12.498  0.00  0.00    +0.000 A 
ATOM      6  C   UNL     1      46.497   5.654  13.353  0.00  0.00    +0.000 A 
ENDROOT
BRANCH   1   7
ATOM      7  C   UNL     1      47.222   7.987  14.031  0.00  0.00    +0.000 C 
BRANCH   7  10
ATOM      8  O   UNL     1      49.399   6.448  15.067  0.00  0.00    +0.000 OA
ATOM      9  C   UNL     1      49.598   7.378  14.299  0.00  0.00    +0.000 C 
ATOM     10  N   UNL     1      48.608   8.107  13.676  0.00  0.00    +0.000 N 
ATOM     11  H   UNL     1      48.872   8.983  13.250  0.00  0.00    +0.000 HD
BRANCH   9  12
ATOM     12  C   UNL     1      50.902   8.002  14.102  0.00  0.00    +0.000 A 
ATOM     13  C   UNL     1      51.782   8.235  15.144  0.00  0.00    +0.000 A 
ATOM     14  S   UNL     1      52.897   9.481  14.753  0.00  0.00    +0.000 S 
ATOM     15  C   UNL     1      52.308   9.586  13.154  0.00  0.00    +0.000 A 
ATOM     16  N   UNL     1      52.709  10.555  12.288  0.00  0.00    +0.000 NA
ATOM     17  C   UNL     1      52.211  10.439  11.099  0.00  0.00    +0.000 A 
ATOM     18  N   UNL     1      51.389   9.419  10.683  0.00  0.00    +0.000 N 
ATOM     19  C   UNL     1      50.955   8.418  11.523  0.00  0.00    +0.000 A 
ATOM     20  O   UNL     1      50.278   7.482  11.125  0.00  0.00    +0.000 OA
ATOM     21  C   UNL     1      51.396   8.590  12.895  0.00  0.00    +0.000 A 
ATOM     22  H   UNL     1      51.112   9.337   9.717  0.00  0.00    +0.000 HD
ENDBRANCH   9  12
ENDBRANCH   7  10
ENDBRANCH   1   7
BRANCH   4  23
ATOM     23  C   UNL     1      44.358   4.275  10.499  0.00  0.00    +0.000 C 
BRANCH  23  24
ATOM     24  O   UNL     1      43.043   4.116  11.031  0.00  0.00    +0.000 OA
ATOM     25  H   UNL     1      42.525   3.617  10.375  0.00  0.00    +0.000 HD
ENDBRANCH  23  24
BRANCH  23  26
ATOM     26  C   UNL     1      44.980   2.877  10.347  0.00  0.00    +0.000 C 
BRANCH  26  27
ATOM     27  C   UNL     1      44.651   2.230   8.996  0.00  0.00    +0.000 C 
BRANCH  27  28
ATOM     28  C   UNL     1      45.836   2.247   8.076  0.00  0.00    +0.000 A 
ATOM     29  C   UNL     1      46.178   3.362   7.333  0.00  0.00    +0.000 A 
ATOM     30  N   UNL     1      47.219   3.404   6.481  0.00  0.00    +0.000 NA
ATOM     31  C   UNL     1      47.935   2.277   6.379  0.00  0.00    +0.000 A 
ATOM     32  N   UNL     1      47.701   1.129   7.041  0.00  0.00    +0.000 NA
ATOM     33  C   UNL     1      46.644   1.147   7.877  0.00  0.00    +0.000 A 
ENDBRANCH  27  28
ENDBRANCH  26  27
ENDBRANCH  23  26
ENDBRANCH   4  23
TORSDOF 8
ENDMDL
MODEL 7
REMARK VINA RESULT:    -6.304      4.140      8.844
REMARK INTER + INTRA:         -10.650
REMARK INTER:                  -9.369
REMARK INTRA:                  -1.281
REMARK UNBOUND:                -1.582
REMARK  Name = 
REMARK  8 active torsions:
REMARK  status: ('A' for Active; 'I' for Inactive)
REMARK    1  A    between atoms: C_2  and  C_21
REMARK    2  A    between atoms: N_3  and  C_4
REMARK    3  A    between atoms: C_4  and  C_5
REMARK    4  A    between atoms: C_8  and  C_9
REMARK    5  A    between atoms: C_9  and  O_10
REMARK    6  A    between atoms: C_9  and  C_11
REMARK    7  A    between atoms: C_11  and  C_12
REMARK    8  A    between atoms: C_12  and  C_13
REMARK                            x       y       z     vdW  Elec       q    Type
REMARK                         _______ _______ _______ _____ _____    ______ ____
ROOT
ATOM      1  C   UNL     1      48.684   4.429  17.206  0.00  0.00    +0.000 A 
ATOM      2  C   UNL     1      49.079   5.727  16.869  0.00  0.00    +0.000 A 
ATOM      3  C   UNL     1      50.410   6.134  17.015  0.00  0.00    +0.000 A 
ATOM      4  C   UNL     1      51.394   5.245  17.472  0.00  0.00    +0.000 A 
ATOM      5  C   UNL     1      50.992   3.937  17.801  0.00  0.00    +0.000 A 
ATOM      6  C   UNL     1      49.657   3.532  17.664  0.00  0.00    +0.000 A 
ENDROOT
BRANCH   1   7
ATOM      7  C   UNL     1      47.254   3.992  16.999  0.00  0.00    +0.000 C 
BRANCH   7  10
ATOM      8  O   UNL     1      47.509   2.904  14.365  0.00  0.00    +0.000 OA
ATOM      9  C   UNL     1      46.999   4.001  14.544  0.00  0.00    +0.000 C 
ATOM     10  N   UNL     1      46.746   4.557  15.780  0.00  0.00    +0.000 N 
ATOM     11  H   UNL     1      46.538   5.544  15.813  0.00  0.00    +0.000 HD
BRANCH   9  12
ATOM     12  C   UNL     1      46.789   4.980  13.484  0.00  0.00    +0.000 A 
ATOM     13  C   UNL     1      47.656   6.037  13.262  0.00  0.00    +0.000 A 
ATOM     14  S   UNL     1      46.879   7.316  12.421  0.00  0.00    +0.000 S 
ATOM     15  C   UNL     1      45.455   6.396  12.218  0.00  0.00    +0.000 A 
ATOM     16  N   UNL     1      44.310   6.922  11.707  0.00  0.00    +0.000 NA
ATOM     17  C   UNL     1      43.354   6.062  11.562  0.00  0.00    +0.000 A 
ATOM     18  N   UNL     1      43.450   4.719  11.835  0.00  0.00    +0.000 N 
ATOM     19  C   UNL     1      44.587   4.142  12.355  0.00  0.00    +0.000 A 
ATOM     20  O   UNL     1      44.682   2.936  12.533  0.00  0.00    +0.000 OA
ATOM     21  C   UNL     1      45.636   5.101  12.646  0.00  0.00    +0.000 A 
ATOM     22  H   UNL     1      42.696   4.088  11.610  0.00  0.00    +0.000 HD
ENDBRANCH   9  12
ENDBRANCH   7  10
ENDBRANCH   1   7
BRANCH   4  23
ATOM     23  C   UNL     1      52.865   5.613  17.590  0.00  0.00    +0.000 C 
BRANCH  23  24
ATOM     24  O   UNL     1      53.404   5.818  16.284  0.00  0.00    +0.000 OA
ATOM     25  H   UNL     1      52.654   5.982  15.685  0.00  0.00    +0.000 HD
ENDBRANCH  23  24
BRANCH  23  26
ATOM     26  C   UNL     1      53.759   4.596  18.317  0.00  0.00    +0.000 C 
BRANCH  26  27
ATOM     27  C   UNL     1      54.704   3.855  17.363  0.00  0.00    +0.000 C 
BRANCH  27  28
ATOM     28  C   UNL     1      54.568   2.367  17.501  0.00  0.00    +0.000 A 
ATOM     29  C   UNL     1      53.793   1.785  18.487  0.00  0.00    +0.000 A 
ATOM     30  N   UNL     1      53.667   0.455  18.655  0.00  0.00    +0.000 NA
ATOM     31  C   UNL     1      54.354  -0.308  17.795  0.00  0.00    +0.000 A 
ATOM     32  N   UNL     1      55.147   0.136  16.802  0.00  0.00    +0.000 NA
ATOM     33  C   UNL     1      55.234   1.475  16.685  0.00  0.00    +0.000 A 
ENDBRANCH  27  28
ENDBRANCH  26  27
ENDBRANCH  23  26
ENDBRANCH   4  23
TORSDOF 8
ENDMDL
MODEL 8
REMARK VINA RESULT:    -6.049      3.896      8.627
REMARK INTER + INTRA:         -10.283
REMARK INTER:                  -7.618
REMARK INTRA:                  -2.665
REMARK UNBOUND:                -1.582
REMARK  Name = 
REMARK  8 active torsions:
REMARK  status: ('A' for Active; 'I' for Inactive)
REMARK    1  A    between atoms: C_2  and  C_21
REMARK    2  A    between atoms: N_3  and  C_4
REMARK    3  A    between atoms: C_4  and  C_5
REMARK    4  A    between atoms: C_8  and  C_9
REMARK    5  A    between atoms: C_9  and  O_10
REMARK    6  A    between atoms: C_9  and  C_11
REMARK    7  A    between atoms: C_11  and  C_12
REMARK    8  A    between atoms: C_12  and  C_13
REMARK                            x       y       z     vdW  Elec       q    Type
REMARK                         _______ _______ _______ _____ _____    ______ ____
ROOT
ATOM      1  C   UNL     1      48.294   4.352  17.699  0.00  0.00    +0.000 A 
ATOM      2  C   UNL     1      47.935   5.515  18.387  0.00  0.00    +0.000 A 
ATOM      3  C   UNL     1      48.897   6.279  19.057  0.00  0.00    +0.000 A 
ATOM      4  C   UNL     1      50.253   5.923  19.031  0.00  0.00    +0.000 A 
ATOM      5  C   UNL     1      50.610   4.757  18.328  0.00  0.00    +0.000 A 
ATOM      6  C   UNL     1      49.645   3.985  17.666  0.00  0.00    +0.000 A 
ENDROOT
BRANCH   1   7
ATOM      7  C   UNL     1      47.252   3.564  16.943  0.00  0.00    +0.000 C 
BRANCH   7  10
ATOM      8  O   UNL     1      47.400   3.054  14.132  0.00  0.00    +0.000 OA
ATOM      9  C   UNL     1      46.904   4.087  14.557  0.00  0.00    +0.000 C 
ATOM     10  N   UNL     1      46.702   4.371  15.890  0.00  0.00    +0.000 N 
ATOM     11  H   UNL     1      46.502   5.329  16.138  0.00  0.00    +0.000 HD
BRANCH   9  12
ATOM     12  C   UNL     1      46.661   5.267  13.734  0.00  0.00    +0.000 A 
ATOM     13  C   UNL     1      45.468   5.476  13.062  0.00  0.00    +0.000 A 
ATOM     14  S   UNL     1      45.675   6.554  11.742  0.00  0.00    +0.000 S 
ATOM     15  C   UNL     1      47.299   6.859  12.170  0.00  0.00    +0.000 A 
ATOM     16  N   UNL     1      48.140   7.584  11.385  0.00  0.00    +0.000 NA
ATOM     17  C   UNL     1      49.313   7.771  11.899  0.00  0.00    +0.000 A 
ATOM     18  N   UNL     1      49.707   7.342  13.143  0.00  0.00    +0.000 N 
ATOM     19  C   UNL     1      48.893   6.603  13.973  0.00  0.00    +0.000 A 
ATOM     20  O   UNL     1      49.232   6.284  15.103  0.00  0.00    +0.000 OA
ATOM     21  C   UNL     1      47.614   6.270  13.373  0.00  0.00    +0.000 A 
ATOM     22  H   UNL     1      50.605   7.602  13.522  0.00  0.00    +0.000 HD
ENDBRANCH   9  12
ENDBRANCH   7  10
ENDBRANCH   1   7
BRANCH   4  23
ATOM     23  C   UNL     1      51.348   6.750  19.686  0.00  0.00    +0.000 C 
BRANCH  23  24
ATOM     24  O   UNL     1      51.075   6.870  21.082  0.00  0.00    +0.000 OA
ATOM     25  H   UNL     1      51.929   6.827  21.547  0.00  0.00    +0.000 HD
ENDBRANCH  23  24
BRANCH  23  26
ATOM     26  C   UNL     1      51.555   8.165  19.121  0.00  0.00    +0.000 C 
BRANCH  26  27
ATOM     27  C   UNL     1      51.983   8.154  17.648  0.00  0.00    +0.000 C 
BRANCH  27  28
ATOM     28  C   UNL     1      51.009   8.903  16.787  0.00  0.00    +0.000 A 
ATOM     29  C   UNL     1      49.714   9.162  17.193  0.00  0.00    +0.000 A 
ATOM     30  N   UNL     1      48.807   9.811  16.437  0.00  0.00    +0.000 NA
ATOM     31  C   UNL     1      49.230  10.206  15.230  0.00  0.00    +0.000 A 
ATOM     32  N   UNL     1      50.460  10.008  14.719  0.00  0.00    +0.000 NA
ATOM     33  C   UNL     1      51.322   9.353  15.521  0.00  0.00    +0.000 A 
ENDBRANCH  27  28
ENDBRANCH  26  27
ENDBRANCH  23  26
ENDBRANCH   4  23
TORSDOF 8
ENDMDL
MODEL 9
REMARK VINA RESULT:    -5.618      6.090      8.469
REMARK INTER + INTRA:          -9.663
REMARK INTER:                  -8.823
REMARK INTRA:                  -0.840
REMARK UNBOUND:                -1.582
REMARK  Name = 
REMARK  8 active torsions:
REMARK  status: ('A' for Active; 'I' for Inactive)
REMARK    1  A    between atoms: C_2  and  C_21
REMARK    2  A    between atoms: N_3  and  C_4
REMARK    3  A    between atoms: C_4  and  C_5
REMARK    4  A    between atoms: C_8  and  C_9
REMARK    5  A    between atoms: C_9  and  O_10
REMARK    6  A    between atoms: C_9  and  C_11
REMARK    7  A    between atoms: C_11  and  C_12
REMARK    8  A    between atoms: C_12  and  C_13
REMARK                            x       y       z     vdW  Elec       q    Type
REMARK                         _______ _______ _______ _____ _____    ______ ____
ROOT
ATOM      1  C   UNL     1      51.688   3.070  17.765  0.00  0.00    +0.000 A 
ATOM      2  C   UNL     1      50.889   2.013  17.318  0.00  0.00    +0.000 A 
ATOM      3  C   UNL     1      49.537   2.214  17.014  0.00  0.00    +0.000 A 
ATOM      4  C   UNL     1      48.952   3.484  17.116  0.00  0.00    +0.000 A 
ATOM      5  C   UNL     1      49.764   4.545  17.557  0.00  0.00    +0.000 A 
ATOM      6  C   UNL     1      51.115   4.343  17.872  0.00  0.00    +0.000 A 
ENDROOT
BRANCH   1   7
ATOM      7  C   UNL     1      53.155   2.847  18.044  0.00  0.00    +0.000 C 
BRANCH   7  10
ATOM      8  O   UNL     1      54.680   1.164  19.783  0.00  0.00    +0.000 OA
ATOM      9  C   UNL     1      54.303   0.761  18.692  0.00  0.00    +0.000 C 
ATOM     10  N   UNL     1      53.484   1.465  17.836  0.00  0.00    +0.000 N 
ATOM     11  H   UNL     1      53.423   1.144  16.881  0.00  0.00    +0.000 HD
BRANCH   9  12
ATOM     12  C   UNL     1      54.845  -0.423  18.034  0.00  0.00    +0.000 A 
ATOM     13  C   UNL     1      55.483  -0.368  16.807  0.00  0.00    +0.000 A 
ATOM     14  S   UNL     1      55.452  -1.893  16.018  0.00  0.00    +0.000 S 
ATOM     15  C   UNL     1      54.739  -2.645  17.374  0.00  0.00    +0.000 A 
ATOM     16  N   UNL     1      54.295  -3.930  17.350  0.00  0.00    +0.000 NA
ATOM     17  C   UNL     1      53.847  -4.355  18.487  0.00  0.00    +0.000 A 
ATOM     18  N   UNL     1      53.845  -3.633  19.655  0.00  0.00    +0.000 N 
ATOM     19  C   UNL     1      54.282  -2.329  19.730  0.00  0.00    +0.000 A 
ATOM     20  O   UNL     1      54.336  -1.720  20.787  0.00  0.00    +0.000 OA
ATOM     21  C   UNL     1      54.675  -1.783  18.444  0.00  0.00    +0.000 A 
ATOM     22  H   UNL     1      53.568  -4.057  20.528  0.00  0.00    +0.000 HD
ENDBRANCH   9  12
ENDBRANCH   7  10
ENDBRANCH   1   7
BRANCH   4  23
ATOM     23  C   UNL     1      47.507   3.772  16.738  0.00  0.00    +0.000 C 
BRANCH  23  24
ATOM     24  O   UNL     1      46.645   2.923  17.497  0.00  0.00    +0.000 OA
ATOM     25  H   UNL     1      47.065   2.789  18.365  0.00  0.00    +0.000 HD
ENDBRANCH  23  24
BRANCH  23  26
ATOM     26  C   UNL     1      47.151   3.601  15.252  0.00  0.00    +0.000 C 
BRANCH  26  27
ATOM     27  C   UNL     1      47.169   4.930  14.486  0.00  0.00    +0.000 C 
BRANCH  27  28
ATOM     28  C   UNL     1      46.426   4.825  13.187  0.00  0.00    +0.000 A 
ATOM     29  C   UNL     1      46.361   5.871  12.287  0.00  0.00    +0.000 A 
ATOM     30  N   UNL     1      45.683   5.820  11.125  0.00  0.00    +0.000 NA
ATOM     31  C   UNL     1      45.049   4.668  10.870  0.00  0.00    +0.000 A 
ATOM     32  N   UNL     1      45.030   3.583  11.667  0.00  0.00    +0.000 NA
ATOM     33  C   UNL     1      45.724   3.696  12.816  0.00  0.00    +0.000 A 
ENDBRANCH  27  28
ENDBRANCH  26  27
ENDBRANCH  23  26
ENDBRANCH   4  23
TORSDOF 8
ENDMDL
