MODEL 1
REMARK VINA RESULT:    -8.429      0.000      0.000
REMARK INTER + INTRA:         -11.619
REMARK INTER:                 -10.893
REMARK INTRA:                  -0.727
REMARK UNBOUND:                -0.727
REMARK  Name = 
REMARK  5 active torsions:
REMARK  status: ('A' for Active; 'I' for Inactive)
REMARK    1  A    between atoms: C_2  and  C_4
REMARK    2  A    between atoms: C_7  and  O_8
REMARK    3  A    between atoms: O_8  and  C_9
REMARK    4  A    between atoms: C_9  and  C_10
REMARK    5  A    between atoms: C_14  and  C_15
REMARK                            x       y       z     vdW  Elec       q    Type
REMARK                         _______ _______ _______ _____ _____    ______ ____
ROOT
ATOM      1  C   UNL     1      43.783   4.344  11.292  0.00  0.00    +0.000 C 
ENDROOT
BRANCH   1   2
ATOM      2  C   UNL     1      44.815   5.227  11.951  0.00  0.00    +0.000 A 
ATOM      3  C   UNL     1      45.135   6.469  11.402  0.00  0.00    +0.000 A 
ATOM      4  C   UNL     1      46.122   7.226  12.011  0.00  0.00    +0.000 A 
ATOM      5  N   UNL     1      46.811   6.826  13.101  0.00  0.00    +0.000 NA
ATOM      6  C   UNL     1      46.526   5.606  13.621  0.00  0.00    +0.000 A 
ATOM      7  C   UNL     1      45.533   4.795  13.070  0.00  0.00    +0.000 A 
BRANCH   6   8
ATOM      8  C   UNL     1      47.326   5.195  14.786  0.00  0.00    +0.000 A 
ATOM      9  C   UNL     1      47.130   3.972  15.447  0.00  0.00    +0.000 A 
ATOM     10  C   UNL     1      47.898   3.633  16.560  0.00  0.00    +0.000 A 
ATOM     11  C   UNL     1      48.858   4.530  16.990  0.00  0.00    +0.000 A 
ATOM     12  N   UNL     1      49.098   5.711  16.388  0.00  0.00    +0.000 NA
ATOM     13  C   UNL     1      48.334   6.008  15.303  0.00  0.00    +0.000 A 
ENDBRANCH   6   8
ENDBRANCH   1   2
BRANCH   1  14
ATOM     14  O   UNL     1      43.699   4.636   9.892  0.00  0.00    +0.000 OA
BRANCH  14  18
ATOM     15  C   UNL     1      46.430   2.449   7.724  0.00  0.00    +0.000 A 
ATOM     16  C   UNL     1      45.611   1.804   8.653  0.00  0.00    +0.000 A 
ATOM     17  C   UNL     1      44.690   2.556   9.385  0.00  0.00    +0.000 A 
ATOM     18  C   UNL     1      44.624   3.923   9.158  0.00  0.00    +0.000 A 
ATOM     19  N   UNL     1      45.409   4.572   8.275  0.00  0.00    +0.000 NA
ATOM     20  C   UNL     1      46.302   3.824   7.583  0.00  0.00    +0.000 A 
BRANCH  15  22
ATOM     21  N   UNL     1      48.467   2.501   6.400  0.00  0.00    +0.000 N 
ATOM     22  C   UNL     1      47.437   1.755   6.898  0.00  0.00    +0.000 C 
ATOM     23  O   UNL     1      47.377   0.549   6.701  0.00  0.00    +0.000 OA
ATOM     24  H   UNL     1      49.205   1.985   5.937  0.00  0.00    +0.000 HD
ATOM     25  H   UNL     1      48.691   3.423   6.747  0.00  0.00    +0.000 HD
ENDBRANCH  15  22
ENDBRANCH  14  18
ENDBRANCH   1  14
TORSDOF 5
ENDMDL
MODEL 2
REMARK VINA RESULT:    -8.420      1.651      3.293
REMARK INTER + INTRA:         -11.608
REMARK INTER:                 -10.935
REMARK INTRA:                  -0.673
REMARK UNBOUND:                -0.727
REMARK  Name = 
REMARK  5 active torsions:
REMARK  status: ('A' for Active; 'I' for Inactive)
REMARK    1  A    between atoms: C_2  and  C_4
REMARK    2  A    between atoms: C_7  and  O_8
REMARK    3  A    between atoms: O_8  and  C_9
REMARK    4  A    between atoms: C_9  and  C_10
REMARK    5  A    between atoms: C_14  and  C_15
REMARK                            x       y       z     vdW  Elec       q    Type
REMARK                         _______ _______ _______ _____ _____    ______ ____
ROOT
ATOM      1  C   UNL     1      43.673   4.356  11.276  0.00  0.00    +0.000 C 
ENDROOT
BRANCH   1   2
ATOM      2  C   UNL     1      44.966   4.768  11.937  0.00  0.00    +0.000 A 
ATOM      3  C   UNL     1      45.561   3.947  12.894  0.00  0.00    +0.000 A 
ATOM      4  C   UNL     1      46.720   4.386  13.511  0.00  0.00    +0.000 A 
ATOM      5  N   UNL     1      47.306   5.575  13.254  0.00  0.00    +0.000 NA
ATOM      6  C   UNL     1      46.713   6.392  12.347  0.00  0.00    +0.000 A 
ATOM      7  C   UNL     1      45.552   6.010  11.674  0.00  0.00    +0.000 A 
BRANCH   6   8
ATOM      8  C   UNL     1      47.363   7.693  12.125  0.00  0.00    +0.000 A 
ATOM      9  C   UNL     1      48.712   7.815  11.757  0.00  0.00    +0.000 A 
ATOM     10  C   UNL     1      49.291   9.070  11.578  0.00  0.00    +0.000 A 
ATOM     11  C   UNL     1      48.501  10.189  11.767  0.00  0.00    +0.000 A 
ATOM     12  N   UNL     1      47.199  10.132  12.109  0.00  0.00    +0.000 NA
ATOM     13  C   UNL     1      46.665   8.892  12.271  0.00  0.00    +0.000 A 
ENDBRANCH   6   8
ENDBRANCH   1   2
BRANCH   1  14
ATOM     14  O   UNL     1      43.700   4.680   9.881  0.00  0.00    +0.000 OA
BRANCH  14  18
ATOM     15  C   UNL     1      46.330   2.276   7.822  0.00  0.00    +0.000 A 
ATOM     16  C   UNL     1      45.447   1.704   8.741  0.00  0.00    +0.000 A 
ATOM     17  C   UNL     1      44.562   2.530   9.436  0.00  0.00    +0.000 A 
ATOM     18  C   UNL     1      44.593   3.894   9.184  0.00  0.00    +0.000 A 
ATOM     19  N   UNL     1      45.441   4.472   8.309  0.00  0.00    +0.000 NA
ATOM     20  C   UNL     1      46.298   3.653   7.654  0.00  0.00    +0.000 A 
BRANCH  15  22
ATOM     21  N   UNL     1      48.379   2.174   6.519  0.00  0.00    +0.000 N 
ATOM     22  C   UNL     1      47.309   1.499   7.035  0.00  0.00    +0.000 C 
ATOM     23  O   UNL     1      47.190   0.291   6.885  0.00  0.00    +0.000 OA
ATOM     24  H   UNL     1      49.094   1.603   6.085  0.00  0.00    +0.000 HD
ATOM     25  H   UNL     1      48.646   3.096   6.832  0.00  0.00    +0.000 HD
ENDBRANCH  15  22
ENDBRANCH  14  18
ENDBRANCH   1  14
TORSDOF 5
ENDMDL
MODEL 3
REMARK VINA RESULT:    -8.188      1.899      2.636
REMARK INTER + INTRA:         -11.308
REMARK INTER:                 -10.551
REMARK INTRA:                  -0.756
REMARK UNBOUND:                -0.727
REMARK  Name = 
REMARK  5 active torsions:
REMARK  status: ('A' for Active; 'I' for Inactive)
REMARK    1  A    between atoms: C_2  and  C_4
REMARK    2  A    between atoms: C_7  and  O_8
REMARK    3  A    between atoms: O_8  and  C_9
REMARK    4  A    between atoms: C_9  and  C_10
REMARK    5  A    between atoms: C_14  and  C_15
REMARK                            x       y       z     vdW  Elec       q    Type
REMARK                         _______ _______ _______ _____ _____    ______ ____
ROOT
ATOM      1  C   UNL     1      44.119   3.406  11.483  0.00  0.00    +0.000 C 
ENDROOT
BRANCH   1   2
ATOM      2  C   UNL     1      44.521   4.848  11.679  0.00  0.00    +0.000 A 
ATOM      3  C   UNL     1      43.627   5.877  11.379  0.00  0.00    +0.000 A 
ATOM      4  C   UNL     1      44.054   7.185  11.527  0.00  0.00    +0.000 A 
ATOM      5  N   UNL     1      45.295   7.532  11.930  0.00  0.00    +0.000 NA
ATOM      6  C   UNL     1      46.178   6.536  12.193  0.00  0.00    +0.000 A 
ATOM      7  C   UNL     1      45.815   5.194  12.082  0.00  0.00    +0.000 A 
BRANCH   6   8
ATOM      8  C   UNL     1      47.530   6.958  12.594  0.00  0.00    +0.000 A 
ATOM      9  C   UNL     1      48.358   7.735  11.768  0.00  0.00    +0.000 A 
ATOM     10  C   UNL     1      49.640   8.093  12.181  0.00  0.00    +0.000 A 
ATOM     11  C   UNL     1      50.071   7.667  13.424  0.00  0.00    +0.000 A 
ATOM     12  N   UNL     1      49.315   6.931  14.262  0.00  0.00    +0.000 NA
ATOM     13  C   UNL     1      48.068   6.603  13.830  0.00  0.00    +0.000 A 
ENDBRANCH   6   8
ENDBRANCH   1   2
BRANCH   1  14
ATOM     14  O   UNL     1      43.586   3.212  10.168  0.00  0.00    +0.000 OA
BRANCH  14  18
ATOM     15  C   UNL     1      46.544   2.597   7.373  0.00  0.00    +0.000 A 
ATOM     16  C   UNL     1      45.910   3.840   7.446  0.00  0.00    +0.000 A 
ATOM     17  C   UNL     1      44.906   4.036   8.395  0.00  0.00    +0.000 A 
ATOM     18  C   UNL     1      44.576   2.983   9.236  0.00  0.00    +0.000 A 
ATOM     19  N   UNL     1      45.165   1.771   9.181  0.00  0.00    +0.000 NA
ATOM     20  C   UNL     1      46.129   1.601   8.245  0.00  0.00    +0.000 A 
BRANCH  15  22
ATOM     21  N   UNL     1      47.644   2.991   5.242  0.00  0.00    +0.000 N 
ATOM     22  C   UNL     1      47.615   2.279   6.408  0.00  0.00    +0.000 C 
ATOM     23  O   UNL     1      48.468   1.440   6.659  0.00  0.00    +0.000 OA
ATOM     24  H   UNL     1      48.451   2.838   4.650  0.00  0.00    +0.000 HD
ATOM     25  H   UNL     1      47.128   3.850   5.114  0.00  0.00    +0.000 HD
ENDBRANCH  15  22
ENDBRANCH  14  18
ENDBRANCH   1  14
TORSDOF 5
ENDMDL
MODEL 4
REMARK VINA RESULT:    -7.870      2.134      4.429
REMARK INTER + INTRA:         -10.897
REMARK INTER:                 -10.201
REMARK INTRA:                  -0.696
REMARK UNBOUND:                -0.727
REMARK  Name = 
REMARK  5 active torsions:
REMARK  status: ('A' for Active; 'I' for Inactive)
REMARK    1  A    between atoms: C_2  and  C_4
REMARK    2  A    between atoms: C_7  and  O_8
REMARK    3  A    between atoms: O_8  and  C_9
REMARK    4  A    between atoms: C_9  and  C_10
REMARK    5  A    between atoms: C_14  and  C_15
REMARK                            x       y       z     vdW  Elec       q    Type
REMARK                         _______ _______ _______ _____ _____    ______ ____
ROOT
ATOM      1  C   UNL     1      44.384   3.659  11.695  0.00  0.00    +0.000 C 
ENDROOT
BRANCH   1   2
ATOM      2  C   UNL     1      45.078   4.956  12.035  0.00  0.00    +0.000 A 
ATOM      3  C   UNL     1      46.226   4.955  12.827  0.00  0.00    +0.000 A 
ATOM      4  C   UNL     1      46.802   6.170  13.157  0.00  0.00    +0.000 A 
ATOM      5  N   UNL     1      46.309   7.366  12.770  0.00  0.00    +0.000 NA
ATOM      6  C   UNL     1      45.174   7.375  12.027  0.00  0.00    +0.000 A 
ATOM      7  C   UNL     1      44.547   6.189  11.643  0.00  0.00    +0.000 A 
BRANCH   6   8
ATOM      8  C   UNL     1      44.650   8.700  11.659  0.00  0.00    +0.000 A 
ATOM      9  C   UNL     1      43.576   8.871  10.772  0.00  0.00    +0.000 A 
ATOM     10  C   UNL     1      43.126  10.147  10.436  0.00  0.00    +0.000 A 
ATOM     11  C   UNL     1      43.763  11.236  11.003  0.00  0.00    +0.000 A 
ATOM     12  N   UNL     1      44.790  11.131  11.868  0.00  0.00    +0.000 NA
ATOM     13  C   UNL     1      45.201   9.872  12.178  0.00  0.00    +0.000 A 
ENDBRANCH   6   8
ENDBRANCH   1   2
BRANCH   1  14
ATOM     14  O   UNL     1      43.849   3.714  10.367  0.00  0.00    +0.000 OA
BRANCH  14  18
ATOM     15  C   UNL     1      46.655   2.733   7.522  0.00  0.00    +0.000 A 
ATOM     16  C   UNL     1      46.279   4.067   7.688  0.00  0.00    +0.000 A 
ATOM     17  C   UNL     1      45.323   4.388   8.654  0.00  0.00    +0.000 A 
ATOM     18  C   UNL     1      44.784   3.363   9.417  0.00  0.00    +0.000 A 
ATOM     19  N   UNL     1      45.123   2.066   9.271  0.00  0.00    +0.000 NA
ATOM     20  C   UNL     1      46.044   1.777   8.320  0.00  0.00    +0.000 A 
BRANCH  15  22
ATOM     21  N   UNL     1      47.786   3.020   5.389  0.00  0.00    +0.000 N 
ATOM     22  C   UNL     1      47.652   2.281   6.531  0.00  0.00    +0.000 C 
ATOM     23  O   UNL     1      48.361   1.307   6.741  0.00  0.00    +0.000 OA
ATOM     24  H   UNL     1      48.553   2.760   4.781  0.00  0.00    +0.000 HD
ATOM     25  H   UNL     1      47.415   3.954   5.298  0.00  0.00    +0.000 HD
ENDBRANCH  15  22
ENDBRANCH  14  18
ENDBRANCH   1  14
TORSDOF 5
ENDMDL
MODEL 5
REMARK VINA RESULT:    -7.506      2.975      7.010
REMARK INTER + INTRA:         -10.426
REMARK INTER:                  -9.543
REMARK INTRA:                  -0.884
REMARK UNBOUND:                -0.727
REMARK  Name = 
REMARK  5 active torsions:
REMARK  status: ('A' for Active; 'I' for Inactive)
REMARK    1  A    between atoms: C_2  and  C_4
REMARK    2  A    between atoms: C_7  and  O_8
REMARK    3  A    between atoms: O_8  and  C_9
REMARK    4  A    between atoms: C_9  and  C_10
REMARK    5  A    between atoms: C_14  and  C_15
REMARK                            x       y       z     vdW  Elec       q    Type
REMARK                         _______ _______ _______ _____ _____    ______ ____
ROOT
ATOM      1  C   UNL     1      43.757   6.359  11.474  0.00  0.00    +0.000 C 
ENDROOT
BRANCH   1   2
ATOM      2  C   UNL     1      43.837   4.927  11.002  0.00  0.00    +0.000 A 
ATOM      3  C   UNL     1      43.170   3.917  11.695  0.00  0.00    +0.000 A 
ATOM      4  C   UNL     1      43.310   2.612  11.257  0.00  0.00    +0.000 A 
ATOM      5  N   UNL     1      44.072   2.250  10.202  0.00  0.00    +0.000 NA
ATOM      6  C   UNL     1      44.749   3.223   9.544  0.00  0.00    +0.000 A 
ATOM      7  C   UNL     1      44.643   4.563   9.919  0.00  0.00    +0.000 A 
BRANCH   6   8
ATOM      8  C   UNL     1      45.596   2.781   8.425  0.00  0.00    +0.000 A 
ATOM      9  C   UNL     1      45.962   3.629   7.368  0.00  0.00    +0.000 A 
ATOM     10  C   UNL     1      46.749   3.160   6.318  0.00  0.00    +0.000 A 
ATOM     11  C   UNL     1      47.163   1.841   6.348  0.00  0.00    +0.000 A 
ATOM     12  N   UNL     1      46.852   0.986   7.341  0.00  0.00    +0.000 NA
ATOM     13  C   UNL     1      46.086   1.477   8.352  0.00  0.00    +0.000 A 
ENDBRANCH   6   8
ENDBRANCH   1   2
BRANCH   1  14
ATOM     14  O   UNL     1      44.304   6.480  12.792  0.00  0.00    +0.000 OA
BRANCH  14  18
ATOM     15  C   UNL     1      48.319   7.380  12.738  0.00  0.00    +0.000 A 
ATOM     16  C   UNL     1      47.899   6.128  13.192  0.00  0.00    +0.000 A 
ATOM     17  C   UNL     1      46.534   5.835  13.210  0.00  0.00    +0.000 A 
ATOM     18  C   UNL     1      45.644   6.804  12.770  0.00  0.00    +0.000 A 
ATOM     19  N   UNL     1      46.022   8.023  12.336  0.00  0.00    +0.000 NA
ATOM     20  C   UNL     1      47.351   8.289  12.338  0.00  0.00    +0.000 A 
BRANCH  15  22
ATOM     21  N   UNL     1      50.496   7.300  11.659  0.00  0.00    +0.000 N 
ATOM     22  C   UNL     1      49.734   7.797  12.679  0.00  0.00    +0.000 C 
ATOM     23  O   UNL     1      50.198   8.589  13.487  0.00  0.00    +0.000 OA
ATOM     24  H   UNL     1      51.426   7.689  11.571  0.00  0.00    +0.000 HD
ATOM     25  H   UNL     1      50.095   6.862  10.842  0.00  0.00    +0.000 HD
ENDBRANCH  15  22
ENDBRANCH  14  18
ENDBRANCH   1  14
TORSDOF 5
ENDMDL
MODEL 6
REMARK VINA RESULT:    -7.364      2.902      7.980
REMARK INTER + INTRA:         -10.243
REMARK INTER:                  -9.658
REMARK INTRA:                  -0.585
REMARK UNBOUND:                -0.727
REMARK  Name = 
REMARK  5 active torsions:
REMARK  status: ('A' for Active; 'I' for Inactive)
REMARK    1  A    between atoms: C_2  and  C_4
REMARK    2  A    between atoms: C_7  and  O_8
REMARK    3  A    between atoms: O_8  and  C_9
REMARK    4  A    between atoms: C_9  and  C_10
REMARK    5  A    between atoms: C_14  and  C_15
REMARK                            x       y       z     vdW  Elec       q    Type
REMARK                         _______ _______ _______ _____ _____    ______ ____
ROOT
ATOM      1  C   UNL     1      45.302   5.507  13.314  0.00  0.00    +0.000 C 
ENDROOT
BRANCH   1   2
ATOM      2  C   UNL     1      44.755   4.521  12.310  0.00  0.00    +0.000 A 
ATOM      3  C   UNL     1      43.643   3.740  12.623  0.00  0.00    +0.000 A 
ATOM      4  C   UNL     1      43.204   2.813  11.693  0.00  0.00    +0.000 A 
ATOM      5  N   UNL     1      43.800   2.605  10.500  0.00  0.00    +0.000 NA
ATOM      6  C   UNL     1      44.901   3.340  10.203  0.00  0.00    +0.000 A 
ATOM      7  C   UNL     1      45.392   4.303  11.085  0.00  0.00    +0.000 A 
BRANCH   6   8
ATOM      8  C   UNL     1      45.541   3.055   8.909  0.00  0.00    +0.000 A 
ATOM      9  C   UNL     1      45.945   1.765   8.529  0.00  0.00    +0.000 A 
ATOM     10  C   UNL     1      46.567   1.546   7.301  0.00  0.00    +0.000 A 
ATOM     11  C   UNL     1      46.771   2.630   6.468  0.00  0.00    +0.000 A 
ATOM     12  N   UNL     1      46.394   3.886   6.775  0.00  0.00    +0.000 NA
ATOM     13  C   UNL     1      45.786   4.064   7.978  0.00  0.00    +0.000 A 
ENDBRANCH   6   8
ENDBRANCH   1   2
BRANCH   1  14
ATOM     14  O   UNL     1      46.734   5.499  13.292  0.00  0.00    +0.000 OA
BRANCH  14  18
ATOM     15  C   UNL     1      48.356   4.613  16.969  0.00  0.00    +0.000 A 
ATOM     16  C   UNL     1      48.683   5.818  16.343  0.00  0.00    +0.000 A 
ATOM     17  C   UNL     1      48.130   6.106  15.094  0.00  0.00    +0.000 A 
ATOM     18  C   UNL     1      47.270   5.180  14.522  0.00  0.00    +0.000 A 
ATOM     19  N   UNL     1      46.945   4.006  15.100  0.00  0.00    +0.000 NA
ATOM     20  C   UNL     1      47.502   3.742  16.307  0.00  0.00    +0.000 A 
BRANCH  15  22
ATOM     21  N   UNL     1      48.261   3.168  18.921  0.00  0.00    +0.000 N 
ATOM     22  C   UNL     1      48.884   4.205  18.286  0.00  0.00    +0.000 C 
ATOM     23  O   UNL     1      49.867   4.746  18.772  0.00  0.00    +0.000 OA
ATOM     24  H   UNL     1      48.710   2.831  19.763  0.00  0.00    +0.000 HD
ATOM     25  H   UNL     1      47.627   2.540  18.447  0.00  0.00    +0.000 HD
ENDBRANCH  15  22
ENDBRANCH  14  18
ENDBRANCH   1  14
TORSDOF 5
ENDMDL
MODEL 7
REMARK VINA RESULT:    -7.338      2.696      3.638
REMARK INTER + INTRA:         -10.209
REMARK INTER:                  -9.483
REMARK INTRA:                  -0.726
REMARK UNBOUND:                -0.727
REMARK  Name = 
REMARK  5 active torsions:
REMARK  status: ('A' for Active; 'I' for Inactive)
REMARK    1  A    between atoms: C_2  and  C_4
REMARK    2  A    between atoms: C_7  and  O_8
REMARK    3  A    between atoms: O_8  and  C_9
REMARK    4  A    between atoms: C_9  and  C_10
REMARK    5  A    between atoms: C_14  and  C_15
REMARK                            x       y       z     vdW  Elec       q    Type
REMARK                         _______ _______ _______ _____ _____    ______ ____
ROOT
ATOM      1  C   UNL     1      45.219   4.781  11.605  0.00  0.00    +0.000 C 
ENDROOT
BRANCH   1   2
ATOM      2  C   UNL     1      45.701   6.171  11.946  0.00  0.00    +0.000 A 
ATOM      3  C   UNL     1      44.820   7.114  12.474  0.00  0.00    +0.000 A 
ATOM      4  C   UNL     1      45.292   8.390  12.726  0.00  0.00    +0.000 A 
ATOM      5  N   UNL     1      46.557   8.788  12.474  0.00  0.00    +0.000 NA
ATOM      6  C   UNL     1      47.410   7.885  11.931  0.00  0.00    +0.000 A 
ATOM      7  C   UNL     1      47.010   6.574  11.664  0.00  0.00    +0.000 A 
BRANCH   6   8
ATOM      8  C   UNL     1      48.769   8.370  11.638  0.00  0.00    +0.000 A 
ATOM      9  C   UNL     1      49.059   9.726  11.420  0.00  0.00    +0.000 A 
ATOM     10  C   UNL     1      50.358  10.137  11.125  0.00  0.00    +0.000 A 
ATOM     11  C   UNL     1      51.350   9.176  11.056  0.00  0.00    +0.000 A 
ATOM     12  N   UNL     1      51.131   7.864  11.267  0.00  0.00    +0.000 NA
ATOM     13  C   UNL     1      49.854   7.497  11.557  0.00  0.00    +0.000 A 
ENDBRANCH   6   8
ENDBRANCH   1   2
BRANCH   1  14
ATOM     14  O   UNL     1      44.536   4.785  10.347  0.00  0.00    +0.000 OA
BRANCH  14  18
ATOM     15  C   UNL     1      46.662   2.814   7.426  0.00  0.00    +0.000 A 
ATOM     16  C   UNL     1      45.928   2.079   8.360  0.00  0.00    +0.000 A 
ATOM     17  C   UNL     1      45.214   2.758   9.348  0.00  0.00    +0.000 A 
ATOM     18  C   UNL     1      45.259   4.145   9.362  0.00  0.00    +0.000 A 
ATOM     19  N   UNL     1      45.967   4.878   8.479  0.00  0.00    +0.000 NA
ATOM     20  C   UNL     1      46.661   4.197   7.536  0.00  0.00    +0.000 A 
BRANCH  15  22
ATOM     21  N   UNL     1      47.744   2.978   5.256  0.00  0.00    +0.000 N 
ATOM     22  C   UNL     1      47.455   2.201   6.342  0.00  0.00    +0.000 C 
ATOM     23  O   UNL     1      47.874   1.055   6.430  0.00  0.00    +0.000 OA
ATOM     24  H   UNL     1      48.384   2.575   4.582  0.00  0.00    +0.000 HD
ATOM     25  H   UNL     1      47.643   3.982   5.261  0.00  0.00    +0.000 HD
ENDBRANCH  15  22
ENDBRANCH  14  18
ENDBRANCH   1  14
TORSDOF 5
ENDMDL
MODEL 8
REMARK VINA RESULT:    -6.819      1.640      2.220
REMARK INTER + INTRA:          -9.539
REMARK INTER:                  -8.858
REMARK INTRA:                  -0.681
REMARK UNBOUND:                -0.727
REMARK  Name = 
REMARK  5 active torsions:
REMARK  status: ('A' for Active; 'I' for Inactive)
REMARK    1  A    between atoms: C_2  and  C_4
REMARK    2  A    between atoms: C_7  and  O_8
REMARK    3  A    between atoms: O_8  and  C_9
REMARK    4  A    between atoms: C_9  and  C_10
REMARK    5  A    between atoms: C_14  and  C_15
REMARK                            x       y       z     vdW  Elec       q    Type
REMARK                         _______ _______ _______ _____ _____    ______ ____
ROOT
ATOM      1  C   UNL     1      45.202   6.647  11.460  0.00  0.00    +0.000 C 
ENDROOT
BRANCH   1   2
ATOM      2  C   UNL     1      46.457   6.560  12.295  0.00  0.00    +0.000 A 
ATOM      3  C   UNL     1      47.666   7.053  11.804  0.00  0.00    +0.000 A 
ATOM      4  C   UNL     1      48.802   6.908  12.582  0.00  0.00    +0.000 A 
ATOM      5  N   UNL     1      48.816   6.300  13.788  0.00  0.00    +0.000 NA
ATOM      6  C   UNL     1      47.649   5.791  14.256  0.00  0.00    +0.000 A 
ATOM      7  C   UNL     1      46.461   5.913  13.535  0.00  0.00    +0.000 A 
BRANCH   6   8
ATOM      8  C   UNL     1      47.717   5.104  15.556  0.00  0.00    +0.000 A 
ATOM      9  C   UNL     1      48.596   5.497  16.577  0.00  0.00    +0.000 A 
ATOM     10  C   UNL     1      48.640   4.804  17.785  0.00  0.00    +0.000 A 
ATOM     11  C   UNL     1      47.793   3.724  17.952  0.00  0.00    +0.000 A 
ATOM     12  N   UNL     1      46.921   3.310  17.012  0.00  0.00    +0.000 NA
ATOM     13  C   UNL     1      46.901   4.011  15.847  0.00  0.00    +0.000 A 
ENDBRANCH   6   8
ENDBRANCH   1   2
BRANCH   1  14
ATOM     14  O   UNL     1      44.543   5.376  11.416  0.00  0.00    +0.000 OA
BRANCH  14  18
ATOM     15  C   UNL     1      45.950   3.083   8.302  0.00  0.00    +0.000 A 
ATOM     16  C   UNL     1      46.071   4.473   8.244  0.00  0.00    +0.000 A 
ATOM     17  C   UNL     1      45.587   5.242   9.305  0.00  0.00    +0.000 A 
ATOM     18  C   UNL     1      45.004   4.589  10.382  0.00  0.00    +0.000 A 
ATOM     19  N   UNL     1      44.866   3.250  10.458  0.00  0.00    +0.000 NA
ATOM     20  C   UNL     1      45.334   2.526   9.412  0.00  0.00    +0.000 A 
BRANCH  15  22
ATOM     21  N   UNL     1      46.778   0.908   7.603  0.00  0.00    +0.000 N 
ATOM     22  C   UNL     1      46.424   2.176   7.238  0.00  0.00    +0.000 C 
ATOM     23  O   UNL     1      46.458   2.531   6.068  0.00  0.00    +0.000 OA
ATOM     24  H   UNL     1      46.987   0.271   6.844  0.00  0.00    +0.000 HD
ATOM     25  H   UNL     1      46.522   0.504   8.492  0.00  0.00    +0.000 HD
ENDBRANCH  15  22
ENDBRANCH  14  18
ENDBRANCH   1  14
TORSDOF 5
ENDMDL
MODEL 9
REMARK VINA RESULT:    -6.666      3.039      8.084
REMARK INTER + INTRA:          -9.341
REMARK INTER:                  -8.850
REMARK INTRA:                  -0.491
REMARK UNBOUND:                -0.727
REMARK  Name = 
REMARK  5 active torsions:
REMARK  status: ('A' for Active; 'I' for Inactive)
REMARK    1  A    between atoms: C_2  and  C_4
REMARK    2  A    between atoms: C_7  and  O_8
REMARK    3  A    between atoms: O_8  and  C_9
REMARK    4  A    between atoms: C_9  and  C_10
REMARK    5  A    between atoms: C_14  and  C_15
REMARK                            x       y       z     vdW  Elec       q    Type
REMARK                         _______ _______ _______ _____ _____    ______ ____
ROOT
ATOM      1  C   UNL     1      46.094   5.174  14.068  0.00  0.00    +0.000 C 
ENDROOT
BRANCH   1   2
ATOM      2  C   UNL     1      45.207   4.894  12.879  0.00  0.00    +0.000 A 
ATOM      3  C   UNL     1      43.822   5.020  12.988  0.00  0.00    +0.000 A 
ATOM      4  C   UNL     1      43.043   4.706  11.888  0.00  0.00    +0.000 A 
ATOM      5  N   UNL     1      43.542   4.267  10.712  0.00  0.00    +0.000 NA
ATOM      6  C   UNL     1      44.886   4.113  10.611  0.00  0.00    +0.000 A 
ATOM      7  C   UNL     1      45.736   4.424  11.673  0.00  0.00    +0.000 A 
BRANCH   6   8
ATOM      8  C   UNL     1      45.384   3.596   9.326  0.00  0.00    +0.000 A 
ATOM      9  C   UNL     1      45.535   2.225   9.066  0.00  0.00    +0.000 A 
ATOM     10  C   UNL     1      46.031   1.783   7.841  0.00  0.00    +0.000 A 
ATOM     11  C   UNL     1      46.366   2.729   6.890  0.00  0.00    +0.000 A 
ATOM     12  N   UNL     1      46.232   4.056   7.081  0.00  0.00    +0.000 NA
ATOM     13  C   UNL     1      45.741   4.453   8.285  0.00  0.00    +0.000 A 
ENDBRANCH   6   8
ENDBRANCH   1   2
BRANCH   1  14
ATOM     14  O   UNL     1      46.397   3.958  14.761  0.00  0.00    +0.000 OA
BRANCH  14  18
ATOM     15  C   UNL     1      49.443   4.380  17.497  0.00  0.00    +0.000 A 
ATOM     16  C   UNL     1      48.768   3.161  17.398  0.00  0.00    +0.000 A 
ATOM     17  C   UNL     1      47.735   3.030  16.469  0.00  0.00    +0.000 A 
ATOM     18  C   UNL     1      47.418   4.122  15.674  0.00  0.00    +0.000 A 
ATOM     19  N   UNL     1      48.046   5.313  15.756  0.00  0.00    +0.000 NA
ATOM     20  C   UNL     1      49.039   5.420  16.672  0.00  0.00    +0.000 A 
BRANCH  15  22
ATOM     21  N   UNL     1      51.459   3.628  18.628  0.00  0.00    +0.000 N 
ATOM     22  C   UNL     1      50.547   4.630  18.444  0.00  0.00    +0.000 C 
ATOM     23  O   UNL     1      50.667   5.706  19.012  0.00  0.00    +0.000 OA
ATOM     24  H   UNL     1      52.268   3.864  19.189  0.00  0.00    +0.000 HD
ATOM     25  H   UNL     1      51.541   2.844  17.998  0.00  0.00    +0.000 HD
ENDBRANCH  15  22
ENDBRANCH  14  18
ENDBRANCH   1  14
TORSDOF 5
ENDMDL
