MODEL 1
REMARK VINA RESULT:    -7.857      0.000      0.000
REMARK INTER + INTRA:         -10.317
REMARK INTER:                  -9.924
REMARK INTRA:                  -0.393
REMARK UNBOUND:                -0.393
REMARK  Name = 
REMARK  5 active torsions:
REMARK  status: ('A' for Active; 'I' for Inactive)
REMARK    1  A    between atoms: N_1  and  C_2
REMARK    2  A    between atoms: C_2  and  C_3
REMARK    3  A    between atoms: C_6  and  C_7
REMARK    4  A    between atoms: C_7  and  N_8
REMARK    5  A    between atoms: C_12  and  C_13
REMARK                            x       y       z     vdW  Elec       q    Type
REMARK                         _______ _______ _______ _____ _____    ______ ____
ROOT
ATOM      1  N   UNL     1      43.794   4.814   9.634  0.00  0.00    +0.000 N 
ATOM      2  C   UNL     1      44.726   3.957   9.075  0.00  0.00    +0.000 A 
ATOM      3  C   UNL     1      44.869   2.607   9.414  0.00  0.00    +0.000 A 
ATOM      4  N   UNL     1      45.714   1.737   8.798  0.00  0.00    +0.000 NA
ATOM      5  C   UNL     1      46.425   2.283   7.776  0.00  0.00    +0.000 A 
ATOM      6  C   UNL     1      46.308   3.618   7.428  0.00  0.00    +0.000 A 
ATOM      7  N   UNL     1      45.468   4.475   8.073  0.00  0.00    +0.000 NA
ATOM      8  H   UNL     1      44.030   5.770   9.374  0.00  0.00    +0.000 HD
ENDROOT
BRANCH   5   9
ATOM      9  C   UNL     1      47.322   1.380   7.005  0.00  0.00    +0.000 C 
ATOM     10  N   UNL     1      48.420   1.959   6.426  0.00  0.00    +0.000 N 
ATOM     11  O   UNL     1      47.103   0.178   6.901  0.00  0.00    +0.000 OA
ATOM     12  H   UNL     1      48.604   2.948   6.545  0.00  0.00    +0.000 HD
ATOM     13  H   UNL     1      49.076   1.378   5.922  0.00  0.00    +0.000 HD
ENDBRANCH   5   9
BRANCH   1  14
ATOM     14  C   UNL     1      43.354   4.624  11.006  0.00  0.00    +0.000 C 
BRANCH  14  18
ATOM     15  C   UNL     1      46.496   5.450  13.695  0.00  0.00    +0.000 A 
ATOM     16  C   UNL     1      46.025   6.415  12.811  0.00  0.00    +0.000 A 
ATOM     17  N   UNL     1      45.005   6.193  11.944  0.00  0.00    +0.000 NA
ATOM     18  C   UNL     1      44.450   4.954  11.992  0.00  0.00    +0.000 A 
ATOM     19  C   UNL     1      44.912   3.993  12.886  0.00  0.00    +0.000 A 
ATOM     20  N   UNL     1      45.936   4.214  13.747  0.00  0.00    +0.000 NA
BRANCH  15  21
ATOM     21  C   UNL     1      47.670   5.738  14.598  0.00  0.00    +0.000 C 
BRANCH  21  22
ATOM     22  N   UNL     1      47.704   4.887  15.790  0.00  0.00    +0.000 NA
ATOM     23  H   UNL     1      47.124   4.066  15.619  0.00  0.00    +0.000 HD
ATOM     24  H   UNL     1      47.248   5.389  16.553  0.00  0.00    +0.000 HD
ENDBRANCH  21  22
ENDBRANCH  15  21
ENDBRANCH  14  18
ENDBRANCH   1  14
TORSDOF 5
ENDMDL
MODEL 2
REMARK VINA RESULT:    -7.594      2.730      6.664
REMARK INTER + INTRA:          -9.985
REMARK INTER:                  -9.545
REMARK INTRA:                  -0.440
REMARK UNBOUND:                -0.393
REMARK  Name = 
REMARK  5 active torsions:
REMARK  status: ('A' for Active; 'I' for Inactive)
REMARK    1  A    between atoms: N_1  and  C_2
REMARK    2  A    between atoms: C_2  and  C_3
REMARK    3  A    between atoms: C_6  and  C_7
REMARK    4  A    between atoms: C_7  and  N_8
REMARK    5  A    between atoms: C_12  and  C_13
REMARK                            x       y       z     vdW  Elec       q    Type
REMARK                         _______ _______ _______ _____ _____    ______ ____
ROOT
ATOM      1  N   UNL     1      44.468   2.835  11.850  0.00  0.00    +0.000 N 
ATOM      2  C   UNL     1      45.365   3.673  12.489  0.00  0.00    +0.000 A 
ATOM      3  C   UNL     1      45.300   5.071  12.470  0.00  0.00    +0.000 A 
ATOM      4  N   UNL     1      46.118   5.896  13.177  0.00  0.00    +0.000 NA
ATOM      5  C   UNL     1      47.029   5.246  13.951  0.00  0.00    +0.000 A 
ATOM      6  C   UNL     1      47.120   3.865  13.978  0.00  0.00    +0.000 A 
ATOM      7  N   UNL     1      46.300   3.059  13.245  0.00  0.00    +0.000 NA
ATOM      8  H   UNL     1      44.849   1.890  11.844  0.00  0.00    +0.000 HD
ENDROOT
BRANCH   5   9
ATOM      9  C   UNL     1      47.917   6.076  14.809  0.00  0.00    +0.000 C 
ATOM     10  N   UNL     1      47.855   7.432  14.621  0.00  0.00    +0.000 N 
ATOM     11  O   UNL     1      48.657   5.580  15.651  0.00  0.00    +0.000 OA
ATOM     12  H   UNL     1      47.217   7.829  13.943  0.00  0.00    +0.000 HD
ATOM     13  H   UNL     1      48.415   8.037  15.206  0.00  0.00    +0.000 HD
ENDBRANCH   5   9
BRANCH   1  14
ATOM     14  C   UNL     1      43.816   3.259  10.623  0.00  0.00    +0.000 C 
BRANCH  14  18
ATOM     15  C   UNL     1      46.454   2.925   7.350  0.00  0.00    +0.000 A 
ATOM     16  C   UNL     1      46.111   1.820   8.123  0.00  0.00    +0.000 A 
ATOM     17  N   UNL     1      45.253   1.885   9.171  0.00  0.00    +0.000 NA
ATOM     18  C   UNL     1      44.726   3.110   9.428  0.00  0.00    +0.000 A 
ATOM     19  C   UNL     1      45.058   4.213   8.646  0.00  0.00    +0.000 A 
ATOM     20  N   UNL     1      45.921   4.148   7.602  0.00  0.00    +0.000 NA
BRANCH  15  21
ATOM     21  C   UNL     1      47.456   2.802   6.229  0.00  0.00    +0.000 C 
BRANCH  21  22
ATOM     22  N   UNL     1      48.431   1.730   6.442  0.00  0.00    +0.000 NA
ATOM     23  H   UNL     1      49.189   2.091   7.021  0.00  0.00    +0.000 HD
ATOM     24  H   UNL     1      48.859   1.505   5.543  0.00  0.00    +0.000 HD
ENDBRANCH  21  22
ENDBRANCH  15  21
ENDBRANCH  14  18
ENDBRANCH   1  14
TORSDOF 5
ENDMDL
MODEL 3
REMARK VINA RESULT:    -6.999      2.447      6.677
REMARK INTER + INTRA:          -9.234
REMARK INTER:                  -8.944
REMARK INTRA:                  -0.290
REMARK UNBOUND:                -0.393
REMARK  Name = 
REMARK  5 active torsions:
REMARK  status: ('A' for Active; 'I' for Inactive)
REMARK    1  A    between atoms: N_1  and  C_2
REMARK    2  A    between atoms: C_2  and  C_3
REMARK    3  A    between atoms: C_6  and  C_7
REMARK    4  A    between atoms: C_7  and  N_8
REMARK    5  A    between atoms: C_12  and  C_13
REMARK                            x       y       z     vdW  Elec       q    Type
REMARK                         _______ _______ _______ _____ _____    ______ ____
ROOT
ATOM      1  N   UNL     1      45.060   5.407  10.984  0.00  0.00    +0.000 N 
ATOM      2  C   UNL     1      45.579   5.005  12.203  0.00  0.00    +0.000 A 
ATOM      3  C   UNL     1      45.904   3.684  12.533  0.00  0.00    +0.000 A 
ATOM      4  N   UNL     1      46.505   3.298  13.690  0.00  0.00    +0.000 NA
ATOM      5  C   UNL     1      46.801   4.325  14.532  0.00  0.00    +0.000 A 
ATOM      6  C   UNL     1      46.481   5.638  14.232  0.00  0.00    +0.000 A 
ATOM      7  N   UNL     1      45.860   5.998  13.073  0.00  0.00    +0.000 NA
ATOM      8  H   UNL     1      44.724   6.364  11.071  0.00  0.00    +0.000 HD
ENDROOT
BRANCH   5   9
ATOM      9  C   UNL     1      47.524   3.994  15.790  0.00  0.00    +0.000 C 
ATOM     10  N   UNL     1      47.322   4.839  16.850  0.00  0.00    +0.000 N 
ATOM     11  O   UNL     1      48.251   3.012  15.884  0.00  0.00    +0.000 OA
ATOM     12  H   UNL     1      46.695   5.629  16.766  0.00  0.00    +0.000 HD
ATOM     13  H   UNL     1      47.765   4.634  17.735  0.00  0.00    +0.000 HD
ENDBRANCH   5   9
BRANCH   1  14
ATOM     14  C   UNL     1      44.215   4.508  10.216  0.00  0.00    +0.000 C 
BRANCH  14  18
ATOM     15  C   UNL     1      46.554   2.428   7.390  0.00  0.00    +0.000 A 
ATOM     16  C   UNL     1      45.865   1.758   8.396  0.00  0.00    +0.000 A 
ATOM     17  N   UNL     1      45.089   2.391   9.311  0.00  0.00    +0.000 NA
ATOM     18  C   UNL     1      45.011   3.741   9.187  0.00  0.00    +0.000 A 
ATOM     19  C   UNL     1      45.689   4.410   8.172  0.00  0.00    +0.000 A 
ATOM     20  N   UNL     1      46.470   3.777   7.261  0.00  0.00    +0.000 NA
BRANCH  15  21
ATOM     21  C   UNL     1      47.445   1.676   6.433  0.00  0.00    +0.000 C 
BRANCH  21  22
ATOM     22  N   UNL     1      48.665   2.409   6.082  0.00  0.00    +0.000 NA
ATOM     23  H   UNL     1      48.687   2.536   5.071  0.00  0.00    +0.000 HD
ATOM     24  H   UNL     1      49.467   1.816   6.301  0.00  0.00    +0.000 HD
ENDBRANCH  21  22
ENDBRANCH  15  21
ENDBRANCH  14  18
ENDBRANCH   1  14
TORSDOF 5
ENDMDL
MODEL 4
REMARK VINA RESULT:    -6.913      3.013      6.891
REMARK INTER + INTRA:          -9.125
REMARK INTER:                  -8.723
REMARK INTRA:                  -0.402
REMARK UNBOUND:                -0.393
REMARK  Name = 
REMARK  5 active torsions:
REMARK  status: ('A' for Active; 'I' for Inactive)
REMARK    1  A    between atoms: N_1  and  C_2
REMARK    2  A    between atoms: C_2  and  C_3
REMARK    3  A    between atoms: C_6  and  C_7
REMARK    4  A    between atoms: C_7  and  N_8
REMARK    5  A    between atoms: C_12  and  C_13
REMARK                            x       y       z     vdW  Elec       q    Type
REMARK                         _______ _______ _______ _____ _____    ______ ____
ROOT
ATOM      1  N   UNL     1      44.463   4.187  11.551  0.00  0.00    +0.000 N 
ATOM      2  C   UNL     1      45.125   5.350  11.903  0.00  0.00    +0.000 A 
ATOM      3  C   UNL     1      44.797   6.626  11.431  0.00  0.00    +0.000 A 
ATOM      4  N   UNL     1      45.380   7.782  11.849  0.00  0.00    +0.000 NA
ATOM      5  C   UNL     1      46.326   7.611  12.810  0.00  0.00    +0.000 A 
ATOM      6  C   UNL     1      46.675   6.358  13.286  0.00  0.00    +0.000 A 
ATOM      7  N   UNL     1      46.090   5.212  12.837  0.00  0.00    +0.000 NA
ATOM      8  H   UNL     1      45.015   3.389  11.860  0.00  0.00    +0.000 HD
ENDROOT
BRANCH   5   9
ATOM      9  C   UNL     1      46.962   8.834  13.372  0.00  0.00    +0.000 C 
ATOM     10  N   UNL     1      47.197   8.835  14.722  0.00  0.00    +0.000 N 
ATOM     11  O   UNL     1      47.275   9.787  12.667  0.00  0.00    +0.000 OA
ATOM     12  H   UNL     1      46.961   8.028  15.286  0.00  0.00    +0.000 HD
ATOM     13  H   UNL     1      47.659   9.630  15.141  0.00  0.00    +0.000 HD
ENDBRANCH   5   9
BRANCH   1  14
ATOM     14  C   UNL     1      43.851   4.060  10.239  0.00  0.00    +0.000 C 
BRANCH  14  18
ATOM     15  C   UNL     1      46.606   2.403   7.511  0.00  0.00    +0.000 A 
ATOM     16  C   UNL     1      45.902   1.605   8.407  0.00  0.00    +0.000 A 
ATOM     17  N   UNL     1      44.995   2.099   9.287  0.00  0.00    +0.000 NA
ATOM     18  C   UNL     1      44.799   3.442   9.240  0.00  0.00    +0.000 A 
ATOM     19  C   UNL     1      45.493   4.239   8.334  0.00  0.00    +0.000 A 
ATOM     20  N   UNL     1      46.404   3.745   7.460  0.00  0.00    +0.000 NA
BRANCH  15  21
ATOM     21  C   UNL     1      47.642   1.803   6.594  0.00  0.00    +0.000 C 
BRANCH  21  22
ATOM     22  N   UNL     1      48.702   2.745   6.225  0.00  0.00    +0.000 NA
ATOM     23  H   UNL     1      48.369   3.693   6.403  0.00  0.00    +0.000 HD
ATOM     24  H   UNL     1      48.841   2.689   5.215  0.00  0.00    +0.000 HD
ENDBRANCH  21  22
ENDBRANCH  15  21
ENDBRANCH  14  18
ENDBRANCH   1  14
TORSDOF 5
ENDMDL
MODEL 5
REMARK VINA RESULT:    -6.897      1.730      2.183
REMARK INTER + INTRA:          -9.105
REMARK INTER:                  -8.880
REMARK INTRA:                  -0.225
REMARK UNBOUND:                -0.393
REMARK  Name = 
REMARK  5 active torsions:
REMARK  status: ('A' for Active; 'I' for Inactive)
REMARK    1  A    between atoms: N_1  and  C_2
REMARK    2  A    between atoms: C_2  and  C_3
REMARK    3  A    between atoms: C_6  and  C_7
REMARK    4  A    between atoms: C_7  and  N_8
REMARK    5  A    between atoms: C_12  and  C_13
REMARK                            x       y       z     vdW  Elec       q    Type
REMARK                         _______ _______ _______ _____ _____    ______ ____
ROOT
ATOM      1  N   UNL     1      44.040   3.864  10.875  0.00  0.00    +0.000 N 
ATOM      2  C   UNL     1      44.760   3.543   9.738  0.00  0.00    +0.000 A 
ATOM      3  C   UNL     1      45.463   4.465   8.954  0.00  0.00    +0.000 A 
ATOM      4  N   UNL     1      46.252   4.142   7.895  0.00  0.00    +0.000 NA
ATOM      5  C   UNL     1      46.334   2.807   7.650  0.00  0.00    +0.000 A 
ATOM      6  C   UNL     1      45.641   1.876   8.405  0.00  0.00    +0.000 A 
ATOM      7  N   UNL     1      44.840   2.226   9.450  0.00  0.00    +0.000 NA
ATOM      8  H   UNL     1      43.465   3.065  11.136  0.00  0.00    +0.000 HD
ENDROOT
BRANCH   5   9
ATOM      9  C   UNL     1      47.234   2.364   6.550  0.00  0.00    +0.000 C 
ATOM     10  N   UNL     1      47.182   3.090   5.389  0.00  0.00    +0.000 N 
ATOM     11  O   UNL     1      47.994   1.410   6.675  0.00  0.00    +0.000 OA
ATOM     12  H   UNL     1      46.571   3.895   5.312  0.00  0.00    +0.000 HD
ATOM     13  H   UNL     1      47.801   2.848   4.628  0.00  0.00    +0.000 HD
ENDBRANCH   5   9
BRANCH   1  14
ATOM     14  C   UNL     1      43.405   5.165  10.997  0.00  0.00    +0.000 C 
BRANCH  14  18
ATOM     15  C   UNL     1      46.076   7.922  12.744  0.00  0.00    +0.000 A 
ATOM     16  C   UNL     1      45.082   8.333  11.862  0.00  0.00    +0.000 A 
ATOM     17  N   UNL     1      44.193   7.479  11.294  0.00  0.00    +0.000 NA
ATOM     18  C   UNL     1      44.322   6.174  11.646  0.00  0.00    +0.000 A 
ATOM     19  C   UNL     1      45.308   5.764  12.540  0.00  0.00    +0.000 A 
ATOM     20  N   UNL     1      46.199   6.617  13.102  0.00  0.00    +0.000 NA
BRANCH  15  21
ATOM     21  C   UNL     1      47.069   8.910  13.302  0.00  0.00    +0.000 C 
BRANCH  21  22
ATOM     22  N   UNL     1      47.085   8.948  14.767  0.00  0.00    +0.000 NA
ATOM     23  H   UNL     1      47.097   7.990  15.116  0.00  0.00    +0.000 HD
ATOM     24  H   UNL     1      46.199   9.344  15.084  0.00  0.00    +0.000 HD
ENDBRANCH  21  22
ENDBRANCH  15  21
ENDBRANCH  14  18
ENDBRANCH   1  14
TORSDOF 5
ENDMDL
MODEL 6
REMARK VINA RESULT:    -5.974      3.333      7.416
REMARK INTER + INTRA:          -7.939
REMARK INTER:                  -7.618
REMARK INTRA:                  -0.320
REMARK UNBOUND:                -0.393
REMARK  Name = 
REMARK  5 active torsions:
REMARK  status: ('A' for Active; 'I' for Inactive)
REMARK    1  A    between atoms: N_1  and  C_2
REMARK    2  A    between atoms: C_2  and  C_3
REMARK    3  A    between atoms: C_6  and  C_7
REMARK    4  A    between atoms: C_7  and  N_8
REMARK    5  A    between atoms: C_12  and  C_13
REMARK                            x       y       z     vdW  Elec       q    Type
REMARK                         _______ _______ _______ _____ _____    ______ ____
ROOT
ATOM      1  N   UNL     1      46.793   5.995  13.509  0.00  0.00    +0.000 N 
ATOM      2  C   UNL     1      47.257   5.354  14.645  0.00  0.00    +0.000 A 
ATOM      3  C   UNL     1      46.814   4.103  15.090  0.00  0.00    +0.000 A 
ATOM      4  N   UNL     1      47.337   3.426  16.148  0.00  0.00    +0.000 NA
ATOM      5  C   UNL     1      48.374   4.060  16.757  0.00  0.00    +0.000 A 
ATOM      6  C   UNL     1      48.824   5.303  16.341  0.00  0.00    +0.000 A 
ATOM      7  N   UNL     1      48.271   5.971  15.290  0.00  0.00    +0.000 NA
ATOM      8  H   UNL     1      47.116   6.961  13.523  0.00  0.00    +0.000 HD
ENDROOT
BRANCH   5   9
ATOM      9  C   UNL     1      49.047   3.353  17.880  0.00  0.00    +0.000 C 
ATOM     10  N   UNL     1      48.354   3.282  19.059  0.00  0.00    +0.000 N 
ATOM     11  O   UNL     1      50.158   2.847  17.758  0.00  0.00    +0.000 OA
ATOM     12  H   UNL     1      47.425   3.679  19.136  0.00  0.00    +0.000 HD
ATOM     13  H   UNL     1      48.757   2.781  19.839  0.00  0.00    +0.000 HD
ENDBRANCH   5   9
BRANCH   1  14
ATOM     14  C   UNL     1      45.425   5.793  13.062  0.00  0.00    +0.000 C 
BRANCH  14  18
ATOM     15  C   UNL     1      45.426   4.223   9.149  0.00  0.00    +0.000 A 
ATOM     16  C   UNL     1      44.937   3.490  10.225  0.00  0.00    +0.000 A 
ATOM     17  N   UNL     1      44.903   3.968  11.494  0.00  0.00    +0.000 NA
ATOM     18  C   UNL     1      45.375   5.230  11.662  0.00  0.00    +0.000 A 
ATOM     19  C   UNL     1      45.852   5.969  10.583  0.00  0.00    +0.000 A 
ATOM     20  N   UNL     1      45.891   5.488   9.316  0.00  0.00    +0.000 NA
BRANCH  15  21
ATOM     21  C   UNL     1      45.488   3.618   7.768  0.00  0.00    +0.000 C 
BRANCH  21  22
ATOM     22  N   UNL     1      46.558   4.180   6.939  0.00  0.00    +0.000 NA
ATOM     23  H   UNL     1      47.422   3.677   7.140  0.00  0.00    +0.000 HD
ATOM     24  H   UNL     1      46.724   5.140   7.242  0.00  0.00    +0.000 HD
ENDBRANCH  21  22
ENDBRANCH  15  21
ENDBRANCH  14  18
ENDBRANCH   1  14
TORSDOF 5
ENDMDL
MODEL 7
REMARK VINA RESULT:    -5.941      4.164      6.720
REMARK INTER + INTRA:          -7.897
REMARK INTER:                  -7.610
REMARK INTRA:                  -0.287
REMARK UNBOUND:                -0.393
REMARK  Name = 
REMARK  5 active torsions:
REMARK  status: ('A' for Active; 'I' for Inactive)
REMARK    1  A    between atoms: N_1  and  C_2
REMARK    2  A    between atoms: C_2  and  C_3
REMARK    3  A    between atoms: C_6  and  C_7
REMARK    4  A    between atoms: C_7  and  N_8
REMARK    5  A    between atoms: C_12  and  C_13
REMARK                            x       y       z     vdW  Elec       q    Type
REMARK                         _______ _______ _______ _____ _____    ______ ____
ROOT
ATOM      1  N   UNL     1      47.146   3.716  15.493  0.00  0.00    +0.000 N 
ATOM      2  C   UNL     1      46.663   4.483  14.447  0.00  0.00    +0.000 A 
ATOM      3  C   UNL     1      47.276   5.646  13.965  0.00  0.00    +0.000 A 
ATOM      4  N   UNL     1      46.862   6.347  12.875  0.00  0.00    +0.000 NA
ATOM      5  C   UNL     1      45.781   5.811  12.247  0.00  0.00    +0.000 A 
ATOM      6  C   UNL     1      45.152   4.668  12.711  0.00  0.00    +0.000 A 
ATOM      7  N   UNL     1      45.575   3.993  13.818  0.00  0.00    +0.000 NA
ATOM      8  H   UNL     1      46.422   3.058  15.777  0.00  0.00    +0.000 HD
ENDROOT
BRANCH   5   9
ATOM      9  C   UNL     1      45.307   6.480  11.005  0.00  0.00    +0.000 C 
ATOM     10  N   UNL     1      45.356   5.737   9.855  0.00  0.00    +0.000 N 
ATOM     11  O   UNL     1      44.882   7.630  11.007  0.00  0.00    +0.000 OA
ATOM     12  H   UNL     1      45.681   4.778   9.875  0.00  0.00    +0.000 HD
ATOM     13  H   UNL     1      45.011   6.138   8.994  0.00  0.00    +0.000 HD
ENDBRANCH   5   9
BRANCH   1  14
ATOM     14  C   UNL     1      47.894   4.337  16.573  0.00  0.00    +0.000 C 
BRANCH  14  18
ATOM     15  C   UNL     1      51.358   2.086  17.419  0.00  0.00    +0.000 A 
ATOM     16  C   UNL     1      51.300   3.453  17.673  0.00  0.00    +0.000 A 
ATOM     17  N   UNL     1      50.198   4.207  17.431  0.00  0.00    +0.000 NA
ATOM     18  C   UNL     1      49.128   3.541  16.925  0.00  0.00    +0.000 A 
ATOM     19  C   UNL     1      49.180   2.171  16.685  0.00  0.00    +0.000 A 
ATOM     20  N   UNL     1      50.284   1.420  16.921  0.00  0.00    +0.000 NA
BRANCH  15  21
ATOM     21  C   UNL     1      52.629   1.310  17.658  0.00  0.00    +0.000 C 
BRANCH  21  22
ATOM     22  N   UNL     1      52.393  -0.033  18.194  0.00  0.00    +0.000 NA
ATOM     23  H   UNL     1      52.334  -0.687  17.413  0.00  0.00    +0.000 HD
ATOM     24  H   UNL     1      51.471  -0.045  18.630  0.00  0.00    +0.000 HD
ENDBRANCH  21  22
ENDBRANCH  15  21
ENDBRANCH  14  18
ENDBRANCH   1  14
TORSDOF 5
ENDMDL
MODEL 8
REMARK VINA RESULT:    -5.732      3.161      5.644
REMARK INTER + INTRA:          -7.633
REMARK INTER:                  -7.337
REMARK INTRA:                  -0.296
REMARK UNBOUND:                -0.393
REMARK  Name = 
REMARK  5 active torsions:
REMARK  status: ('A' for Active; 'I' for Inactive)
REMARK    1  A    between atoms: N_1  and  C_2
REMARK    2  A    between atoms: C_2  and  C_3
REMARK    3  A    between atoms: C_6  and  C_7
REMARK    4  A    between atoms: C_7  and  N_8
REMARK    5  A    between atoms: C_12  and  C_13
REMARK                            x       y       z     vdW  Elec       q    Type
REMARK                         _______ _______ _______ _____ _____    ______ ____
ROOT
ATOM      1  N   UNL     1      47.276   6.770  14.220  0.00  0.00    +0.000 N 
ATOM      2  C   UNL     1      46.584   5.856  13.443  0.00  0.00    +0.000 A 
ATOM      3  C   UNL     1      46.723   4.466  13.536  0.00  0.00    +0.000 A 
ATOM      4  N   UNL     1      45.974   3.564  12.847  0.00  0.00    +0.000 NA
ATOM      5  C   UNL     1      45.029   4.122  12.045  0.00  0.00    +0.000 A 
ATOM      6  C   UNL     1      44.879   5.494  11.929  0.00  0.00    +0.000 A 
ATOM      7  N   UNL     1      45.654   6.380  12.616  0.00  0.00    +0.000 NA
ATOM      8  H   UNL     1      47.151   7.699  13.821  0.00  0.00    +0.000 HD
ENDROOT
BRANCH   5   9
ATOM      9  C   UNL     1      44.121   3.200  11.309  0.00  0.00    +0.000 C 
ATOM     10  N   UNL     1      44.703   2.392  10.369  0.00  0.00    +0.000 N 
ATOM     11  O   UNL     1      42.917   3.153  11.538  0.00  0.00    +0.000 OA
ATOM     12  H   UNL     1      45.704   2.421  10.213  0.00  0.00    +0.000 HD
ATOM     13  H   UNL     1      44.131   1.725   9.870  0.00  0.00    +0.000 HD
ENDBRANCH   5   9
BRANCH   1  14
ATOM     14  C   UNL     1      48.614   6.461  14.696  0.00  0.00    +0.000 C 
BRANCH  14  18
ATOM     15  C   UNL     1      48.486   5.511  18.803  0.00  0.00    +0.000 A 
ATOM     16  C   UNL     1      48.444   4.521  17.826  0.00  0.00    +0.000 A 
ATOM     17  N   UNL     1      48.501   4.786  16.497  0.00  0.00    +0.000 NA
ATOM     18  C   UNL     1      48.612   6.097  16.162  0.00  0.00    +0.000 A 
ATOM     19  C   UNL     1      48.668   7.087  17.138  0.00  0.00    +0.000 A 
ATOM     20  N   UNL     1      48.605   6.822  18.466  0.00  0.00    +0.000 NA
BRANCH  15  21
ATOM     21  C   UNL     1      48.364   5.159  20.264  0.00  0.00    +0.000 C 
BRANCH  21  22
ATOM     22  N   UNL     1      48.347   3.715  20.511  0.00  0.00    +0.000 NA
ATOM     23  H   UNL     1      49.289   3.418  20.761  0.00  0.00    +0.000 HD
ATOM     24  H   UNL     1      48.136   3.244  19.630  0.00  0.00    +0.000 HD
ENDBRANCH  21  22
ENDBRANCH  15  21
ENDBRANCH  14  18
ENDBRANCH   1  14
TORSDOF 5
ENDMDL
MODEL 9
REMARK VINA RESULT:    -5.579      5.153      8.685
REMARK INTER + INTRA:          -7.440
REMARK INTER:                  -7.118
REMARK INTRA:                  -0.322
REMARK UNBOUND:                -0.393
REMARK  Name = 
REMARK  5 active torsions:
REMARK  status: ('A' for Active; 'I' for Inactive)
REMARK    1  A    between atoms: N_1  and  C_2
REMARK    2  A    between atoms: C_2  and  C_3
REMARK    3  A    between atoms: C_6  and  C_7
REMARK    4  A    between atoms: C_7  and  N_8
REMARK    5  A    between atoms: C_12  and  C_13
REMARK                            x       y       z     vdW  Elec       q    Type
REMARK                         _______ _______ _______ _____ _____    ______ ____
ROOT
ATOM      1  N   UNL     1      47.118   3.463  15.343  0.00  0.00    +0.000 N 
ATOM      2  C   UNL     1      47.820   3.942  16.436  0.00  0.00    +0.000 A 
ATOM      3  C   UNL     1      48.242   5.267  16.592  0.00  0.00    +0.000 A 
ATOM      4  N   UNL     1      48.843   5.764  17.706  0.00  0.00    +0.000 NA
ATOM      5  C   UNL     1      48.995   4.857  18.708  0.00  0.00    +0.000 A 
ATOM      6  C   UNL     1      48.594   3.538  18.573  0.00  0.00    +0.000 A 
ATOM      7  N   UNL     1      48.011   3.059  17.439  0.00  0.00    +0.000 NA
ATOM      8  H   UNL     1      47.115   2.445  15.376  0.00  0.00    +0.000 HD
ENDROOT
BRANCH   5   9
ATOM      9  C   UNL     1      49.581   5.339  19.988  0.00  0.00    +0.000 C 
ATOM     10  N   UNL     1      50.153   4.390  20.793  0.00  0.00    +0.000 N 
ATOM     11  O   UNL     1      49.568   6.524  20.304  0.00  0.00    +0.000 OA
ATOM     12  H   UNL     1      50.182   3.420  20.504  0.00  0.00    +0.000 HD
ATOM     13  H   UNL     1      50.594   4.676  21.656  0.00  0.00    +0.000 HD
ENDBRANCH   5   9
BRANCH   1  14
ATOM     14  C   UNL     1      47.319   4.051  14.029  0.00  0.00    +0.000 C 
BRANCH  14  18
ATOM     15  C   UNL     1      43.758   5.442  12.248  0.00  0.00    +0.000 A 
ATOM     16  C   UNL     1      43.882   4.131  12.696  0.00  0.00    +0.000 A 
ATOM     17  N   UNL     1      45.004   3.652  13.290  0.00  0.00    +0.000 NA
ATOM     18  C   UNL     1      46.020   4.542  13.435  0.00  0.00    +0.000 A 
ATOM     19  C   UNL     1      45.892   5.857  12.999  0.00  0.00    +0.000 A 
ATOM     20  N   UNL     1      44.772   6.333  12.400  0.00  0.00    +0.000 NA
BRANCH  15  21
ATOM     21  C   UNL     1      42.505   5.903  11.546  0.00  0.00    +0.000 C 
BRANCH  21  22
ATOM     22  N   UNL     1      42.525   7.328  11.205  0.00  0.00    +0.000 NA
ATOM     23  H   UNL     1      41.573   7.689  11.268  0.00  0.00    +0.000 HD
ATOM     24  H   UNL     1      42.785   7.416  10.222  0.00  0.00    +0.000 HD
ENDBRANCH  21  22
ENDBRANCH  15  21
ENDBRANCH  14  18
ENDBRANCH   1  14
TORSDOF 5
ENDMDL
