MODEL 1
REMARK VINA RESULT:    -7.603      0.000      0.000
REMARK INTER + INTRA:         -10.064
REMARK INTER:                  -9.603
REMARK INTRA:                  -0.461
REMARK UNBOUND:                -0.461
REMARK  Name = 
REMARK  6 active torsions:
REMARK  status: ('A' for Active; 'I' for Inactive)
REMARK    1  A    between atoms: C_1  and  O_2
REMARK    2  A    between atoms: O_2  and  C_3
REMARK    3  A    between atoms: N_9  and  C_10
REMARK    4  A    between atoms: C_10  and  C_11
REMARK    5  A    between atoms: C_15  and  C_16
REMARK    6  A    between atoms: C_16  and  N_17
REMARK                            x       y       z     vdW  Elec       q    Type
REMARK                         _______ _______ _______ _____ _____    ______ ____
ROOT
ATOM      1  C   UNL     1      46.777   6.118  12.384  0.00  0.00    +0.000 A 
ATOM      2  C   UNL     1      46.389   5.671  13.647  0.00  0.00    +0.000 A 
ATOM      3  N   UNL     1      45.415   4.768  13.912  0.00  0.00    +0.000 NA
ATOM      4  C   UNL     1      44.797   4.278  12.815  0.00  0.00    +0.000 A 
ATOM      5  N   UNL     1      43.774   3.370  12.826  0.00  0.00    +0.000 NA
ATOM      6  C   UNL     1      43.468   3.190  11.561  0.00  0.00    +0.000 A 
ATOM      7  N   UNL     1      44.258   3.941  10.731  0.00  0.00    +0.000 N 
ATOM      8  C   UNL     1      45.119   4.665  11.518  0.00  0.00    +0.000 A 
ATOM      9  C   UNL     1      46.120   5.604  11.266  0.00  0.00    +0.000 A 
ENDROOT
BRANCH   1  11
ATOM     10  C   UNL     1      48.923   6.985  12.914  0.00  0.00    +0.000 C 
ATOM     11  O   UNL     1      47.756   7.030  12.103  0.00  0.00    +0.000 OA
ENDBRANCH   1  11
BRANCH   7  12
ATOM     12  C   UNL     1      44.096   4.043   9.292  0.00  0.00    +0.000 C 
BRANCH  12  13
ATOM     13  C   UNL     1      45.051   3.156   8.537  0.00  0.00    +0.000 A 
ATOM     14  C   UNL     1      45.295   1.842   8.961  0.00  0.00    +0.000 A 
ATOM     15  C   UNL     1      46.132   1.005   8.222  0.00  0.00    +0.000 A 
ATOM     16  C   UNL     1      46.743   1.470   7.057  0.00  0.00    +0.000 A 
ATOM     17  C   UNL     1      46.534   2.786   6.624  0.00  0.00    +0.000 A 
ATOM     18  C   UNL     1      45.691   3.620   7.377  0.00  0.00    +0.000 A 
BRANCH  17  19
ATOM     19  C   UNL     1      47.218   3.307   5.385  0.00  0.00    +0.000 C 
BRANCH  19  20
ATOM     20  N   UNL     1      48.270   2.404   4.929  0.00  0.00    +0.000 NA
ATOM     21  H   UNL     1      48.962   2.945   4.412  0.00  0.00    +0.000 HD
ATOM     22  H   UNL     1      47.872   1.742   4.266  0.00  0.00    +0.000 HD
ENDBRANCH  19  20
ENDBRANCH  17  19
ENDBRANCH  12  13
ENDBRANCH   7  12
TORSDOF 5
ENDMDL
MODEL 2
REMARK VINA RESULT:    -7.512      1.932      2.562
REMARK INTER + INTRA:          -9.949
REMARK INTER:                  -9.584
REMARK INTRA:                  -0.365
REMARK UNBOUND:                -0.461
REMARK  Name = 
REMARK  6 active torsions:
REMARK  status: ('A' for Active; 'I' for Inactive)
REMARK    1  A    between atoms: C_1  and  O_2
REMARK    2  A    between atoms: O_2  and  C_3
REMARK    3  A    between atoms: N_9  and  C_10
REMARK    4  A    between atoms: C_10  and  C_11
REMARK    5  A    between atoms: C_15  and  C_16
REMARK    6  A    between atoms: C_16  and  N_17
REMARK                            x       y       z     vdW  Elec       q    Type
REMARK                         _______ _______ _______ _____ _____    ______ ____
ROOT
ATOM      1  C   UNL     1      46.732   4.154  13.670  0.00  0.00    +0.000 A 
ATOM      2  C   UNL     1      46.431   5.483  13.972  0.00  0.00    +0.000 A 
ATOM      3  N   UNL     1      45.494   6.249  13.363  0.00  0.00    +0.000 NA
ATOM      4  C   UNL     1      44.810   5.618  12.385  0.00  0.00    +0.000 A 
ATOM      5  N   UNL     1      43.829   6.184  11.617  0.00  0.00    +0.000 NA
ATOM      6  C   UNL     1      43.454   5.233  10.792  0.00  0.00    +0.000 A 
ATOM      7  N   UNL     1      44.148   4.070  11.000  0.00  0.00    +0.000 N 
ATOM      8  C   UNL     1      45.041   4.296  12.018  0.00  0.00    +0.000 A 
ATOM      9  C   UNL     1      46.018   3.526  12.651  0.00  0.00    +0.000 A 
ENDROOT
BRANCH   1  11
ATOM     10  C   UNL     1      47.661   3.335  15.696  0.00  0.00    +0.000 C 
ATOM     11  O   UNL     1      47.676   3.372  14.275  0.00  0.00    +0.000 OA
ENDBRANCH   1  11
BRANCH   7  12
ATOM     12  C   UNL     1      44.039   2.876  10.183  0.00  0.00    +0.000 C 
BRANCH  12  13
ATOM     13  C   UNL     1      45.001   2.879   9.024  0.00  0.00    +0.000 A 
ATOM     14  C   UNL     1      45.226   4.046   8.282  0.00  0.00    +0.000 A 
ATOM     15  C   UNL     1      46.165   4.059   7.249  0.00  0.00    +0.000 A 
ATOM     16  C   UNL     1      46.884   2.904   6.938  0.00  0.00    +0.000 A 
ATOM     17  C   UNL     1      46.662   1.718   7.648  0.00  0.00    +0.000 A 
ATOM     18  C   UNL     1      45.713   1.718   8.684  0.00  0.00    +0.000 A 
BRANCH  17  19
ATOM     19  C   UNL     1      47.410   0.457   7.295  0.00  0.00    +0.000 C 
BRANCH  19  20
ATOM     20  N   UNL     1      46.661  -0.738   7.672  0.00  0.00    +0.000 NA
ATOM     21  H   UNL     1      46.162  -1.081   6.853  0.00  0.00    +0.000 HD
ATOM     22  H   UNL     1      45.950  -0.480   8.353  0.00  0.00    +0.000 HD
ENDBRANCH  19  20
ENDBRANCH  17  19
ENDBRANCH  12  13
ENDBRANCH   7  12
TORSDOF 5
ENDMDL
MODEL 3
REMARK VINA RESULT:    -7.331      2.260      6.052
REMARK INTER + INTRA:          -9.720
REMARK INTER:                  -9.220
REMARK INTRA:                  -0.500
REMARK UNBOUND:                -0.461
REMARK  Name = 
REMARK  6 active torsions:
REMARK  status: ('A' for Active; 'I' for Inactive)
REMARK    1  A    between atoms: C_1  and  O_2
REMARK    2  A    between atoms: O_2  and  C_3
REMARK    3  A    between atoms: N_9  and  C_10
REMARK    4  A    between atoms: C_10  and  C_11
REMARK    5  A    between atoms: C_15  and  C_16
REMARK    6  A    between atoms: C_16  and  N_17
REMARK                            x       y       z     vdW  Elec       q    Type
REMARK                         _______ _______ _______ _____ _____    ______ ____
ROOT
ATOM      1  C   UNL     1      45.840   3.581   8.033  0.00  0.00    +0.000 A 
ATOM      2  C   UNL     1      45.304   2.302   8.184  0.00  0.00    +0.000 A 
ATOM      3  N   UNL     1      44.462   1.898   9.166  0.00  0.00    +0.000 NA
ATOM      4  C   UNL     1      44.136   2.864  10.051  0.00  0.00    +0.000 A 
ATOM      5  N   UNL     1      43.318   2.696  11.135  0.00  0.00    +0.000 NA
ATOM      6  C   UNL     1      43.290   3.872  11.722  0.00  0.00    +0.000 A 
ATOM      7  N   UNL     1      44.051   4.796  11.056  0.00  0.00    +0.000 N 
ATOM      8  C   UNL     1      44.621   4.166   9.977  0.00  0.00    +0.000 A 
ATOM      9  C   UNL     1      45.495   4.561   8.963  0.00  0.00    +0.000 A 
ENDROOT
BRANCH   1  11
ATOM     10  C   UNL     1      46.821   3.156   5.912  0.00  0.00    +0.000 C 
ATOM     11  O   UNL     1      46.692   4.000   7.049  0.00  0.00    +0.000 OA
ENDBRANCH   1  11
BRANCH   7  12
ATOM     12  C   UNL     1      44.308   6.149  11.512  0.00  0.00    +0.000 C 
BRANCH  12  13
ATOM     13  C   UNL     1      45.615   6.273  12.252  0.00  0.00    +0.000 A 
ATOM     14  C   UNL     1      46.529   7.284  11.928  0.00  0.00    +0.000 A 
ATOM     15  C   UNL     1      47.709   7.432  12.658  0.00  0.00    +0.000 A 
ATOM     16  C   UNL     1      47.996   6.567  13.714  0.00  0.00    +0.000 A 
ATOM     17  C   UNL     1      47.111   5.534  14.045  0.00  0.00    +0.000 A 
ATOM     18  C   UNL     1      45.927   5.394  13.301  0.00  0.00    +0.000 A 
BRANCH  17  19
ATOM     19  C   UNL     1      47.430   4.573  15.163  0.00  0.00    +0.000 C 
BRANCH  19  20
ATOM     20  N   UNL     1      47.480   3.193  14.690  0.00  0.00    +0.000 NA
ATOM     21  H   UNL     1      48.363   3.048  14.203  0.00  0.00    +0.000 HD
ATOM     22  H   UNL     1      46.746   3.054  13.999  0.00  0.00    +0.000 HD
ENDBRANCH  19  20
ENDBRANCH  17  19
ENDBRANCH  12  13
ENDBRANCH   7  12
TORSDOF 5
ENDMDL
MODEL 4
REMARK VINA RESULT:    -6.992      2.286      5.666
REMARK INTER + INTRA:          -9.293
REMARK INTER:                  -8.714
REMARK INTRA:                  -0.579
REMARK UNBOUND:                -0.461
REMARK  Name = 
REMARK  6 active torsions:
REMARK  status: ('A' for Active; 'I' for Inactive)
REMARK    1  A    between atoms: C_1  and  O_2
REMARK    2  A    between atoms: O_2  and  C_3
REMARK    3  A    between atoms: N_9  and  C_10
REMARK    4  A    between atoms: C_10  and  C_11
REMARK    5  A    between atoms: C_15  and  C_16
REMARK    6  A    between atoms: C_16  and  N_17
REMARK                            x       y       z     vdW  Elec       q    Type
REMARK                         _______ _______ _______ _____ _____    ______ ____
ROOT
ATOM      1  C   UNL     1      45.732   3.583   8.016  0.00  0.00    +0.000 A 
ATOM      2  C   UNL     1      45.212   2.299   8.183  0.00  0.00    +0.000 A 
ATOM      3  N   UNL     1      44.417   1.884   9.198  0.00  0.00    +0.000 NA
ATOM      4  C   UNL     1      44.125   2.843  10.103  0.00  0.00    +0.000 A 
ATOM      5  N   UNL     1      43.357   2.664  11.221  0.00  0.00    +0.000 NA
ATOM      6  C   UNL     1      43.348   3.835  11.817  0.00  0.00    +0.000 A 
ATOM      7  N   UNL     1      44.073   4.768  11.123  0.00  0.00    +0.000 N 
ATOM      8  C   UNL     1      44.598   4.149  10.016  0.00  0.00    +0.000 A 
ATOM      9  C   UNL     1      45.424   4.554   8.966  0.00  0.00    +0.000 A 
ENDROOT
BRANCH   1  11
ATOM     10  C   UNL     1      46.854   3.064   5.988  0.00  0.00    +0.000 C 
ATOM     11  O   UNL     1      46.537   4.013   6.998  0.00  0.00    +0.000 OA
ENDBRANCH   1  11
BRANCH   7  12
ATOM     12  C   UNL     1      44.342   6.120  11.576  0.00  0.00    +0.000 C 
BRANCH  12  13
ATOM     13  C   UNL     1      45.688   6.252  12.240  0.00  0.00    +0.000 A 
ATOM     14  C   UNL     1      45.975   5.556  13.422  0.00  0.00    +0.000 A 
ATOM     15  C   UNL     1      47.243   5.633  13.999  0.00  0.00    +0.000 A 
ATOM     16  C   UNL     1      48.239   6.412  13.408  0.00  0.00    +0.000 A 
ATOM     17  C   UNL     1      47.972   7.136  12.239  0.00  0.00    +0.000 A 
ATOM     18  C   UNL     1      46.690   7.052  11.670  0.00  0.00    +0.000 A 
BRANCH  17  19
ATOM     19  C   UNL     1      49.032   8.008  11.614  0.00  0.00    +0.000 C 
BRANCH  19  20
ATOM     20  N   UNL     1      50.349   7.381  11.671  0.00  0.00    +0.000 NA
ATOM     21  H   UNL     1      50.459   6.780  10.856  0.00  0.00    +0.000 HD
ATOM     22  H   UNL     1      50.388   6.770  12.484  0.00  0.00    +0.000 HD
ENDBRANCH  19  20
ENDBRANCH  17  19
ENDBRANCH  12  13
ENDBRANCH   7  12
TORSDOF 5
ENDMDL
MODEL 5
REMARK VINA RESULT:    -6.541      1.434      2.284
REMARK INTER + INTRA:          -8.723
REMARK INTER:                  -8.198
REMARK INTRA:                  -0.525
REMARK UNBOUND:                -0.461
REMARK  Name = 
REMARK  6 active torsions:
REMARK  status: ('A' for Active; 'I' for Inactive)
REMARK    1  A    between atoms: C_1  and  O_2
REMARK    2  A    between atoms: O_2  and  C_3
REMARK    3  A    between atoms: N_9  and  C_10
REMARK    4  A    between atoms: C_10  and  C_11
REMARK    5  A    between atoms: C_15  and  C_16
REMARK    6  A    between atoms: C_16  and  N_17
REMARK                            x       y       z     vdW  Elec       q    Type
REMARK                         _______ _______ _______ _____ _____    ______ ____
ROOT
ATOM      1  C   UNL     1      48.503   7.525  12.383  0.00  0.00    +0.000 A 
ATOM      2  C   UNL     1      48.838   7.051  13.651  0.00  0.00    +0.000 A 
ATOM      3  N   UNL     1      48.174   6.100  14.352  0.00  0.00    +0.000 NA
ATOM      4  C   UNL     1      47.098   5.591  13.716  0.00  0.00    +0.000 A 
ATOM      5  N   UNL     1      46.261   4.635  14.224  0.00  0.00    +0.000 NA
ATOM      6  C   UNL     1      45.353   4.451  13.292  0.00  0.00    +0.000 A 
ATOM      7  N   UNL     1      45.573   5.244  12.197  0.00  0.00    +0.000 N 
ATOM      8  C   UNL     1      46.690   6.002  12.450  0.00  0.00    +0.000 A 
ATOM      9  C   UNL     1      47.383   6.989  11.748  0.00  0.00    +0.000 A 
ENDROOT
BRANCH   1  11
ATOM     10  C   UNL     1      50.537   8.679  11.973  0.00  0.00    +0.000 C 
ATOM     11  O   UNL     1      49.163   8.484  11.666  0.00  0.00    +0.000 OA
ENDBRANCH   1  11
BRANCH   7  12
ATOM     12  C   UNL     1      44.689   5.350  11.052  0.00  0.00    +0.000 C 
BRANCH  12  13
ATOM     13  C   UNL     1      44.959   4.293  10.012  0.00  0.00    +0.000 A 
ATOM     14  C   UNL     1      44.383   3.020  10.117  0.00  0.00    +0.000 A 
ATOM     15  C   UNL     1      44.587   2.067   9.118  0.00  0.00    +0.000 A 
ATOM     16  C   UNL     1      45.376   2.368   8.008  0.00  0.00    +0.000 A 
ATOM     17  C   UNL     1      45.982   3.625   7.890  0.00  0.00    +0.000 A 
ATOM     18  C   UNL     1      45.771   4.576   8.902  0.00  0.00    +0.000 A 
BRANCH  17  19
ATOM     19  C   UNL     1      46.865   3.947   6.710  0.00  0.00    +0.000 C 
BRANCH  19  20
ATOM     20  N   UNL     1      47.878   2.918   6.498  0.00  0.00    +0.000 NA
ATOM     21  H   UNL     1      47.531   2.037   6.874  0.00  0.00    +0.000 HD
ATOM     22  H   UNL     1      48.706   3.153   7.040  0.00  0.00    +0.000 HD
ENDBRANCH  19  20
ENDBRANCH  17  19
ENDBRANCH  12  13
ENDBRANCH   7  12
TORSDOF 5
ENDMDL
MODEL 6
REMARK VINA RESULT:    -5.730      2.639      6.519
REMARK INTER + INTRA:          -7.699
REMARK INTER:                  -7.312
REMARK INTRA:                  -0.387
REMARK UNBOUND:                -0.461
REMARK  Name = 
REMARK  6 active torsions:
REMARK  status: ('A' for Active; 'I' for Inactive)
REMARK    1  A    between atoms: C_1  and  O_2
REMARK    2  A    between atoms: O_2  and  C_3
REMARK    3  A    between atoms: N_9  and  C_10
REMARK    4  A    between atoms: C_10  and  C_11
REMARK    5  A    between atoms: C_15  and  C_16
REMARK    6  A    between atoms: C_16  and  N_17
REMARK                            x       y       z     vdW  Elec       q    Type
REMARK                         _______ _______ _______ _____ _____    ______ ____
ROOT
ATOM      1  C   UNL     1      44.982   3.454   9.295  0.00  0.00    +0.000 A 
ATOM      2  C   UNL     1      44.168   2.541   9.965  0.00  0.00    +0.000 A 
ATOM      3  N   UNL     1      43.488   2.769  11.114  0.00  0.00    +0.000 NA
ATOM      4  C   UNL     1      43.640   4.014  11.613  0.00  0.00    +0.000 A 
ATOM      5  N   UNL     1      43.069   4.476  12.767  0.00  0.00    +0.000 NA
ATOM      6  C   UNL     1      43.491   5.716  12.881  0.00  0.00    +0.000 A 
ATOM      7  N   UNL     1      44.307   6.077  11.840  0.00  0.00    +0.000 N 
ATOM      8  C   UNL     1      44.430   4.989  11.012  0.00  0.00    +0.000 A 
ATOM      9  C   UNL     1      45.131   4.732   9.832  0.00  0.00    +0.000 A 
ENDROOT
BRANCH   1  11
ATOM     10  C   UNL     1      46.266   1.953   7.977  0.00  0.00    +0.000 C 
ATOM     11  O   UNL     1      45.676   3.236   8.137  0.00  0.00    +0.000 OA
ENDBRANCH   1  11
BRANCH   7  12
ATOM     12  C   UNL     1      45.015   7.339  11.735  0.00  0.00    +0.000 C 
BRANCH  12  13
ATOM     13  C   UNL     1      46.316   7.338  12.495  0.00  0.00    +0.000 A 
ATOM     14  C   UNL     1      47.280   6.348  12.264  0.00  0.00    +0.000 A 
ATOM     15  C   UNL     1      48.508   6.388  12.925  0.00  0.00    +0.000 A 
ATOM     16  C   UNL     1      48.787   7.412  13.832  0.00  0.00    +0.000 A 
ATOM     17  C   UNL     1      47.832   8.401  14.098  0.00  0.00    +0.000 A 
ATOM     18  C   UNL     1      46.599   8.349  13.428  0.00  0.00    +0.000 A 
BRANCH  17  19
ATOM     19  C   UNL     1      48.111   9.491  15.102  0.00  0.00    +0.000 C 
BRANCH  19  20
ATOM     20  N   UNL     1      48.546  10.724  14.453  0.00  0.00    +0.000 NA
ATOM     21  H   UNL     1      47.720  11.248  14.164  0.00  0.00    +0.000 HD
ATOM     22  H   UNL     1      49.047  10.489  13.599  0.00  0.00    +0.000 HD
ENDBRANCH  19  20
ENDBRANCH  17  19
ENDBRANCH  12  13
ENDBRANCH   7  12
TORSDOF 5
ENDMDL
MODEL 7
REMARK VINA RESULT:    -5.654      4.001      6.455
REMARK INTER + INTRA:          -7.603
REMARK INTER:                  -7.012
REMARK INTRA:                  -0.592
REMARK UNBOUND:                -0.461
REMARK  Name = 
REMARK  6 active torsions:
REMARK  status: ('A' for Active; 'I' for Inactive)
REMARK    1  A    between atoms: C_1  and  O_2
REMARK    2  A    between atoms: O_2  and  C_3
REMARK    3  A    between atoms: N_9  and  C_10
REMARK    4  A    between atoms: C_10  and  C_11
REMARK    5  A    between atoms: C_15  and  C_16
REMARK    6  A    between atoms: C_16  and  N_17
REMARK                            x       y       z     vdW  Elec       q    Type
REMARK                         _______ _______ _______ _____ _____    ______ ____
ROOT
ATOM      1  C   UNL     1      46.740   3.872  13.724  0.00  0.00    +0.000 A 
ATOM      2  C   UNL     1      45.909   3.253  12.789  0.00  0.00    +0.000 A 
ATOM      3  N   UNL     1      45.130   3.878  11.874  0.00  0.00    +0.000 NA
ATOM      4  C   UNL     1      45.206   5.226  11.906  0.00  0.00    +0.000 A 
ATOM      5  N   UNL     1      44.504   6.075  11.095  0.00  0.00    +0.000 NA
ATOM      6  C   UNL     1      44.864   7.280  11.474  0.00  0.00    +0.000 A 
ATOM      7  N   UNL     1      45.779   7.245  12.494  0.00  0.00    +0.000 N 
ATOM      8  C   UNL     1      46.008   5.927  12.802  0.00  0.00    +0.000 A 
ATOM      9  C   UNL     1      46.797   5.265  13.744  0.00  0.00    +0.000 A 
ENDROOT
BRANCH   1  11
ATOM     10  C   UNL     1      47.533   3.812  15.962  0.00  0.00    +0.000 C 
ATOM     11  O   UNL     1      47.528   3.253  14.654  0.00  0.00    +0.000 OA
ENDBRANCH   1  11
BRANCH   7  12
ATOM     12  C   UNL     1      46.286   8.407  13.200  0.00  0.00    +0.000 C 
BRANCH  12  13
ATOM     13  C   UNL     1      47.388   9.106  12.448  0.00  0.00    +0.000 A 
ATOM     14  C   UNL     1      47.202  10.399  11.941  0.00  0.00    +0.000 A 
ATOM     15  C   UNL     1      48.247  11.066  11.300  0.00  0.00    +0.000 A 
ATOM     16  C   UNL     1      49.488  10.446  11.148  0.00  0.00    +0.000 A 
ATOM     17  C   UNL     1      49.694   9.146  11.624  0.00  0.00    +0.000 A 
ATOM     18  C   UNL     1      48.634   8.485  12.266  0.00  0.00    +0.000 A 
BRANCH  17  19
ATOM     19  C   UNL     1      51.022   8.456  11.433  0.00  0.00    +0.000 C 
BRANCH  19  20
ATOM     20  N   UNL     1      51.618   8.070  12.708  0.00  0.00    +0.000 NA
ATOM     21  H   UNL     1      52.169   8.852  13.060  0.00  0.00    +0.000 HD
ATOM     22  H   UNL     1      52.273   7.308  12.549  0.00  0.00    +0.000 HD
ENDBRANCH  19  20
ENDBRANCH  17  19
ENDBRANCH  12  13
ENDBRANCH   7  12
TORSDOF 5
ENDMDL
MODEL 8
REMARK VINA RESULT:    -5.505      2.204      3.864
REMARK INTER + INTRA:          -7.415
REMARK INTER:                  -7.058
REMARK INTRA:                  -0.357
REMARK UNBOUND:                -0.461
REMARK  Name = 
REMARK  6 active torsions:
REMARK  status: ('A' for Active; 'I' for Inactive)
REMARK    1  A    between atoms: C_1  and  O_2
REMARK    2  A    between atoms: O_2  and  C_3
REMARK    3  A    between atoms: N_9  and  C_10
REMARK    4  A    between atoms: C_10  and  C_11
REMARK    5  A    between atoms: C_15  and  C_16
REMARK    6  A    between atoms: C_16  and  N_17
REMARK                            x       y       z     vdW  Elec       q    Type
REMARK                         _______ _______ _______ _____ _____    ______ ____
ROOT
ATOM      1  C   UNL     1      48.950   8.511  13.312  0.00  0.00    +0.000 A 
ATOM      2  C   UNL     1      49.690   7.823  14.274  0.00  0.00    +0.000 A 
ATOM      3  N   UNL     1      49.362   6.634  14.836  0.00  0.00    +0.000 NA
ATOM      4  C   UNL     1      48.204   6.106  14.384  0.00  0.00    +0.000 A 
ATOM      5  N   UNL     1      47.656   4.928  14.811  0.00  0.00    +0.000 NA
ATOM      6  C   UNL     1      46.539   4.808  14.131  0.00  0.00    +0.000 A 
ATOM      7  N   UNL     1      46.345   5.860  13.274  0.00  0.00    +0.000 N 
ATOM      8  C   UNL     1      47.403   6.722  13.427  0.00  0.00    +0.000 A 
ATOM      9  C   UNL     1      47.754   7.950  12.866  0.00  0.00    +0.000 A 
ENDROOT
BRANCH   1  11
ATOM     10  C   UNL     1      48.426  10.813  13.053  0.00  0.00    +0.000 C 
ATOM     11  O   UNL     1      49.268   9.711  12.739  0.00  0.00    +0.000 OA
ENDBRANCH   1  11
BRANCH   7  12
ATOM     12  C   UNL     1      45.158   6.072  12.468  0.00  0.00    +0.000 C 
BRANCH  12  13
ATOM     13  C   UNL     1      44.797   4.865  11.640  0.00  0.00    +0.000 A 
ATOM     14  C   UNL     1      43.886   3.914  12.118  0.00  0.00    +0.000 A 
ATOM     15  C   UNL     1      43.508   2.832  11.321  0.00  0.00    +0.000 A 
ATOM     16  C   UNL     1      44.043   2.681  10.041  0.00  0.00    +0.000 A 
ATOM     17  C   UNL     1      44.973   3.604   9.548  0.00  0.00    +0.000 A 
ATOM     18  C   UNL     1      45.347   4.687  10.360  0.00  0.00    +0.000 A 
BRANCH  17  19
ATOM     19  C   UNL     1      45.582   3.428   8.179  0.00  0.00    +0.000 C 
BRANCH  19  20
ATOM     20  N   UNL     1      46.282   4.632   7.742  0.00  0.00    +0.000 NA
ATOM     21  H   UNL     1      45.825   4.987   6.903  0.00  0.00    +0.000 HD
ATOM     22  H   UNL     1      47.229   4.381   7.466  0.00  0.00    +0.000 HD
ENDBRANCH  19  20
ENDBRANCH  17  19
ENDBRANCH  12  13
ENDBRANCH   7  12
TORSDOF 5
ENDMDL
MODEL 9
REMARK VINA RESULT:    -5.477      4.432      8.110
REMARK INTER + INTRA:          -7.379
REMARK INTER:                  -6.810
REMARK INTRA:                  -0.569
REMARK UNBOUND:                -0.461
REMARK  Name = 
REMARK  6 active torsions:
REMARK  status: ('A' for Active; 'I' for Inactive)
REMARK    1  A    between atoms: C_1  and  O_2
REMARK    2  A    between atoms: O_2  and  C_3
REMARK    3  A    between atoms: N_9  and  C_10
REMARK    4  A    between atoms: C_10  and  C_11
REMARK    5  A    between atoms: C_15  and  C_16
REMARK    6  A    between atoms: C_16  and  N_17
REMARK                            x       y       z     vdW  Elec       q    Type
REMARK                         _______ _______ _______ _____ _____    ______ ____
ROOT
ATOM      1  C   UNL     1      45.422   4.789  12.747  0.00  0.00    +0.000 A 
ATOM      2  C   UNL     1      44.560   5.784  12.287  0.00  0.00    +0.000 A 
ATOM      3  N   UNL     1      44.776   7.120  12.345  0.00  0.00    +0.000 NA
ATOM      4  C   UNL     1      45.956   7.468  12.902  0.00  0.00    +0.000 A 
ATOM      5  N   UNL     1      46.393   8.752  13.086  0.00  0.00    +0.000 NA
ATOM      6  C   UNL     1      47.565   8.630  13.668  0.00  0.00    +0.000 A 
ATOM      7  N   UNL     1      47.908   7.318  13.861  0.00  0.00    +0.000 N 
ATOM      8  C   UNL     1      46.878   6.544  13.385  0.00  0.00    +0.000 A 
ATOM      9  C   UNL     1      46.632   5.172  13.325  0.00  0.00    +0.000 A 
ENDROOT
BRANCH   1  11
ATOM     10  C   UNL     1      43.894   3.005  12.393  0.00  0.00    +0.000 C 
ATOM     11  O   UNL     1      45.214   3.438  12.697  0.00  0.00    +0.000 OA
ENDBRANCH   1  11
BRANCH   7  12
ATOM     12  C   UNL     1      49.086   6.860  14.572  0.00  0.00    +0.000 C 
BRANCH  12  13
ATOM     13  C   UNL     1      48.786   6.461  15.994  0.00  0.00    +0.000 A 
ATOM     14  C   UNL     1      48.700   7.426  17.006  0.00  0.00    +0.000 A 
ATOM     15  C   UNL     1      48.360   7.057  18.309  0.00  0.00    +0.000 A 
ATOM     16  C   UNL     1      48.110   5.720  18.619  0.00  0.00    +0.000 A 
ATOM     17  C   UNL     1      48.211   4.732  17.631  0.00  0.00    +0.000 A 
ATOM     18  C   UNL     1      48.556   5.116  16.325  0.00  0.00    +0.000 A 
BRANCH  17  19
ATOM     19  C   UNL     1      47.977   3.280  17.966  0.00  0.00    +0.000 C 
BRANCH  19  20
ATOM     20  N   UNL     1      46.593   2.887  17.720  0.00  0.00    +0.000 NA
ATOM     21  H   UNL     1      46.027   3.173  18.518  0.00  0.00    +0.000 HD
ATOM     22  H   UNL     1      46.540   1.871  17.683  0.00  0.00    +0.000 HD
ENDBRANCH  19  20
ENDBRANCH  17  19
ENDBRANCH  12  13
ENDBRANCH   7  12
TORSDOF 5
ENDMDL
