MODEL 1
REMARK VINA RESULT:    -7.723      0.000      0.000
REMARK INTER + INTRA:          -8.775
REMARK INTER:                  -9.078
REMARK INTRA:                   0.303
REMARK UNBOUND:                 0.303
REMARK  Name = 
REMARK  5 active torsions:
REMARK  status: ('A' for Active; 'I' for Inactive)
REMARK    1  A    between atoms: C_1  and  N_2
REMARK    2  A    between atoms: C_3  and  C_5
REMARK    3  A    between atoms: N_9  and  C_10
REMARK    4  A    between atoms: C_10  and  C_11
REMARK    5  A    between atoms: C_10  and  C_12
REMARK                            x       y       z     vdW  Elec       q    Type
REMARK                         _______ _______ _______ _____ _____    ______ ____
ROOT
ATOM      1  C   UNL     1      47.261   5.922  13.409  0.00  0.00    +0.000 A 
ATOM      2  C   UNL     1      46.275   4.948  13.528  0.00  0.00    +0.000 A 
ATOM      3  C   UNL     1      45.341   4.788  12.503  0.00  0.00    +0.000 A 
ATOM      4  C   UNL     1      45.405   5.598  11.374  0.00  0.00    +0.000 A 
ATOM      5  N   UNL     1      44.487   5.544  10.352  0.00  0.00    +0.000 N 
ATOM      6  N   UNL     1      46.349   6.553  11.251  0.00  0.00    +0.000 NA
ATOM      7  C   UNL     1      47.245   6.705  12.266  0.00  0.00    +0.000 A 
ATOM      8  H   UNL     1      44.744   6.205   9.628  0.00  0.00    +0.000 HD
ENDROOT
BRANCH   1  11
ATOM      9  C   UNL     1      48.803   6.054  16.862  0.00  0.00    +0.000 C 
ATOM     10  N   UNL     1      47.918   5.821  15.748  0.00  0.00    +0.000 N 
ATOM     11  C   UNL     1      48.273   6.176  14.462  0.00  0.00    +0.000 C 
ATOM     12  O   UNL     1      49.356   6.665  14.170  0.00  0.00    +0.000 OA
ATOM     13  H   UNL     1      47.073   5.295  15.917  0.00  0.00    +0.000 HD
ENDBRANCH   1  11
BRANCH   5  14
ATOM     14  C   UNL     1      43.873   4.295   9.899  0.00  0.00    +0.000 C 
ATOM     15  C   UNL     1      43.420   3.437  11.081  0.00  0.00    +0.000 C 
BRANCH  14  16
ATOM     16  C   UNL     1      44.846   3.555   8.980  0.00  0.00    +0.000 A 
ATOM     17  C   UNL     1      45.095   2.187   9.122  0.00  0.00    +0.000 A 
ATOM     18  C   UNL     1      46.048   1.584   8.305  0.00  0.00    +0.000 A 
ATOM     19  C   UNL     1      46.734   2.352   7.375  0.00  0.00    +0.000 A 
ATOM     20  C   UNL     1      46.424   3.697   7.286  0.00  0.00    +0.000 A 
ATOM     21  N   UNL     1      45.497   4.309   8.054  0.00  0.00    +0.000 NA
ENDBRANCH  14  16
ENDBRANCH   5  14
TORSDOF 3
ENDMDL
MODEL 2
REMARK VINA RESULT:    -7.510      2.827      6.382
REMARK INTER + INTRA:          -8.524
REMARK INTER:                  -8.615
REMARK INTRA:                   0.091
REMARK UNBOUND:                 0.303
REMARK  Name = 
REMARK  5 active torsions:
REMARK  status: ('A' for Active; 'I' for Inactive)
REMARK    1  A    between atoms: C_1  and  N_2
REMARK    2  A    between atoms: C_3  and  C_5
REMARK    3  A    between atoms: N_9  and  C_10
REMARK    4  A    between atoms: C_10  and  C_11
REMARK    5  A    between atoms: C_10  and  C_12
REMARK                            x       y       z     vdW  Elec       q    Type
REMARK                         _______ _______ _______ _____ _____    ______ ____
ROOT
ATOM      1  C   UNL     1      45.662   2.727   8.364  0.00  0.00    +0.000 A 
ATOM      2  C   UNL     1      45.440   4.083   8.582  0.00  0.00    +0.000 A 
ATOM      3  C   UNL     1      44.565   4.479   9.595  0.00  0.00    +0.000 A 
ATOM      4  C   UNL     1      43.927   3.522  10.376  0.00  0.00    +0.000 A 
ATOM      5  N   UNL     1      43.006   3.831  11.350  0.00  0.00    +0.000 N 
ATOM      6  N   UNL     1      44.125   2.204  10.167  0.00  0.00    +0.000 NA
ATOM      7  C   UNL     1      44.972   1.833   9.167  0.00  0.00    +0.000 A 
ATOM      8  H   UNL     1      42.691   2.980  11.802  0.00  0.00    +0.000 HD
ENDROOT
BRANCH   1  11
ATOM      9  C   UNL     1      47.535   2.644   5.078  0.00  0.00    +0.000 C 
ATOM     10  N   UNL     1      46.723   3.044   6.200  0.00  0.00    +0.000 N 
ATOM     11  C   UNL     1      46.553   2.219   7.293  0.00  0.00    +0.000 C 
ATOM     12  O   UNL     1      47.099   1.131   7.411  0.00  0.00    +0.000 OA
ATOM     13  H   UNL     1      46.365   3.988   6.212  0.00  0.00    +0.000 HD
ENDBRANCH   1  11
BRANCH   5  14
ATOM     14  C   UNL     1      43.116   5.015  12.202  0.00  0.00    +0.000 C 
ATOM     15  C   UNL     1      42.640   6.272  11.473  0.00  0.00    +0.000 C 
BRANCH  14  16
ATOM     16  C   UNL     1      44.553   5.144  12.708  0.00  0.00    +0.000 A 
ATOM     17  C   UNL     1      45.286   6.324  12.549  0.00  0.00    +0.000 A 
ATOM     18  C   UNL     1      46.615   6.356  12.963  0.00  0.00    +0.000 A 
ATOM     19  C   UNL     1      47.185   5.218  13.517  0.00  0.00    +0.000 A 
ATOM     20  C   UNL     1      46.393   4.093  13.652  0.00  0.00    +0.000 A 
ATOM     21  N   UNL     1      45.098   4.033  13.273  0.00  0.00    +0.000 NA
ENDBRANCH  14  16
ENDBRANCH   5  14
TORSDOF 3
ENDMDL
MODEL 3
REMARK VINA RESULT:    -7.278      1.662      2.377
REMARK INTER + INTRA:          -8.251
REMARK INTER:                  -7.785
REMARK INTRA:                  -0.466
REMARK UNBOUND:                 0.303
REMARK  Name = 
REMARK  5 active torsions:
REMARK  status: ('A' for Active; 'I' for Inactive)
REMARK    1  A    between atoms: C_1  and  N_2
REMARK    2  A    between atoms: C_3  and  C_5
REMARK    3  A    between atoms: N_9  and  C_10
REMARK    4  A    between atoms: C_10  and  C_11
REMARK    5  A    between atoms: C_10  and  C_12
REMARK                            x       y       z     vdW  Elec       q    Type
REMARK                         _______ _______ _______ _____ _____    ______ ____
ROOT
ATOM      1  C   UNL     1      47.984   5.821  14.993  0.00  0.00    +0.000 A 
ATOM      2  C   UNL     1      47.751   6.248  13.690  0.00  0.00    +0.000 A 
ATOM      3  C   UNL     1      46.885   5.517  12.875  0.00  0.00    +0.000 A 
ATOM      4  C   UNL     1      46.263   4.376  13.370  0.00  0.00    +0.000 A 
ATOM      5  N   UNL     1      45.447   3.569  12.612  0.00  0.00    +0.000 N 
ATOM      6  N   UNL     1      46.490   3.946  14.628  0.00  0.00    +0.000 NA
ATOM      7  C   UNL     1      47.348   4.662  15.407  0.00  0.00    +0.000 A 
ATOM      8  H   UNL     1      45.089   2.813  13.184  0.00  0.00    +0.000 HD
ENDROOT
BRANCH   1  11
ATOM      9  C   UNL     1      49.132   8.181  17.719  0.00  0.00    +0.000 C 
ATOM     10  N   UNL     1      48.332   7.412  16.799  0.00  0.00    +0.000 N 
ATOM     11  C   UNL     1      48.910   6.523  15.915  0.00  0.00    +0.000 C 
ATOM     12  O   UNL     1      50.111   6.294  15.875  0.00  0.00    +0.000 OA
ATOM     13  H   UNL     1      47.328   7.462  16.890  0.00  0.00    +0.000 HD
ENDBRANCH   1  11
BRANCH   5  14
ATOM     14  C   UNL     1      44.540   4.092  11.590  0.00  0.00    +0.000 C 
ATOM     15  C   UNL     1      43.110   3.595  11.807  0.00  0.00    +0.000 C 
BRANCH  14  16
ATOM     16  C   UNL     1      45.077   3.737  10.203  0.00  0.00    +0.000 A 
ATOM     17  C   UNL     1      45.483   4.721   9.298  0.00  0.00    +0.000 A 
ATOM     18  C   UNL     1      45.892   4.340   8.022  0.00  0.00    +0.000 A 
ATOM     19  C   UNL     1      45.882   2.995   7.676  0.00  0.00    +0.000 A 
ATOM     20  C   UNL     1      45.479   2.079   8.630  0.00  0.00    +0.000 A 
ATOM     21  N   UNL     1      45.089   2.416   9.879  0.00  0.00    +0.000 NA
ENDBRANCH  14  16
ENDBRANCH   5  14
TORSDOF 3
ENDMDL
MODEL 4
REMARK VINA RESULT:    -6.703      2.218      2.610
REMARK INTER + INTRA:          -7.575
REMARK INTER:                  -7.122
REMARK INTRA:                  -0.453
REMARK UNBOUND:                 0.303
REMARK  Name = 
REMARK  5 active torsions:
REMARK  status: ('A' for Active; 'I' for Inactive)
REMARK    1  A    between atoms: C_1  and  N_2
REMARK    2  A    between atoms: C_3  and  C_5
REMARK    3  A    between atoms: N_9  and  C_10
REMARK    4  A    between atoms: C_10  and  C_11
REMARK    5  A    between atoms: C_10  and  C_12
REMARK                            x       y       z     vdW  Elec       q    Type
REMARK                         _______ _______ _______ _____ _____    ______ ____
ROOT
ATOM      1  C   UNL     1      46.029   6.665  12.549  0.00  0.00    +0.000 A 
ATOM      2  C   UNL     1      45.973   6.595  11.161  0.00  0.00    +0.000 A 
ATOM      3  C   UNL     1      45.750   5.362  10.545  0.00  0.00    +0.000 A 
ATOM      4  C   UNL     1      45.584   4.219  11.320  0.00  0.00    +0.000 A 
ATOM      5  N   UNL     1      45.423   2.961  10.788  0.00  0.00    +0.000 N 
ATOM      6  N   UNL     1      45.648   4.272  12.666  0.00  0.00    +0.000 NA
ATOM      7  C   UNL     1      45.879   5.479  13.252  0.00  0.00    +0.000 A 
ATOM      8  H   UNL     1      45.298   2.289  11.536  0.00  0.00    +0.000 HD
ENDROOT
BRANCH   1  11
ATOM      9  C   UNL     1      47.722   9.090  14.910  0.00  0.00    +0.000 C 
ATOM     10  N   UNL     1      47.389   7.933  14.117  0.00  0.00    +0.000 N 
ATOM     11  C   UNL     1      46.289   7.927  13.282  0.00  0.00    +0.000 C 
ATOM     12  O   UNL     1      45.556   8.893  13.123  0.00  0.00    +0.000 OA
ATOM     13  H   UNL     1      48.041   7.162  14.107  0.00  0.00    +0.000 HD
ENDBRANCH   1  11
BRANCH   5  14
ATOM     14  C   UNL     1      44.671   2.709   9.558  0.00  0.00    +0.000 C 
ATOM     15  C   UNL     1      43.712   1.530   9.724  0.00  0.00    +0.000 C 
BRANCH  14  16
ATOM     16  C   UNL     1      45.647   2.508   8.398  0.00  0.00    +0.000 A 
ATOM     17  C   UNL     1      45.833   3.485   7.416  0.00  0.00    +0.000 A 
ATOM     18  C   UNL     1      46.679   3.214   6.343  0.00  0.00    +0.000 A 
ATOM     19  C   UNL     1      47.312   1.981   6.268  0.00  0.00    +0.000 A 
ATOM     20  C   UNL     1      47.087   1.070   7.284  0.00  0.00    +0.000 A 
ATOM     21  N   UNL     1      46.284   1.307   8.344  0.00  0.00    +0.000 NA
ENDBRANCH  14  16
ENDBRANCH   5  14
TORSDOF 3
ENDMDL
MODEL 5
REMARK VINA RESULT:    -6.638      2.850      7.352
REMARK INTER + INTRA:          -7.499
REMARK INTER:                  -7.045
REMARK INTRA:                  -0.453
REMARK UNBOUND:                 0.303
REMARK  Name = 
REMARK  5 active torsions:
REMARK  status: ('A' for Active; 'I' for Inactive)
REMARK    1  A    between atoms: C_1  and  N_2
REMARK    2  A    between atoms: C_3  and  C_5
REMARK    3  A    between atoms: N_9  and  C_10
REMARK    4  A    between atoms: C_10  and  C_11
REMARK    5  A    between atoms: C_10  and  C_12
REMARK                            x       y       z     vdW  Elec       q    Type
REMARK                         _______ _______ _______ _____ _____    ______ ____
ROOT
ATOM      1  C   UNL     1      45.426   4.642  12.002  0.00  0.00    +0.000 A 
ATOM      2  C   UNL     1      45.862   3.500  12.666  0.00  0.00    +0.000 A 
ATOM      3  C   UNL     1      46.594   3.632  13.848  0.00  0.00    +0.000 A 
ATOM      4  C   UNL     1      46.877   4.897  14.351  0.00  0.00    +0.000 A 
ATOM      5  N   UNL     1      47.643   5.110  15.474  0.00  0.00    +0.000 N 
ATOM      6  N   UNL     1      46.469   6.012  13.711  0.00  0.00    +0.000 NA
ATOM      7  C   UNL     1      45.768   5.867  12.553  0.00  0.00    +0.000 A 
ATOM      8  H   UNL     1      47.696   6.104  15.665  0.00  0.00    +0.000 HD
ENDROOT
BRANCH   1  11
ATOM      9  C   UNL     1      44.689   3.919   8.362  0.00  0.00    +0.000 C 
ATOM     10  N   UNL     1      45.309   3.994   9.661  0.00  0.00    +0.000 N 
ATOM     11  C   UNL     1      44.669   4.592  10.728  0.00  0.00    +0.000 C 
ATOM     12  O   UNL     1      43.539   5.056  10.665  0.00  0.00    +0.000 OA
ATOM     13  H   UNL     1      46.181   3.504   9.799  0.00  0.00    +0.000 HD
ENDBRANCH   1  11
BRANCH   5  14
ATOM     14  C   UNL     1      47.607   4.227  16.640  0.00  0.00    +0.000 C 
ATOM     15  C   UNL     1      47.024   4.941  17.861  0.00  0.00    +0.000 C 
BRANCH  14  16
ATOM     16  C   UNL     1      49.008   3.674  16.902  0.00  0.00    +0.000 A 
ATOM     17  C   UNL     1      49.268   2.301  16.900  0.00  0.00    +0.000 A 
ATOM     18  C   UNL     1      50.548   1.854  17.219  0.00  0.00    +0.000 A 
ATOM     19  C   UNL     1      51.534   2.778  17.539  0.00  0.00    +0.000 A 
ATOM     20  C   UNL     1      51.203   4.121  17.508  0.00  0.00    +0.000 A 
ATOM     21  N   UNL     1      49.976   4.586  17.189  0.00  0.00    +0.000 NA
ENDBRANCH  14  16
ENDBRANCH   5  14
TORSDOF 3
ENDMDL
MODEL 6
REMARK VINA RESULT:    -6.449      1.890      2.580
REMARK INTER + INTRA:          -7.276
REMARK INTER:                  -6.825
REMARK INTRA:                  -0.451
REMARK UNBOUND:                 0.303
REMARK  Name = 
REMARK  5 active torsions:
REMARK  status: ('A' for Active; 'I' for Inactive)
REMARK    1  A    between atoms: C_1  and  N_2
REMARK    2  A    between atoms: C_3  and  C_5
REMARK    3  A    between atoms: N_9  and  C_10
REMARK    4  A    between atoms: C_10  and  C_11
REMARK    5  A    between atoms: C_10  and  C_12
REMARK                            x       y       z     vdW  Elec       q    Type
REMARK                         _______ _______ _______ _____ _____    ______ ____
ROOT
ATOM      1  C   UNL     1      48.674   7.093  14.145  0.00  0.00    +0.000 A 
ATOM      2  C   UNL     1      48.052   7.321  12.921  0.00  0.00    +0.000 A 
ATOM      3  C   UNL     1      47.066   6.438  12.479  0.00  0.00    +0.000 A 
ATOM      4  C   UNL     1      46.711   5.345  13.262  0.00  0.00    +0.000 A 
ATOM      5  N   UNL     1      45.795   4.398  12.868  0.00  0.00    +0.000 N 
ATOM      6  N   UNL     1      47.315   5.107  14.445  0.00  0.00    +0.000 NA
ATOM      7  C   UNL     1      48.284   5.969  14.856  0.00  0.00    +0.000 A 
ATOM      8  H   UNL     1      45.679   3.710  13.603  0.00  0.00    +0.000 HD
ENDROOT
BRANCH   1  11
ATOM      9  C   UNL     1      52.124   8.133  15.300  0.00  0.00    +0.000 C 
ATOM     10  N   UNL     1      51.005   7.398  14.764  0.00  0.00    +0.000 N 
ATOM     11  C   UNL     1      49.750   7.964  14.676  0.00  0.00    +0.000 C 
ATOM     12  O   UNL     1      49.505   9.119  14.997  0.00  0.00    +0.000 OA
ATOM     13  H   UNL     1      51.186   6.492  14.358  0.00  0.00    +0.000 HD
ENDBRANCH   1  11
BRANCH   5  14
ATOM     14  C   UNL     1      44.597   4.724  12.093  0.00  0.00    +0.000 C 
ATOM     15  C   UNL     1      43.327   4.264  12.809  0.00  0.00    +0.000 C 
BRANCH  14  16
ATOM     16  C   UNL     1      44.724   4.130  10.689  0.00  0.00    +0.000 A 
ATOM     17  C   UNL     1      44.319   2.823  10.405  0.00  0.00    +0.000 A 
ATOM     18  C   UNL     1      44.528   2.313   9.126  0.00  0.00    +0.000 A 
ATOM     19  C   UNL     1      45.139   3.107   8.166  0.00  0.00    +0.000 A 
ATOM     20  C   UNL     1      45.501   4.394   8.519  0.00  0.00    +0.000 A 
ATOM     21  N   UNL     1      45.300   4.923   9.746  0.00  0.00    +0.000 NA
ENDBRANCH  14  16
ENDBRANCH   5  14
TORSDOF 3
ENDMDL
MODEL 7
REMARK VINA RESULT:    -6.163      2.314      3.195
REMARK INTER + INTRA:          -6.940
REMARK INTER:                  -6.514
REMARK INTRA:                  -0.426
REMARK UNBOUND:                 0.303
REMARK  Name = 
REMARK  5 active torsions:
REMARK  status: ('A' for Active; 'I' for Inactive)
REMARK    1  A    between atoms: C_1  and  N_2
REMARK    2  A    between atoms: C_3  and  C_5
REMARK    3  A    between atoms: N_9  and  C_10
REMARK    4  A    between atoms: C_10  and  C_11
REMARK    5  A    between atoms: C_10  and  C_12
REMARK                            x       y       z     vdW  Elec       q    Type
REMARK                         _______ _______ _______ _____ _____    ______ ____
ROOT
ATOM      1  C   UNL     1      48.218   8.375  14.721  0.00  0.00    +0.000 A 
ATOM      2  C   UNL     1      47.298   8.736  13.743  0.00  0.00    +0.000 A 
ATOM      3  C   UNL     1      46.703   7.743  12.963  0.00  0.00    +0.000 A 
ATOM      4  C   UNL     1      47.030   6.407  13.171  0.00  0.00    +0.000 A 
ATOM      5  N   UNL     1      46.534   5.379  12.404  0.00  0.00    +0.000 N 
ATOM      6  N   UNL     1      47.929   6.046  14.109  0.00  0.00    +0.000 NA
ATOM      7  C   UNL     1      48.511   7.027  14.853  0.00  0.00    +0.000 A 
ATOM      8  H   UNL     1      46.889   4.495  12.750  0.00  0.00    +0.000 HD
ENDROOT
BRANCH   1  11
ATOM      9  C   UNL     1      48.679  11.142  17.260  0.00  0.00    +0.000 C 
ATOM     10  N   UNL     1      48.120  10.120  16.412  0.00  0.00    +0.000 N 
ATOM     11  C   UNL     1      48.917   9.367  15.574  0.00  0.00    +0.000 C 
ATOM     12  O   UNL     1      50.134   9.477  15.520  0.00  0.00    +0.000 OA
ATOM     13  H   UNL     1      47.141   9.897  16.522  0.00  0.00    +0.000 HD
ENDBRANCH   1  11
BRANCH   5  14
ATOM     14  C   UNL     1      45.168   5.366  11.878  0.00  0.00    +0.000 C 
ATOM     15  C   UNL     1      44.160   4.959  12.953  0.00  0.00    +0.000 C 
BRANCH  14  16
ATOM     16  C   UNL     1      45.106   4.461  10.647  0.00  0.00    +0.000 A 
ATOM     17  C   UNL     1      45.499   4.910   9.384  0.00  0.00    +0.000 A 
ATOM     18  C   UNL     1      45.349   4.064   8.288  0.00  0.00    +0.000 A 
ATOM     19  C   UNL     1      44.807   2.799   8.471  0.00  0.00    +0.000 A 
ATOM     20  C   UNL     1      44.453   2.422   9.754  0.00  0.00    +0.000 A 
ATOM     21  N   UNL     1      44.599   3.213  10.839  0.00  0.00    +0.000 NA
ENDBRANCH  14  16
ENDBRANCH   5  14
TORSDOF 3
ENDMDL
MODEL 8
REMARK VINA RESULT:    -5.952      3.242      7.654
REMARK INTER + INTRA:          -6.692
REMARK INTER:                  -6.328
REMARK INTRA:                  -0.364
REMARK UNBOUND:                 0.303
REMARK  Name = 
REMARK  5 active torsions:
REMARK  status: ('A' for Active; 'I' for Inactive)
REMARK    1  A    between atoms: C_1  and  N_2
REMARK    2  A    between atoms: C_3  and  C_5
REMARK    3  A    between atoms: N_9  and  C_10
REMARK    4  A    between atoms: C_10  and  C_11
REMARK    5  A    between atoms: C_10  and  C_12
REMARK                            x       y       z     vdW  Elec       q    Type
REMARK                         _______ _______ _______ _____ _____    ______ ____
ROOT
ATOM      1  C   UNL     1      45.186   4.377  11.578  0.00  0.00    +0.000 A 
ATOM      2  C   UNL     1      45.502   5.617  11.032  0.00  0.00    +0.000 A 
ATOM      3  C   UNL     1      46.196   6.549  11.805  0.00  0.00    +0.000 A 
ATOM      4  C   UNL     1      46.568   6.232  13.107  0.00  0.00    +0.000 A 
ATOM      5  N   UNL     1      47.197   7.117  13.951  0.00  0.00    +0.000 N 
ATOM      6  N   UNL     1      46.257   5.037  13.651  0.00  0.00    +0.000 NA
ATOM      7  C   UNL     1      45.569   4.144  12.889  0.00  0.00    +0.000 A 
ATOM      8  H   UNL     1      47.390   6.663  14.837  0.00  0.00    +0.000 HD
ENDROOT
BRANCH   1  11
ATOM      9  C   UNL     1      44.500   1.617   9.082  0.00  0.00    +0.000 C 
ATOM     10  N   UNL     1      45.137   2.625   9.893  0.00  0.00    +0.000 N 
ATOM     11  C   UNL     1      44.428   3.341  10.836  0.00  0.00    +0.000 C 
ATOM     12  O   UNL     1      43.245   3.151  11.079  0.00  0.00    +0.000 OA
ATOM     13  H   UNL     1      46.140   2.721   9.827  0.00  0.00    +0.000 HD
ENDBRANCH   1  11
BRANCH   5  14
ATOM     14  C   UNL     1      48.192   8.085  13.489  0.00  0.00    +0.000 C 
ATOM     15  C   UNL     1      49.453   7.387  12.976  0.00  0.00    +0.000 C 
BRANCH  14  16
ATOM     16  C   UNL     1      48.492   9.081  14.610  0.00  0.00    +0.000 A 
ATOM     17  C   UNL     1      48.192   8.796  15.945  0.00  0.00    +0.000 A 
ATOM     18  C   UNL     1      48.418   9.772  16.913  0.00  0.00    +0.000 A 
ATOM     19  C   UNL     1      48.927  11.006  16.532  0.00  0.00    +0.000 A 
ATOM     20  C   UNL     1      49.210  11.209  15.193  0.00  0.00    +0.000 A 
ATOM     21  N   UNL     1      49.014  10.279  14.233  0.00  0.00    +0.000 NA
ENDBRANCH  14  16
ENDBRANCH   5  14
TORSDOF 3
ENDMDL
MODEL 9
REMARK VINA RESULT:    -5.810      3.226      6.796
REMARK INTER + INTRA:          -6.525
REMARK INTER:                  -6.336
REMARK INTRA:                  -0.189
REMARK UNBOUND:                 0.303
REMARK  Name = 
REMARK  5 active torsions:
REMARK  status: ('A' for Active; 'I' for Inactive)
REMARK    1  A    between atoms: C_1  and  N_2
REMARK    2  A    between atoms: C_3  and  C_5
REMARK    3  A    between atoms: N_9  and  C_10
REMARK    4  A    between atoms: C_10  and  C_11
REMARK    5  A    between atoms: C_10  and  C_12
REMARK                            x       y       z     vdW  Elec       q    Type
REMARK                         _______ _______ _______ _____ _____    ______ ____
ROOT
ATOM      1  C   UNL     1      45.034   4.384  11.449  0.00  0.00    +0.000 A 
ATOM      2  C   UNL     1      45.636   5.431  10.759  0.00  0.00    +0.000 A 
ATOM      3  C   UNL     1      46.319   6.418  11.472  0.00  0.00    +0.000 A 
ATOM      4  C   UNL     1      46.395   6.346  12.859  0.00  0.00    +0.000 A 
ATOM      5  N   UNL     1      46.996   7.309  13.635  0.00  0.00    +0.000 N 
ATOM      6  N   UNL     1      45.806   5.342  13.539  0.00  0.00    +0.000 NA
ATOM      7  C   UNL     1      45.132   4.394  12.831  0.00  0.00    +0.000 A 
ATOM      8  H   UNL     1      46.951   7.037  14.610  0.00  0.00    +0.000 HD
ENDROOT
BRANCH   1  11
ATOM      9  C   UNL     1      44.327   1.470   9.141  0.00  0.00    +0.000 C 
ATOM     10  N   UNL     1      44.972   2.521   9.888  0.00  0.00    +0.000 N 
ATOM     11  C   UNL     1      44.266   3.311  10.772  0.00  0.00    +0.000 C 
ATOM     12  O   UNL     1      43.078   3.157  11.016  0.00  0.00    +0.000 OA
ATOM     13  H   UNL     1      45.977   2.597   9.825  0.00  0.00    +0.000 HD
ENDBRANCH   1  11
BRANCH   5  14
ATOM     14  C   UNL     1      48.199   8.030  13.218  0.00  0.00    +0.000 C 
ATOM     15  C   UNL     1      49.116   8.318  14.407  0.00  0.00    +0.000 C 
BRANCH  14  16
ATOM     16  C   UNL     1      47.796   9.302  12.471  0.00  0.00    +0.000 A 
ATOM     17  C   UNL     1      46.480   9.772  12.477  0.00  0.00    +0.000 A 
ATOM     18  C   UNL     1      46.158  10.894  11.717  0.00  0.00    +0.000 A 
ATOM     19  C   UNL     1      47.146  11.515  10.965  0.00  0.00    +0.000 A 
ATOM     20  C   UNL     1      48.428  10.999  11.020  0.00  0.00    +0.000 A 
ATOM     21  N   UNL     1      48.774   9.922  11.757  0.00  0.00    +0.000 NA
ENDBRANCH  14  16
ENDBRANCH   5  14
TORSDOF 3
ENDMDL
