MODEL 1
REMARK VINA RESULT:    -7.626      0.000      0.000
REMARK INTER + INTRA:         -10.531
REMARK INTER:                 -10.078
REMARK INTRA:                  -0.453
REMARK UNBOUND:                -0.453
REMARK  Name = 
REMARK  9 active torsions:
REMARK  status: ('A' for Active; 'I' for Inactive)
REMARK    1  A    between atoms: C_1  and  C_2
REMARK    2  A    between atoms: C_2  and  C_3
REMARK    3  A    between atoms: C_2  and  C_4
REMARK    4  A    between atoms: C_2  and  C_5
REMARK    5  A    between atoms: N_7  and  C_8
REMARK    6  A    between atoms: C_8  and  C_9
REMARK    7  A    between atoms: C_12  and  C_13
REMARK    8  A    between atoms: C_13  and  C_14
REMARK    9  A    between atoms: C_14  and  N_15
REMARK                            x       y       z     vdW  Elec       q    Type
REMARK                         _______ _______ _______ _____ _____    ______ ____
ROOT
ATOM      1  C   UNL     1      46.232   7.176  12.292  0.00  0.00    +0.000 A 
ATOM      2  C   UNL     1      45.232   6.905  11.367  0.00  0.00    +0.000 A 
ATOM      3  N   UNL     1      44.902   5.574  11.432  0.00  0.00    +0.000 N 
ATOM      4  C   UNL     1      45.684   4.950  12.377  0.00  0.00    +0.000 A 
ATOM      5  C   UNL     1      45.746   3.619  12.809  0.00  0.00    +0.000 A 
ATOM      6  C   UNL     1      46.680   3.333  13.797  0.00  0.00    +0.000 A 
ATOM      7  C   UNL     1      47.476   4.355  14.286  0.00  0.00    +0.000 A 
ATOM      8  N   UNL     1      47.434   5.642  13.887  0.00  0.00    +0.000 NA
ATOM      9  C   UNL     1      46.521   5.924  12.923  0.00  0.00    +0.000 A 
ENDROOT
BRANCH   1  11
ATOM     10  C   UNL     1      45.855   9.639  12.065  0.00  0.00    +0.000 C 
ATOM     11  C   UNL     1      46.843   8.553  12.545  0.00  0.00    +0.000 C 
ATOM     12  C   UNL     1      48.167   8.704  11.763  0.00  0.00    +0.000 C 
ATOM     13  C   UNL     1      47.154   8.829  14.029  0.00  0.00    +0.000 C 
ENDBRANCH   1  11
BRANCH   3  14
ATOM     14  C   UNL     1      43.977   4.912  10.520  0.00  0.00    +0.000 C 
BRANCH  14  15
ATOM     15  C   UNL     1      44.662   4.000   9.533  0.00  0.00    +0.000 A 
ATOM     16  C   UNL     1      45.487   4.523   8.538  0.00  0.00    +0.000 A 
ATOM     17  C   UNL     1      46.223   3.649   7.738  0.00  0.00    +0.000 A 
ATOM     18  C   UNL     1      46.108   2.271   7.927  0.00  0.00    +0.000 A 
ATOM     19  C   UNL     1      45.230   1.838   8.914  0.00  0.00    +0.000 A 
ATOM     20  N   UNL     1      44.520   2.661   9.720  0.00  0.00    +0.000 NA
BRANCH  18  21
ATOM     21  C   UNL     1      46.937   1.299   7.132  0.00  0.00    +0.000 C 
BRANCH  21  22
ATOM     22  C   UNL     1      48.294   1.897   6.729  0.00  0.00    +0.000 C 
BRANCH  22  23
ATOM     23  N   UNL     1      48.420   1.989   5.277  0.00  0.00    +0.000 NA
ATOM     24  H   UNL     1      47.843   1.275   4.831  0.00  0.00    +0.000 HD
ATOM     25  H   UNL     1      49.383   1.782   5.008  0.00  0.00    +0.000 HD
ENDBRANCH  22  23
ENDBRANCH  21  22
ENDBRANCH  18  21
ENDBRANCH  14  15
ENDBRANCH   3  14
TORSDOF 6
ENDMDL
MODEL 2
REMARK VINA RESULT:    -7.067      0.831      1.155
REMARK INTER + INTRA:          -9.792
REMARK INTER:                  -9.356
REMARK INTRA:                  -0.436
REMARK UNBOUND:                -0.453
REMARK  Name = 
REMARK  9 active torsions:
REMARK  status: ('A' for Active; 'I' for Inactive)
REMARK    1  A    between atoms: C_1  and  C_2
REMARK    2  A    between atoms: C_2  and  C_3
REMARK    3  A    between atoms: C_2  and  C_4
REMARK    4  A    between atoms: C_2  and  C_5
REMARK    5  A    between atoms: N_7  and  C_8
REMARK    6  A    between atoms: C_8  and  C_9
REMARK    7  A    between atoms: C_12  and  C_13
REMARK    8  A    between atoms: C_13  and  C_14
REMARK    9  A    between atoms: C_14  and  N_15
REMARK                            x       y       z     vdW  Elec       q    Type
REMARK                         _______ _______ _______ _____ _____    ______ ____
ROOT
ATOM      1  C   UNL     1      46.624   7.430  12.406  0.00  0.00    +0.000 A 
ATOM      2  C   UNL     1      45.641   7.145  11.466  0.00  0.00    +0.000 A 
ATOM      3  N   UNL     1      45.241   5.840  11.609  0.00  0.00    +0.000 N 
ATOM      4  C   UNL     1      45.958   5.245  12.621  0.00  0.00    +0.000 A 
ATOM      5  C   UNL     1      45.937   3.946  13.145  0.00  0.00    +0.000 A 
ATOM      6  C   UNL     1      46.823   3.683  14.182  0.00  0.00    +0.000 A 
ATOM      7  C   UNL     1      47.655   4.696  14.629  0.00  0.00    +0.000 A 
ATOM      8  N   UNL     1      47.692   5.952  14.143  0.00  0.00    +0.000 NA
ATOM      9  C   UNL     1      46.826   6.212  13.130  0.00  0.00    +0.000 A 
ENDROOT
BRANCH   1  11
ATOM     10  C   UNL     1      46.356   9.893  12.054  0.00  0.00    +0.000 C 
ATOM     11  C   UNL     1      47.296   8.789  12.588  0.00  0.00    +0.000 C 
ATOM     12  C   UNL     1      48.623   8.840  11.797  0.00  0.00    +0.000 C 
ATOM     13  C   UNL     1      47.625   9.127  14.055  0.00  0.00    +0.000 C 
ENDBRANCH   1  11
BRANCH   3  14
ATOM     14  C   UNL     1      44.313   5.163  10.712  0.00  0.00    +0.000 C 
BRANCH  14  15
ATOM     15  C   UNL     1      44.993   4.221   9.749  0.00  0.00    +0.000 A 
ATOM     16  C   UNL     1      44.825   2.842   9.868  0.00  0.00    +0.000 A 
ATOM     17  C   UNL     1      45.340   2.008   8.877  0.00  0.00    +0.000 A 
ATOM     18  C   UNL     1      46.033   2.558   7.797  0.00  0.00    +0.000 A 
ATOM     19  C   UNL     1      46.189   3.939   7.783  0.00  0.00    +0.000 A 
ATOM     20  N   UNL     1      45.682   4.775   8.718  0.00  0.00    +0.000 NA
BRANCH  18  21
ATOM     21  C   UNL     1      46.544   1.698   6.672  0.00  0.00    +0.000 C 
BRANCH  21  22
ATOM     22  C   UNL     1      47.170   2.537   5.548  0.00  0.00    +0.000 C 
BRANCH  22  23
ATOM     23  N   UNL     1      48.568   2.172   5.332  0.00  0.00    +0.000 NA
ATOM     24  H   UNL     1      48.626   1.234   4.936  0.00  0.00    +0.000 HD
ATOM     25  H   UNL     1      49.049   2.130   6.231  0.00  0.00    +0.000 HD
ENDBRANCH  22  23
ENDBRANCH  21  22
ENDBRANCH  18  21
ENDBRANCH  14  15
ENDBRANCH   3  14
TORSDOF 6
ENDMDL
MODEL 3
REMARK VINA RESULT:    -6.303      1.650      3.629
REMARK INTER + INTRA:          -8.782
REMARK INTER:                  -8.905
REMARK INTRA:                   0.123
REMARK UNBOUND:                -0.453
REMARK  Name = 
REMARK  9 active torsions:
REMARK  status: ('A' for Active; 'I' for Inactive)
REMARK    1  A    between atoms: C_1  and  C_2
REMARK    2  A    between atoms: C_2  and  C_3
REMARK    3  A    between atoms: C_2  and  C_4
REMARK    4  A    between atoms: C_2  and  C_5
REMARK    5  A    between atoms: N_7  and  C_8
REMARK    6  A    between atoms: C_8  and  C_9
REMARK    7  A    between atoms: C_12  and  C_13
REMARK    8  A    between atoms: C_13  and  C_14
REMARK    9  A    between atoms: C_14  and  N_15
REMARK                            x       y       z     vdW  Elec       q    Type
REMARK                         _______ _______ _______ _____ _____    ______ ____
ROOT
ATOM      1  C   UNL     1      47.318   4.746  15.002  0.00  0.00    +0.000 A 
ATOM      2  C   UNL     1      46.117   4.396  14.396  0.00  0.00    +0.000 A 
ATOM      3  N   UNL     1      45.946   5.149  13.261  0.00  0.00    +0.000 N 
ATOM      4  C   UNL     1      47.009   6.009  13.113  0.00  0.00    +0.000 A 
ATOM      5  C   UNL     1      47.302   6.976  12.142  0.00  0.00    +0.000 A 
ATOM      6  C   UNL     1      48.485   7.684  12.312  0.00  0.00    +0.000 A 
ATOM      7  C   UNL     1      49.288   7.399  13.404  0.00  0.00    +0.000 A 
ATOM      8  N   UNL     1      49.029   6.474  14.348  0.00  0.00    +0.000 NA
ATOM      9  C   UNL     1      47.874   5.780  14.184  0.00  0.00    +0.000 A 
ENDROOT
BRANCH   1  11
ATOM     10  C   UNL     1      46.762   4.031  17.335  0.00  0.00    +0.000 C 
ATOM     11  C   UNL     1      47.879   4.106  16.270  0.00  0.00    +0.000 C 
ATOM     12  C   UNL     1      49.042   4.957  16.829  0.00  0.00    +0.000 C 
ATOM     13  C   UNL     1      48.418   2.679  16.059  0.00  0.00    +0.000 C 
ENDBRANCH   1  11
BRANCH   3  14
ATOM     14  C   UNL     1      44.741   5.136  12.442  0.00  0.00    +0.000 C 
BRANCH  14  15
ATOM     15  C   UNL     1      44.959   4.562  11.064  0.00  0.00    +0.000 A 
ATOM     16  C   UNL     1      45.365   5.382  10.011  0.00  0.00    +0.000 A 
ATOM     17  C   UNL     1      45.704   4.799   8.791  0.00  0.00    +0.000 A 
ATOM     18  C   UNL     1      45.613   3.416   8.632  0.00  0.00    +0.000 A 
ATOM     19  C   UNL     1      45.159   2.682   9.722  0.00  0.00    +0.000 A 
ATOM     20  N   UNL     1      44.844   3.216  10.925  0.00  0.00    +0.000 NA
BRANCH  18  21
ATOM     21  C   UNL     1      46.036   2.743   7.354  0.00  0.00    +0.000 C 
BRANCH  21  22
ATOM     22  C   UNL     1      46.863   1.475   7.619  0.00  0.00    +0.000 C 
BRANCH  22  23
ATOM     23  N   UNL     1      48.052   1.434   6.772  0.00  0.00    +0.000 NA
ATOM     24  H   UNL     1      48.867   1.175   7.327  0.00  0.00    +0.000 HD
ATOM     25  H   UNL     1      48.242   2.369   6.410  0.00  0.00    +0.000 HD
ENDBRANCH  22  23
ENDBRANCH  21  22
ENDBRANCH  18  21
ENDBRANCH  14  15
ENDBRANCH   3  14
TORSDOF 6
ENDMDL
MODEL 4
REMARK VINA RESULT:    -5.333      2.568      4.448
REMARK INTER + INTRA:          -7.500
REMARK INTER:                  -7.413
REMARK INTRA:                  -0.087
REMARK UNBOUND:                -0.453
REMARK  Name = 
REMARK  9 active torsions:
REMARK  status: ('A' for Active; 'I' for Inactive)
REMARK    1  A    between atoms: C_1  and  C_2
REMARK    2  A    between atoms: C_2  and  C_3
REMARK    3  A    between atoms: C_2  and  C_4
REMARK    4  A    between atoms: C_2  and  C_5
REMARK    5  A    between atoms: N_7  and  C_8
REMARK    6  A    between atoms: C_8  and  C_9
REMARK    7  A    between atoms: C_12  and  C_13
REMARK    8  A    between atoms: C_13  and  C_14
REMARK    9  A    between atoms: C_14  and  N_15
REMARK                            x       y       z     vdW  Elec       q    Type
REMARK                         _______ _______ _______ _____ _____    ______ ____
ROOT
ATOM      1  C   UNL     1      49.102   7.399  14.084  0.00  0.00    +0.000 A 
ATOM      2  C   UNL     1      48.179   6.421  13.735  0.00  0.00    +0.000 A 
ATOM      3  N   UNL     1      47.843   5.695  14.851  0.00  0.00    +0.000 N 
ATOM      4  C   UNL     1      48.545   6.165  15.936  0.00  0.00    +0.000 A 
ATOM      5  C   UNL     1      48.569   5.766  17.279  0.00  0.00    +0.000 A 
ATOM      6  C   UNL     1      49.421   6.473  18.118  0.00  0.00    +0.000 A 
ATOM      7  C   UNL     1      50.177   7.508  17.593  0.00  0.00    +0.000 A 
ATOM      8  N   UNL     1      50.169   7.911  16.307  0.00  0.00    +0.000 NA
ATOM      9  C   UNL     1      49.337   7.222  15.485  0.00  0.00    +0.000 A 
ENDROOT
BRANCH   1  11
ATOM     10  C   UNL     1      49.192   8.134  11.694  0.00  0.00    +0.000 C 
ATOM     11  C   UNL     1      49.693   8.430  13.125  0.00  0.00    +0.000 C 
ATOM     12  C   UNL     1      51.236   8.351  13.137  0.00  0.00    +0.000 C 
ATOM     13  C   UNL     1      49.307   9.883  13.462  0.00  0.00    +0.000 C 
ENDBRANCH   1  11
BRANCH   3  14
ATOM     14  C   UNL     1      46.993   4.511  14.834  0.00  0.00    +0.000 C 
BRANCH  14  15
ATOM     15  C   UNL     1      46.038   4.477  13.667  0.00  0.00    +0.000 A 
ATOM     16  C   UNL     1      45.336   5.622  13.292  0.00  0.00    +0.000 A 
ATOM     17  C   UNL     1      44.578   5.599  12.122  0.00  0.00    +0.000 A 
ATOM     18  C   UNL     1      44.515   4.433  11.358  0.00  0.00    +0.000 A 
ATOM     19  C   UNL     1      45.212   3.328  11.830  0.00  0.00    +0.000 A 
ATOM     20  N   UNL     1      45.973   3.325  12.950  0.00  0.00    +0.000 NA
BRANCH  18  21
ATOM     21  C   UNL     1      43.765   4.389  10.053  0.00  0.00    +0.000 C 
BRANCH  21  22
ATOM     22  C   UNL     1      44.622   3.806   8.918  0.00  0.00    +0.000 C 
BRANCH  22  23
ATOM     23  N   UNL     1      45.503   4.821   8.348  0.00  0.00    +0.000 NA
ATOM     24  H   UNL     1      45.069   5.741   8.420  0.00  0.00    +0.000 HD
ATOM     25  H   UNL     1      45.623   4.643   7.350  0.00  0.00    +0.000 HD
ENDBRANCH  22  23
ENDBRANCH  21  22
ENDBRANCH  18  21
ENDBRANCH  14  15
ENDBRANCH   3  14
TORSDOF 6
ENDMDL
MODEL 5
REMARK VINA RESULT:    -5.297      3.476      7.702
REMARK INTER + INTRA:          -7.453
REMARK INTER:                  -7.116
REMARK INTRA:                  -0.337
REMARK UNBOUND:                -0.453
REMARK  Name = 
REMARK  9 active torsions:
REMARK  status: ('A' for Active; 'I' for Inactive)
REMARK    1  A    between atoms: C_1  and  C_2
REMARK    2  A    between atoms: C_2  and  C_3
REMARK    3  A    between atoms: C_2  and  C_4
REMARK    4  A    between atoms: C_2  and  C_5
REMARK    5  A    between atoms: N_7  and  C_8
REMARK    6  A    between atoms: C_8  and  C_9
REMARK    7  A    between atoms: C_12  and  C_13
REMARK    8  A    between atoms: C_13  and  C_14
REMARK    9  A    between atoms: C_14  and  N_15
REMARK                            x       y       z     vdW  Elec       q    Type
REMARK                         _______ _______ _______ _____ _____    ______ ____
ROOT
ATOM      1  C   UNL     1      47.535   6.772  13.188  0.00  0.00    +0.000 A 
ATOM      2  C   UNL     1      47.828   6.055  14.342  0.00  0.00    +0.000 A 
ATOM      3  N   UNL     1      47.146   4.864  14.321  0.00  0.00    +0.000 N 
ATOM      4  C   UNL     1      46.387   4.786  13.176  0.00  0.00    +0.000 A 
ATOM      5  C   UNL     1      45.518   3.798  12.696  0.00  0.00    +0.000 A 
ATOM      6  C   UNL     1      44.898   4.059  11.480  0.00  0.00    +0.000 A 
ATOM      7  C   UNL     1      45.169   5.250  10.828  0.00  0.00    +0.000 A 
ATOM      8  N   UNL     1      46.002   6.214  11.270  0.00  0.00    +0.000 NA
ATOM      9  C   UNL     1      46.609   5.961  12.457  0.00  0.00    +0.000 A 
ENDROOT
BRANCH   1  11
ATOM     10  C   UNL     1      48.999   7.983  11.559  0.00  0.00    +0.000 C 
ATOM     11  C   UNL     1      48.127   8.132  12.826  0.00  0.00    +0.000 C 
ATOM     12  C   UNL     1      49.012   8.655  13.980  0.00  0.00    +0.000 C 
ATOM     13  C   UNL     1      47.067   9.213  12.538  0.00  0.00    +0.000 C 
ENDBRANCH   1  11
BRANCH   3  14
ATOM     14  C   UNL     1      47.119   3.915  15.427  0.00  0.00    +0.000 C 
BRANCH  14  15
ATOM     15  C   UNL     1      47.889   4.384  16.636  0.00  0.00    +0.000 A 
ATOM     16  C   UNL     1      47.220   4.898  17.747  0.00  0.00    +0.000 A 
ATOM     17  C   UNL     1      47.945   5.181  18.903  0.00  0.00    +0.000 A 
ATOM     18  C   UNL     1      49.325   4.970  18.927  0.00  0.00    +0.000 A 
ATOM     19  C   UNL     1      49.913   4.496  17.761  0.00  0.00    +0.000 A 
ATOM     20  N   UNL     1      49.233   4.191  16.631  0.00  0.00    +0.000 NA
BRANCH  18  21
ATOM     21  C   UNL     1      50.132   5.198  20.178  0.00  0.00    +0.000 C 
BRANCH  21  22
ATOM     22  C   UNL     1      51.638   5.270  19.883  0.00  0.00    +0.000 C 
BRANCH  22  23
ATOM     23  N   UNL     1      52.329   4.080  20.371  0.00  0.00    +0.000 NA
ATOM     24  H   UNL     1      51.673   3.473  20.862  0.00  0.00    +0.000 HD
ATOM     25  H   UNL     1      53.030   4.355  21.061  0.00  0.00    +0.000 HD
ENDBRANCH  22  23
ENDBRANCH  21  22
ENDBRANCH  18  21
ENDBRANCH  14  15
ENDBRANCH   3  14
TORSDOF 6
ENDMDL
MODEL 6
REMARK VINA RESULT:    -5.253      3.701      6.699
REMARK INTER + INTRA:          -7.394
REMARK INTER:                  -6.986
REMARK INTRA:                  -0.408
REMARK UNBOUND:                -0.453
REMARK  Name = 
REMARK  9 active torsions:
REMARK  status: ('A' for Active; 'I' for Inactive)
REMARK    1  A    between atoms: C_1  and  C_2
REMARK    2  A    between atoms: C_2  and  C_3
REMARK    3  A    between atoms: C_2  and  C_4
REMARK    4  A    between atoms: C_2  and  C_5
REMARK    5  A    between atoms: N_7  and  C_8
REMARK    6  A    between atoms: C_8  and  C_9
REMARK    7  A    between atoms: C_12  and  C_13
REMARK    8  A    between atoms: C_13  and  C_14
REMARK    9  A    between atoms: C_14  and  N_15
REMARK                            x       y       z     vdW  Elec       q    Type
REMARK                         _______ _______ _______ _____ _____    ______ ____
ROOT
ATOM      1  C   UNL     1      48.664   6.405  17.613  0.00  0.00    +0.000 A 
ATOM      2  C   UNL     1      48.666   5.877  16.328  0.00  0.00    +0.000 A 
ATOM      3  N   UNL     1      48.696   6.903  15.415  0.00  0.00    +0.000 N 
ATOM      4  C   UNL     1      48.695   8.108  16.077  0.00  0.00    +0.000 A 
ATOM      5  C   UNL     1      48.708   9.430  15.613  0.00  0.00    +0.000 A 
ATOM      6  C   UNL     1      48.693  10.426  16.582  0.00  0.00    +0.000 A 
ATOM      7  C   UNL     1      48.668  10.064  17.918  0.00  0.00    +0.000 A 
ATOM      8  N   UNL     1      48.656   8.801  18.388  0.00  0.00    +0.000 NA
ATOM      9  C   UNL     1      48.672   7.826  17.443  0.00  0.00    +0.000 A 
ENDROOT
BRANCH   1  11
ATOM     10  C   UNL     1      48.560   4.083  18.540  0.00  0.00    +0.000 C 
ATOM     11  C   UNL     1      48.669   5.582  18.899  0.00  0.00    +0.000 C 
ATOM     12  C   UNL     1      47.465   5.969  19.787  0.00  0.00    +0.000 C 
ATOM     13  C   UNL     1      49.941   5.767  19.749  0.00  0.00    +0.000 C 
ENDBRANCH   1  11
BRANCH   3  14
ATOM     14  C   UNL     1      48.583   6.722  13.974  0.00  0.00    +0.000 C 
BRANCH  14  15
ATOM     15  C   UNL     1      47.232   6.209  13.540  0.00  0.00    +0.000 A 
ATOM     16  C   UNL     1      46.914   4.857  13.666  0.00  0.00    +0.000 A 
ATOM     17  C   UNL     1      45.610   4.440  13.399  0.00  0.00    +0.000 A 
ATOM     18  C   UNL     1      44.653   5.370  12.990  0.00  0.00    +0.000 A 
ATOM     19  C   UNL     1      45.070   6.688  12.851  0.00  0.00    +0.000 A 
ATOM     20  N   UNL     1      46.322   7.127  13.123  0.00  0.00    +0.000 NA
BRANCH  18  21
ATOM     21  C   UNL     1      43.220   4.972  12.760  0.00  0.00    +0.000 C 
BRANCH  21  22
ATOM     22  C   UNL     1      43.016   4.341  11.374  0.00  0.00    +0.000 C 
BRANCH  22  23
ATOM     23  N   UNL     1      42.937   2.885  11.463  0.00  0.00    +0.000 NA
ATOM     24  H   UNL     1      43.473   2.460  10.707  0.00  0.00    +0.000 HD
ATOM     25  H   UNL     1      41.970   2.589  11.325  0.00  0.00    +0.000 HD
ENDBRANCH  22  23
ENDBRANCH  21  22
ENDBRANCH  18  21
ENDBRANCH  14  15
ENDBRANCH   3  14
TORSDOF 6
ENDMDL
MODEL 7
REMARK VINA RESULT:    -5.226      3.621      6.317
REMARK INTER + INTRA:          -7.359
REMARK INTER:                  -6.798
REMARK INTRA:                  -0.560
REMARK UNBOUND:                -0.453
REMARK  Name = 
REMARK  9 active torsions:
REMARK  status: ('A' for Active; 'I' for Inactive)
REMARK    1  A    between atoms: C_1  and  C_2
REMARK    2  A    between atoms: C_2  and  C_3
REMARK    3  A    between atoms: C_2  and  C_4
REMARK    4  A    between atoms: C_2  and  C_5
REMARK    5  A    between atoms: N_7  and  C_8
REMARK    6  A    between atoms: C_8  and  C_9
REMARK    7  A    between atoms: C_12  and  C_13
REMARK    8  A    between atoms: C_13  and  C_14
REMARK    9  A    between atoms: C_14  and  N_15
REMARK                            x       y       z     vdW  Elec       q    Type
REMARK                         _______ _______ _______ _____ _____    ______ ____
ROOT
ATOM      1  C   UNL     1      48.486   8.321  17.869  0.00  0.00    +0.000 A 
ATOM      2  C   UNL     1      48.556   8.343  16.482  0.00  0.00    +0.000 A 
ATOM      3  N   UNL     1      48.713   7.061  16.015  0.00  0.00    +0.000 N 
ATOM      4  C   UNL     1      48.769   6.187  17.076  0.00  0.00    +0.000 A 
ATOM      5  C   UNL     1      48.929   4.797  17.135  0.00  0.00    +0.000 A 
ATOM      6  C   UNL     1      48.949   4.230  18.403  0.00  0.00    +0.000 A 
ATOM      7  C   UNL     1      48.810   5.052  19.509  0.00  0.00    +0.000 A 
ATOM      8  N   UNL     1      48.653   6.390  19.478  0.00  0.00    +0.000 NA
ATOM      9  C   UNL     1      48.633   6.946  18.239  0.00  0.00    +0.000 A 
ENDROOT
BRANCH   1  11
ATOM     10  C   UNL     1      48.005  10.777  17.862  0.00  0.00    +0.000 C 
ATOM     11  C   UNL     1      48.277   9.546  18.756  0.00  0.00    +0.000 C 
ATOM     12  C   UNL     1      49.541   9.816  19.603  0.00  0.00    +0.000 C 
ATOM     13  C   UNL     1      47.093   9.410  19.733  0.00  0.00    +0.000 C 
ENDBRANCH   1  11
BRANCH   3  14
ATOM     14  C   UNL     1      48.946   6.720  14.618  0.00  0.00    +0.000 C 
BRANCH  14  15
ATOM     15  C   UNL     1      47.694   6.304  13.887  0.00  0.00    +0.000 A 
ATOM     16  C   UNL     1      47.003   7.216  13.089  0.00  0.00    +0.000 A 
ATOM     17  C   UNL     1      45.939   6.765  12.309  0.00  0.00    +0.000 A 
ATOM     18  C   UNL     1      45.567   5.420  12.353  0.00  0.00    +0.000 A 
ATOM     19  C   UNL     1      46.285   4.592  13.208  0.00  0.00    +0.000 A 
ATOM     20  N   UNL     1      47.335   4.996  13.960  0.00  0.00    +0.000 NA
BRANCH  18  21
ATOM     21  C   UNL     1      44.470   4.880  11.475  0.00  0.00    +0.000 C 
BRANCH  21  22
ATOM     22  C   UNL     1      43.108   5.510  11.806  0.00  0.00    +0.000 C 
BRANCH  22  23
ATOM     23  N   UNL     1      42.827   5.439  13.237  0.00  0.00    +0.000 NA
ATOM     24  H   UNL     1      43.697   5.342  13.759  0.00  0.00    +0.000 HD
ATOM     25  H   UNL     1      42.285   4.596  13.433  0.00  0.00    +0.000 HD
ENDBRANCH  22  23
ENDBRANCH  21  22
ENDBRANCH  18  21
ENDBRANCH  14  15
ENDBRANCH   3  14
TORSDOF 6
ENDMDL
MODEL 8
REMARK VINA RESULT:    -4.976      2.630      4.902
REMARK INTER + INTRA:          -7.029
REMARK INTER:                  -6.914
REMARK INTRA:                  -0.115
REMARK UNBOUND:                -0.453
REMARK  Name = 
REMARK  9 active torsions:
REMARK  status: ('A' for Active; 'I' for Inactive)
REMARK    1  A    between atoms: C_1  and  C_2
REMARK    2  A    between atoms: C_2  and  C_3
REMARK    3  A    between atoms: C_2  and  C_4
REMARK    4  A    between atoms: C_2  and  C_5
REMARK    5  A    between atoms: N_7  and  C_8
REMARK    6  A    between atoms: C_8  and  C_9
REMARK    7  A    between atoms: C_12  and  C_13
REMARK    8  A    between atoms: C_13  and  C_14
REMARK    9  A    between atoms: C_14  and  N_15
REMARK                            x       y       z     vdW  Elec       q    Type
REMARK                         _______ _______ _______ _____ _____    ______ ____
ROOT
ATOM      1  C   UNL     1      49.425   7.115  15.144  0.00  0.00    +0.000 A 
ATOM      2  C   UNL     1      48.068   6.954  14.893  0.00  0.00    +0.000 A 
ATOM      3  N   UNL     1      47.790   7.368  13.614  0.00  0.00    +0.000 N 
ATOM      4  C   UNL     1      48.942   7.822  13.015  0.00  0.00    +0.000 A 
ATOM      5  C   UNL     1      49.188   8.351  11.742  0.00  0.00    +0.000 A 
ATOM      6  C   UNL     1      50.499   8.722  11.470  0.00  0.00    +0.000 A 
ATOM      7  C   UNL     1      51.464   8.550  12.448  0.00  0.00    +0.000 A 
ATOM      8  N   UNL     1      51.252   8.042  13.678  0.00  0.00    +0.000 NA
ATOM      9  C   UNL     1      49.972   7.678  13.946  0.00  0.00    +0.000 A 
ENDROOT
BRANCH   1  11
ATOM     10  C   UNL     1      49.959   7.883  17.465  0.00  0.00    +0.000 C 
ATOM     11  C   UNL     1      50.129   6.735  16.444  0.00  0.00    +0.000 C 
ATOM     12  C   UNL     1      51.637   6.513  16.192  0.00  0.00    +0.000 C 
ATOM     13  C   UNL     1      49.580   5.450  17.093  0.00  0.00    +0.000 C 
ENDBRANCH   1  11
BRANCH   3  14
ATOM     14  C   UNL     1      46.447   7.457  13.054  0.00  0.00    +0.000 C 
BRANCH  14  15
ATOM     15  C   UNL     1      46.009   6.197  12.351  0.00  0.00    +0.000 A 
ATOM     16  C   UNL     1      45.797   5.021  13.070  0.00  0.00    +0.000 A 
ATOM     17  C   UNL     1      45.248   3.917  12.418  0.00  0.00    +0.000 A 
ATOM     18  C   UNL     1      44.942   3.995  11.058  0.00  0.00    +0.000 A 
ATOM     19  C   UNL     1      45.226   5.192  10.413  0.00  0.00    +0.000 A 
ATOM     20  N   UNL     1      45.737   6.287  11.023  0.00  0.00    +0.000 NA
BRANCH  18  21
ATOM     21  C   UNL     1      44.285   2.850  10.335  0.00  0.00    +0.000 C 
BRANCH  21  22
ATOM     22  C   UNL     1      44.836   2.679   8.911  0.00  0.00    +0.000 C 
BRANCH  22  23
ATOM     23  N   UNL     1      45.596   1.438   8.785  0.00  0.00    +0.000 NA
ATOM     24  H   UNL     1      46.014   1.192   9.682  0.00  0.00    +0.000 HD
ATOM     25  H   UNL     1      46.374   1.582   8.141  0.00  0.00    +0.000 HD
ENDBRANCH  22  23
ENDBRANCH  21  22
ENDBRANCH  18  21
ENDBRANCH  14  15
ENDBRANCH   3  14
TORSDOF 6
ENDMDL
MODEL 9
REMARK VINA RESULT:    -4.876      2.965      5.108
REMARK INTER + INTRA:          -6.897
REMARK INTER:                  -6.470
REMARK INTRA:                  -0.426
REMARK UNBOUND:                -0.453
REMARK  Name = 
REMARK  9 active torsions:
REMARK  status: ('A' for Active; 'I' for Inactive)
REMARK    1  A    between atoms: C_1  and  C_2
REMARK    2  A    between atoms: C_2  and  C_3
REMARK    3  A    between atoms: C_2  and  C_4
REMARK    4  A    between atoms: C_2  and  C_5
REMARK    5  A    between atoms: N_7  and  C_8
REMARK    6  A    between atoms: C_8  and  C_9
REMARK    7  A    between atoms: C_12  and  C_13
REMARK    8  A    between atoms: C_13  and  C_14
REMARK    9  A    between atoms: C_14  and  N_15
REMARK                            x       y       z     vdW  Elec       q    Type
REMARK                         _______ _______ _______ _____ _____    ______ ____
ROOT
ATOM      1  C   UNL     1      49.575   9.662  12.322  0.00  0.00    +0.000 A 
ATOM      2  C   UNL     1      48.197   9.552  12.178  0.00  0.00    +0.000 A 
ATOM      3  N   UNL     1      47.698   8.749  13.173  0.00  0.00    +0.000 N 
ATOM      4  C   UNL     1      48.729   8.306  13.969  0.00  0.00    +0.000 A 
ATOM      5  C   UNL     1      48.751   7.468  15.091  0.00  0.00    +0.000 A 
ATOM      6  C   UNL     1      49.998   7.220  15.653  0.00  0.00    +0.000 A 
ATOM      7  C   UNL     1      51.119   7.802  15.086  0.00  0.00    +0.000 A 
ATOM      8  N   UNL     1      51.123   8.612  14.009  0.00  0.00    +0.000 NA
ATOM      9  C   UNL     1      49.906   8.856  13.459  0.00  0.00    +0.000 A 
ENDROOT
BRANCH   1  11
ATOM     10  C   UNL     1      51.485   9.564  10.710  0.00  0.00    +0.000 C 
ATOM     11  C   UNL     1      50.487  10.499  11.429  0.00  0.00    +0.000 C 
ATOM     12  C   UNL     1      51.282  11.516  12.277  0.00  0.00    +0.000 C 
ATOM     13  C   UNL     1      49.734  11.296  10.347  0.00  0.00    +0.000 C 
ENDBRANCH   1  11
BRANCH   3  14
ATOM     14  C   UNL     1      46.310   8.315  13.259  0.00  0.00    +0.000 C 
BRANCH  14  15
ATOM     15  C   UNL     1      46.056   6.987  12.592  0.00  0.00    +0.000 A 
ATOM     16  C   UNL     1      46.306   5.794  13.270  0.00  0.00    +0.000 A 
ATOM     17  C   UNL     1      45.921   4.588  12.685  0.00  0.00    +0.000 A 
ATOM     18  C   UNL     1      45.315   4.589  11.428  0.00  0.00    +0.000 A 
ATOM     19  C   UNL     1      45.144   5.820  10.807  0.00  0.00    +0.000 A 
ATOM     20  N   UNL     1      45.487   7.008  11.359  0.00  0.00    +0.000 NA
BRANCH  18  21
ATOM     21  C   UNL     1      44.822   3.315  10.793  0.00  0.00    +0.000 C 
BRANCH  21  22
ATOM     22  C   UNL     1      43.407   2.949  11.267  0.00  0.00    +0.000 C 
BRANCH  22  23
ATOM     23  N   UNL     1      43.450   2.124  12.471  0.00  0.00    +0.000 NA
ATOM     24  H   UNL     1      44.098   1.347  12.338  0.00  0.00    +0.000 HD
ATOM     25  H   UNL     1      42.533   1.703  12.626  0.00  0.00    +0.000 HD
ENDBRANCH  22  23
ENDBRANCH  21  22
ENDBRANCH  18  21
ENDBRANCH  14  15
ENDBRANCH   3  14
TORSDOF 6
ENDMDL
