MODEL 1
REMARK VINA RESULT:    -7.771      0.000      0.000
REMARK INTER + INTRA:         -11.111
REMARK INTER:                 -10.270
REMARK INTRA:                  -0.841
REMARK UNBOUND:                -0.841
REMARK  Name = 
REMARK  6 active torsions:
REMARK  status: ('A' for Active; 'I' for Inactive)
REMARK    1  A    between atoms: C_2  and  C_3
REMARK    2  A    between atoms: C_7  and  O_8
REMARK    3  A    between atoms: O_8  and  C_9
REMARK    4  A    between atoms: C_9  and  C_10
REMARK    5  A    between atoms: C_14  and  N_15
REMARK    6  A    between atoms: C_18  and  O_19
REMARK                            x       y       z     vdW  Elec       q    Type
REMARK                         _______ _______ _______ _____ _____    ______ ____
ROOT
ATOM      1  C   UNL     1      44.997   4.785  12.314  0.00  0.00    +0.000 A 
ATOM      2  C   UNL     1      45.553   3.651  12.918  0.00  0.00    +0.000 A 
ATOM      3  C   UNL     1      46.782   3.718  13.569  0.00  0.00    +0.000 A 
ATOM      4  C   UNL     1      47.497   4.918  13.597  0.00  0.00    +0.000 A 
ATOM      5  C   UNL     1      46.982   6.090  13.036  0.00  0.00    +0.000 A 
ATOM      6  C   UNL     1      45.703   5.995  12.466  0.00  0.00    +0.000 A 
ENDROOT
BRANCH   5   7
ATOM      7  N   UNL     1      47.684   7.281  13.011  0.00  0.00    +0.000 N 
ATOM      8  C   UNL     1      49.139   7.310  12.828  0.00  0.00    +0.000 C 
ATOM      9  C   UNL     1      49.471   8.206  11.641  0.00  0.00    +0.000 C 
ATOM     10  C   UNL     1      48.845   9.592  11.802  0.00  0.00    +0.000 C 
ATOM     11  C   UNL     1      47.354   9.521  12.134  0.00  0.00    +0.000 C 
ATOM     12  C   UNL     1      47.059   8.571  13.295  0.00  0.00    +0.000 C 
BRANCH  10  13
ATOM     13  O   UNL     1      49.544  10.342  12.797  0.00  0.00    +0.000 OA
ATOM     14  H   UNL     1      50.456  10.015  12.857  0.00  0.00    +0.000 HD
ENDBRANCH  10  13
ENDBRANCH   5   7
BRANCH   1  15
ATOM     15  C   UNL     1      43.745   4.720  11.441  0.00  0.00    +0.000 C 
ATOM     16  C   UNL     1      42.423   5.127  12.096  0.00  0.00    +0.000 C 
ATOM     17  C   UNL     1      43.041   6.014  11.071  0.00  0.00    +0.000 C 
BRANCH  15  18
ATOM     18  O   UNL     1      43.585   3.592  10.539  0.00  0.00    +0.000 OA
BRANCH  18  23
ATOM     19  C   UNL     1      45.935   2.036   8.242  0.00  0.00    +0.000 A 
ATOM     20  C   UNL     1      46.395   3.167   7.580  0.00  0.00    +0.000 A 
ATOM     21  N   UNL     1      45.949   4.419   7.833  0.00  0.00    +0.000 NA
ATOM     22  C   UNL     1      45.012   4.543   8.803  0.00  0.00    +0.000 A 
ATOM     23  C   UNL     1      44.521   3.478   9.547  0.00  0.00    +0.000 A 
ATOM     24  C   UNL     1      44.972   2.199   9.237  0.00  0.00    +0.000 A 
BRANCH  19  26
ATOM     25  N   UNL     1      46.848  -0.308   7.636  0.00  0.00    +0.000 NA
ATOM     26  C   UNL     1      46.444   0.747   7.907  0.00  0.00    +0.000 C 
ENDBRANCH  19  26
ENDBRANCH  18  23
ENDBRANCH  15  18
ENDBRANCH   1  15
TORSDOF 6
ENDMDL
MODEL 2
REMARK VINA RESULT:    -7.539      2.586      3.713
REMARK INTER + INTRA:         -10.804
REMARK INTER:                 -10.439
REMARK INTRA:                  -0.365
REMARK UNBOUND:                -0.841
REMARK  Name = 
REMARK  6 active torsions:
REMARK  status: ('A' for Active; 'I' for Inactive)
REMARK    1  A    between atoms: C_2  and  C_3
REMARK    2  A    between atoms: C_7  and  O_8
REMARK    3  A    between atoms: O_8  and  C_9
REMARK    4  A    between atoms: C_9  and  C_10
REMARK    5  A    between atoms: C_14  and  N_15
REMARK    6  A    between atoms: C_18  and  O_19
REMARK                            x       y       z     vdW  Elec       q    Type
REMARK                         _______ _______ _______ _____ _____    ______ ____
ROOT
ATOM      1  C   UNL     1      45.601   5.259  12.406  0.00  0.00    +0.000 A 
ATOM      2  C   UNL     1      46.383   6.209  11.740  0.00  0.00    +0.000 A 
ATOM      3  C   UNL     1      47.550   6.706  12.316  0.00  0.00    +0.000 A 
ATOM      4  C   UNL     1      47.937   6.286  13.591  0.00  0.00    +0.000 A 
ATOM      5  C   UNL     1      47.213   5.319  14.295  0.00  0.00    +0.000 A 
ATOM      6  C   UNL     1      46.093   4.784  13.638  0.00  0.00    +0.000 A 
ENDROOT
BRANCH   5   7
ATOM      7  N   UNL     1      47.548   4.915  15.573  0.00  0.00    +0.000 N 
ATOM      8  C   UNL     1      47.074   3.641  16.124  0.00  0.00    +0.000 C 
ATOM      9  C   UNL     1      48.275   2.828  16.592  0.00  0.00    +0.000 C 
ATOM     10  C   UNL     1      49.143   3.631  17.562  0.00  0.00    +0.000 C 
ATOM     11  C   UNL     1      49.500   5.013  17.014  0.00  0.00    +0.000 C 
ATOM     12  C   UNL     1      48.275   5.774  16.506  0.00  0.00    +0.000 C 
BRANCH  10  13
ATOM     13  O   UNL     1      48.495   3.747  18.830  0.00  0.00    +0.000 OA
ATOM     14  H   UNL     1      47.564   3.491  18.735  0.00  0.00    +0.000 HD
ENDBRANCH  10  13
ENDBRANCH   5   7
BRANCH   1  15
ATOM     15  C   UNL     1      44.231   4.819  11.896  0.00  0.00    +0.000 C 
ATOM     16  C   UNL     1      43.032   5.095  12.806  0.00  0.00    +0.000 C 
ATOM     17  C   UNL     1      43.201   5.880  11.551  0.00  0.00    +0.000 C 
BRANCH  15  18
ATOM     18  O   UNL     1      44.120   3.537  11.220  0.00  0.00    +0.000 OA
BRANCH  18  23
ATOM     19  C   UNL     1      45.869   2.038   8.406  0.00  0.00    +0.000 A 
ATOM     20  C   UNL     1      46.029   3.164   7.607  0.00  0.00    +0.000 A 
ATOM     21  N   UNL     1      45.564   4.391   7.935  0.00  0.00    +0.000 NA
ATOM     22  C   UNL     1      44.924   4.496   9.125  0.00  0.00    +0.000 A 
ATOM     23  C   UNL     1      44.751   3.439  10.009  0.00  0.00    +0.000 A 
ATOM     24  C   UNL     1      45.208   2.183   9.625  0.00  0.00    +0.000 A 
BRANCH  19  26
ATOM     25  N   UNL     1      46.777  -0.260   7.639  0.00  0.00    +0.000 NA
ATOM     26  C   UNL     1      46.374   0.775   7.982  0.00  0.00    +0.000 C 
ENDBRANCH  19  26
ENDBRANCH  18  23
ENDBRANCH  15  18
ENDBRANCH   1  15
TORSDOF 6
ENDMDL
MODEL 3
REMARK VINA RESULT:    -6.650      2.484      7.009
REMARK INTER + INTRA:          -9.629
REMARK INTER:                  -8.702
REMARK INTRA:                  -0.927
REMARK UNBOUND:                -0.841
REMARK  Name = 
REMARK  6 active torsions:
REMARK  status: ('A' for Active; 'I' for Inactive)
REMARK    1  A    between atoms: C_2  and  C_3
REMARK    2  A    between atoms: C_7  and  O_8
REMARK    3  A    between atoms: O_8  and  C_9
REMARK    4  A    between atoms: C_9  and  C_10
REMARK    5  A    between atoms: C_14  and  N_15
REMARK    6  A    between atoms: C_18  and  O_19
REMARK                            x       y       z     vdW  Elec       q    Type
REMARK                         _______ _______ _______ _____ _____    ______ ____
ROOT
ATOM      1  C   UNL     1      45.443   5.871  12.075  0.00  0.00    +0.000 A 
ATOM      2  C   UNL     1      44.198   5.661  12.678  0.00  0.00    +0.000 A 
ATOM      3  C   UNL     1      43.272   4.784  12.119  0.00  0.00    +0.000 A 
ATOM      4  C   UNL     1      43.563   4.125  10.921  0.00  0.00    +0.000 A 
ATOM      5  C   UNL     1      44.799   4.273  10.286  0.00  0.00    +0.000 A 
ATOM      6  C   UNL     1      45.732   5.099  10.931  0.00  0.00    +0.000 A 
ENDROOT
BRANCH   5   7
ATOM      7  N   UNL     1      45.099   3.668   9.080  0.00  0.00    +0.000 N 
ATOM      8  C   UNL     1      45.597   4.441   7.937  0.00  0.00    +0.000 C 
ATOM      9  C   UNL     1      46.914   3.835   7.466  0.00  0.00    +0.000 C 
ATOM     10  C   UNL     1      46.764   2.341   7.179  0.00  0.00    +0.000 C 
ATOM     11  C   UNL     1      46.110   1.589   8.338  0.00  0.00    +0.000 C 
ATOM     12  C   UNL     1      44.821   2.258   8.815  0.00  0.00    +0.000 C 
BRANCH  10  13
ATOM     13  O   UNL     1      46.028   2.138   5.971  0.00  0.00    +0.000 OA
ATOM     14  H   UNL     1      45.606   1.264   6.001  0.00  0.00    +0.000 HD
ENDBRANCH  10  13
ENDBRANCH   5   7
BRANCH   1  15
ATOM     15  C   UNL     1      46.415   6.949  12.550  0.00  0.00    +0.000 C 
ATOM     16  C   UNL     1      46.337   8.308  11.851  0.00  0.00    +0.000 C 
ATOM     17  C   UNL     1      45.863   8.175  13.257  0.00  0.00    +0.000 C 
BRANCH  15  18
ATOM     18  O   UNL     1      47.784   6.565  12.850  0.00  0.00    +0.000 OA
BRANCH  18  23
ATOM     19  C   UNL     1      47.774   5.013  16.138  0.00  0.00    +0.000 A 
ATOM     20  C   UNL     1      48.608   5.896  16.813  0.00  0.00    +0.000 A 
ATOM     21  N   UNL     1      49.199   6.965  16.232  0.00  0.00    +0.000 NA
ATOM     22  C   UNL     1      48.929   7.166  14.920  0.00  0.00    +0.000 A 
ATOM     23  C   UNL     1      48.076   6.364  14.172  0.00  0.00    +0.000 A 
ATOM     24  C   UNL     1      47.515   5.251  14.789  0.00  0.00    +0.000 A 
BRANCH  19  26
ATOM     25  N   UNL     1      46.744   2.984  17.370  0.00  0.00    +0.000 NA
ATOM     26  C   UNL     1      47.202   3.899  16.818  0.00  0.00    +0.000 C 
ENDBRANCH  19  26
ENDBRANCH  18  23
ENDBRANCH  15  18
ENDBRANCH   1  15
TORSDOF 6
ENDMDL
MODEL 4
REMARK VINA RESULT:    -6.561      2.922      7.578
REMARK INTER + INTRA:          -9.512
REMARK INTER:                  -8.538
REMARK INTRA:                  -0.974
REMARK UNBOUND:                -0.841
REMARK  Name = 
REMARK  6 active torsions:
REMARK  status: ('A' for Active; 'I' for Inactive)
REMARK    1  A    between atoms: C_2  and  C_3
REMARK    2  A    between atoms: C_7  and  O_8
REMARK    3  A    between atoms: O_8  and  C_9
REMARK    4  A    between atoms: C_9  and  C_10
REMARK    5  A    between atoms: C_14  and  N_15
REMARK    6  A    between atoms: C_18  and  O_19
REMARK                            x       y       z     vdW  Elec       q    Type
REMARK                         _______ _______ _______ _____ _____    ______ ____
ROOT
ATOM      1  C   UNL     1      47.741   7.716  13.510  0.00  0.00    +0.000 A 
ATOM      2  C   UNL     1      46.888   8.825  13.505  0.00  0.00    +0.000 A 
ATOM      3  C   UNL     1      45.611   8.743  12.954  0.00  0.00    +0.000 A 
ATOM      4  C   UNL     1      45.177   7.553  12.364  0.00  0.00    +0.000 A 
ATOM      5  C   UNL     1      45.973   6.404  12.361  0.00  0.00    +0.000 A 
ATOM      6  C   UNL     1      47.216   6.510  13.004  0.00  0.00    +0.000 A 
ENDROOT
BRANCH   5   7
ATOM      7  N   UNL     1      45.587   5.227  11.748  0.00  0.00    +0.000 N 
ATOM      8  C   UNL     1      45.600   3.948  12.466  0.00  0.00    +0.000 C 
ATOM      9  C   UNL     1      44.216   3.317  12.378  0.00  0.00    +0.000 C 
ATOM     10  C   UNL     1      43.751   3.201  10.926  0.00  0.00    +0.000 C 
ATOM     11  C   UNL     1      43.886   4.521  10.166  0.00  0.00    +0.000 C 
ATOM     12  C   UNL     1      45.272   5.146  10.323  0.00  0.00    +0.000 C 
BRANCH  10  13
ATOM     13  O   UNL     1      44.467   2.162  10.256  0.00  0.00    +0.000 OA
ATOM     14  H   UNL     1      45.377   2.137  10.593  0.00  0.00    +0.000 HD
ENDBRANCH  10  13
ENDBRANCH   5   7
BRANCH   1  15
ATOM     15  C   UNL     1      49.204   7.806  13.939  0.00  0.00    +0.000 C 
ATOM     16  C   UNL     1      50.204   8.300  12.891  0.00  0.00    +0.000 C 
ATOM     17  C   UNL     1      49.855   9.174  14.046  0.00  0.00    +0.000 C 
BRANCH  15  18
ATOM     18  O   UNL     1      49.753   6.740  14.760  0.00  0.00    +0.000 OA
BRANCH  18  23
ATOM     19  C   UNL     1      47.845   4.949  17.284  0.00  0.00    +0.000 A 
ATOM     20  C   UNL     1      47.785   5.928  18.267  0.00  0.00    +0.000 A 
ATOM     21  N   UNL     1      48.368   7.144  18.153  0.00  0.00    +0.000 NA
ATOM     22  C   UNL     1      49.026   7.393  16.996  0.00  0.00    +0.000 A 
ATOM     23  C   UNL     1      49.105   6.494  15.939  0.00  0.00    +0.000 A 
ATOM     24  C   UNL     1      48.528   5.239  16.103  0.00  0.00    +0.000 A 
BRANCH  19  26
ATOM     25  N   UNL     1      46.709   2.651  17.640  0.00  0.00    +0.000 NA
ATOM     26  C   UNL     1      47.217   3.685  17.485  0.00  0.00    +0.000 C 
ENDBRANCH  19  26
ENDBRANCH  18  23
ENDBRANCH  15  18
ENDBRANCH   1  15
TORSDOF 6
ENDMDL
MODEL 5
REMARK VINA RESULT:    -6.340      1.739      2.724
REMARK INTER + INTRA:          -9.220
REMARK INTER:                  -8.730
REMARK INTRA:                  -0.489
REMARK UNBOUND:                -0.841
REMARK  Name = 
REMARK  6 active torsions:
REMARK  status: ('A' for Active; 'I' for Inactive)
REMARK    1  A    between atoms: C_2  and  C_3
REMARK    2  A    between atoms: C_7  and  O_8
REMARK    3  A    between atoms: O_8  and  C_9
REMARK    4  A    between atoms: C_9  and  C_10
REMARK    5  A    between atoms: C_14  and  N_15
REMARK    6  A    between atoms: C_18  and  O_19
REMARK                            x       y       z     vdW  Elec       q    Type
REMARK                         _______ _______ _______ _____ _____    ______ ____
ROOT
ATOM      1  C   UNL     1      44.817   6.466  11.899  0.00  0.00    +0.000 A 
ATOM      2  C   UNL     1      44.306   7.662  11.383  0.00  0.00    +0.000 A 
ATOM      3  C   UNL     1      44.933   8.878  11.642  0.00  0.00    +0.000 A 
ATOM      4  C   UNL     1      46.068   8.923  12.456  0.00  0.00    +0.000 A 
ATOM      5  C   UNL     1      46.642   7.760  12.978  0.00  0.00    +0.000 A 
ATOM      6  C   UNL     1      46.026   6.551  12.619  0.00  0.00    +0.000 A 
ENDROOT
BRANCH   5   7
ATOM      7  N   UNL     1      47.738   7.777  13.819  0.00  0.00    +0.000 N 
ATOM      8  C   UNL     1      48.304   9.035  14.317  0.00  0.00    +0.000 C 
ATOM      9  C   UNL     1      48.349   8.989  15.839  0.00  0.00    +0.000 C 
ATOM     10  C   UNL     1      49.088   7.746  16.334  0.00  0.00    +0.000 C 
ATOM     11  C   UNL     1      48.567   6.463  15.686  0.00  0.00    +0.000 C 
ATOM     12  C   UNL     1      48.487   6.570  14.163  0.00  0.00    +0.000 C 
BRANCH  10  13
ATOM     13  O   UNL     1      50.493   7.882  16.115  0.00  0.00    +0.000 OA
ATOM     14  H   UNL     1      50.798   7.151  15.554  0.00  0.00    +0.000 HD
ENDBRANCH  10  13
ENDBRANCH   5   7
BRANCH   1  15
ATOM     15  C   UNL     1      44.070   5.138  11.791  0.00  0.00    +0.000 C 
ATOM     16  C   UNL     1      42.959   4.884  12.811  0.00  0.00    +0.000 C 
ATOM     17  C   UNL     1      42.606   5.151  11.389  0.00  0.00    +0.000 C 
BRANCH  15  18
ATOM     18  O   UNL     1      44.831   3.935  11.499  0.00  0.00    +0.000 OA
BRANCH  18  23
ATOM     19  C   UNL     1      45.992   2.282   8.476  0.00  0.00    +0.000 A 
ATOM     20  C   UNL     1      46.041   3.375   7.619  0.00  0.00    +0.000 A 
ATOM     21  N   UNL     1      45.682   4.629   7.979  0.00  0.00    +0.000 NA
ATOM     22  C   UNL     1      45.272   4.796   9.259  0.00  0.00    +0.000 A 
ATOM     23  C   UNL     1      45.229   3.775  10.200  0.00  0.00    +0.000 A 
ATOM     24  C   UNL     1      45.568   2.491   9.788  0.00  0.00    +0.000 A 
BRANCH  19  26
ATOM     25  N   UNL     1      46.691  -0.064   7.636  0.00  0.00    +0.000 NA
ATOM     26  C   UNL     1      46.373   0.988   8.016  0.00  0.00    +0.000 C 
ENDBRANCH  19  26
ENDBRANCH  18  23
ENDBRANCH  15  18
ENDBRANCH   1  15
TORSDOF 6
ENDMDL
MODEL 6
REMARK VINA RESULT:    -6.066      2.770      7.804
REMARK INTER + INTRA:          -8.857
REMARK INTER:                  -7.856
REMARK INTRA:                  -1.001
REMARK UNBOUND:                -0.841
REMARK  Name = 
REMARK  6 active torsions:
REMARK  status: ('A' for Active; 'I' for Inactive)
REMARK    1  A    between atoms: C_2  and  C_3
REMARK    2  A    between atoms: C_7  and  O_8
REMARK    3  A    between atoms: O_8  and  C_9
REMARK    4  A    between atoms: C_9  and  C_10
REMARK    5  A    between atoms: C_14  and  N_15
REMARK    6  A    between atoms: C_18  and  O_19
REMARK                            x       y       z     vdW  Elec       q    Type
REMARK                         _______ _______ _______ _____ _____    ______ ____
ROOT
ATOM      1  C   UNL     1      47.623   7.938  12.613  0.00  0.00    +0.000 A 
ATOM      2  C   UNL     1      47.011   9.187  12.460  0.00  0.00    +0.000 A 
ATOM      3  C   UNL     1      45.641   9.289  12.232  0.00  0.00    +0.000 A 
ATOM      4  C   UNL     1      44.861   8.136  12.116  0.00  0.00    +0.000 A 
ATOM      5  C   UNL     1      45.409   6.861  12.286  0.00  0.00    +0.000 A 
ATOM      6  C   UNL     1      46.776   6.811  12.600  0.00  0.00    +0.000 A 
ENDROOT
BRANCH   5   7
ATOM      7  N   UNL     1      44.672   5.702  12.135  0.00  0.00    +0.000 N 
ATOM      8  C   UNL     1      43.520   5.637  11.230  0.00  0.00    +0.000 C 
ATOM      9  C   UNL     1      43.724   4.487  10.251  0.00  0.00    +0.000 C 
ATOM     10  C   UNL     1      44.000   3.176  10.987  0.00  0.00    +0.000 C 
ATOM     11  C   UNL     1      45.113   3.316  12.026  0.00  0.00    +0.000 C 
ATOM     12  C   UNL     1      44.897   4.512  12.954  0.00  0.00    +0.000 C 
BRANCH  10  13
ATOM     13  O   UNL     1      42.805   2.685  11.596  0.00  0.00    +0.000 OA
ATOM     14  H   UNL     1      42.855   1.718  11.657  0.00  0.00    +0.000 HD
ENDBRANCH  10  13
ENDBRANCH   5   7
BRANCH   1  15
ATOM     15  C   UNL     1      49.139   7.769  12.687  0.00  0.00    +0.000 C 
ATOM     16  C   UNL     1      49.884   7.615  11.359  0.00  0.00    +0.000 C 
ATOM     17  C   UNL     1      50.028   8.873  12.144  0.00  0.00    +0.000 C 
BRANCH  15  18
ATOM     18  O   UNL     1      49.692   6.918  13.727  0.00  0.00    +0.000 OA
BRANCH  18  23
ATOM     19  C   UNL     1      48.546   6.674  17.169  0.00  0.00    +0.000 A 
ATOM     20  C   UNL     1      48.845   7.959  17.604  0.00  0.00    +0.000 A 
ATOM     21  N   UNL     1      49.433   8.898  16.827  0.00  0.00    +0.000 NA
ATOM     22  C   UNL     1      49.719   8.536  15.554  0.00  0.00    +0.000 A 
ATOM     23  C   UNL     1      49.421   7.290  15.016  0.00  0.00    +0.000 A 
ATOM     24  C   UNL     1      48.852   6.335  15.851  0.00  0.00    +0.000 A 
BRANCH  19  26
ATOM     25  N   UNL     1      47.456   4.965  18.778  0.00  0.00    +0.000 NA
ATOM     26  C   UNL     1      47.940   5.736  18.054  0.00  0.00    +0.000 C 
ENDBRANCH  19  26
ENDBRANCH  18  23
ENDBRANCH  15  18
ENDBRANCH   1  15
TORSDOF 6
ENDMDL
MODEL 7
REMARK VINA RESULT:    -5.934      3.766      6.003
REMARK INTER + INTRA:          -8.683
REMARK INTER:                  -8.126
REMARK INTRA:                  -0.557
REMARK UNBOUND:                -0.841
REMARK  Name = 
REMARK  6 active torsions:
REMARK  status: ('A' for Active; 'I' for Inactive)
REMARK    1  A    between atoms: C_2  and  C_3
REMARK    2  A    between atoms: C_7  and  O_8
REMARK    3  A    between atoms: O_8  and  C_9
REMARK    4  A    between atoms: C_9  and  C_10
REMARK    5  A    between atoms: C_14  and  N_15
REMARK    6  A    between atoms: C_18  and  O_19
REMARK                            x       y       z     vdW  Elec       q    Type
REMARK                         _______ _______ _______ _____ _____    ______ ____
ROOT
ATOM      1  C   UNL     1      48.349   7.825  14.456  0.00  0.00    +0.000 A 
ATOM      2  C   UNL     1      48.627   9.099  14.964  0.00  0.00    +0.000 A 
ATOM      3  C   UNL     1      48.938   9.280  16.309  0.00  0.00    +0.000 A 
ATOM      4  C   UNL     1      48.943   8.189  17.182  0.00  0.00    +0.000 A 
ATOM      5  C   UNL     1      48.700   6.889  16.730  0.00  0.00    +0.000 A 
ATOM      6  C   UNL     1      48.477   6.744  15.351  0.00  0.00    +0.000 A 
ENDROOT
BRANCH   5   7
ATOM      7  N   UNL     1      48.656   5.797  17.576  0.00  0.00    +0.000 N 
ATOM      8  C   UNL     1      47.385   5.180  17.966  0.00  0.00    +0.000 C 
ATOM      9  C   UNL     1      47.430   3.695  17.624  0.00  0.00    +0.000 C 
ATOM     10  C   UNL     1      48.655   3.022  18.243  0.00  0.00    +0.000 C 
ATOM     11  C   UNL     1      49.950   3.773  17.935  0.00  0.00    +0.000 C 
ATOM     12  C   UNL     1      49.845   5.267  18.242  0.00  0.00    +0.000 C 
BRANCH  10  13
ATOM     13  O   UNL     1      48.484   2.878  19.654  0.00  0.00    +0.000 OA
ATOM     14  H   UNL     1      49.155   3.410  20.110  0.00  0.00    +0.000 HD
ENDBRANCH  10  13
ENDBRANCH   5   7
BRANCH   1  15
ATOM     15  C   UNL     1      47.833   7.600  13.036  0.00  0.00    +0.000 C 
ATOM     16  C   UNL     1      48.503   8.404  11.920  0.00  0.00    +0.000 C 
ATOM     17  C   UNL     1      48.745   6.937  12.019  0.00  0.00    +0.000 C 
BRANCH  15  18
ATOM     18  O   UNL     1      46.400   7.470  12.832  0.00  0.00    +0.000 OA
BRANCH  18  23
ATOM     19  C   UNL     1      45.142   4.646  10.917  0.00  0.00    +0.000 A 
ATOM     20  C   UNL     1      45.018   3.711  11.938  0.00  0.00    +0.000 A 
ATOM     21  N   UNL     1      45.356   3.955  13.225  0.00  0.00    +0.000 NA
ATOM     22  C   UNL     1      45.823   5.196  13.503  0.00  0.00    +0.000 A 
ATOM     23  C   UNL     1      45.943   6.209  12.560  0.00  0.00    +0.000 A 
ATOM     24  C   UNL     1      45.624   5.915  11.239  0.00  0.00    +0.000 A 
BRANCH  19  26
ATOM     25  N   UNL     1      44.493   4.026   8.490  0.00  0.00    +0.000 NA
ATOM     26  C   UNL     1      44.779   4.308   9.581  0.00  0.00    +0.000 C 
ENDBRANCH  19  26
ENDBRANCH  18  23
ENDBRANCH  15  18
ENDBRANCH   1  15
TORSDOF 6
ENDMDL
MODEL 8
REMARK VINA RESULT:    -5.818      3.003      4.663
REMARK INTER + INTRA:          -8.530
REMARK INTER:                  -7.590
REMARK INTRA:                  -0.940
REMARK UNBOUND:                -0.841
REMARK  Name = 
REMARK  6 active torsions:
REMARK  status: ('A' for Active; 'I' for Inactive)
REMARK    1  A    between atoms: C_2  and  C_3
REMARK    2  A    between atoms: C_7  and  O_8
REMARK    3  A    between atoms: O_8  and  C_9
REMARK    4  A    between atoms: C_9  and  C_10
REMARK    5  A    between atoms: C_14  and  N_15
REMARK    6  A    between atoms: C_18  and  O_19
REMARK                            x       y       z     vdW  Elec       q    Type
REMARK                         _______ _______ _______ _____ _____    ______ ____
ROOT
ATOM      1  C   UNL     1      47.193   7.608  12.668  0.00  0.00    +0.000 A 
ATOM      2  C   UNL     1      48.124   7.799  11.641  0.00  0.00    +0.000 A 
ATOM      3  C   UNL     1      49.490   7.675  11.880  0.00  0.00    +0.000 A 
ATOM      4  C   UNL     1      49.953   7.390  13.167  0.00  0.00    +0.000 A 
ATOM      5  C   UNL     1      49.073   7.161  14.229  0.00  0.00    +0.000 A 
ATOM      6  C   UNL     1      47.704   7.212  13.921  0.00  0.00    +0.000 A 
ENDROOT
BRANCH   5   7
ATOM      7  N   UNL     1      49.502   6.918  15.520  0.00  0.00    +0.000 N 
ATOM      8  C   UNL     1      48.649   6.234  16.496  0.00  0.00    +0.000 C 
ATOM      9  C   UNL     1      49.400   5.029  17.051  0.00  0.00    +0.000 C 
ATOM     10  C   UNL     1      50.765   5.436  17.607  0.00  0.00    +0.000 C 
ATOM     11  C   UNL     1      51.572   6.271  16.613  0.00  0.00    +0.000 C 
ATOM     12  C   UNL     1      50.766   7.437  16.041  0.00  0.00    +0.000 C 
BRANCH  10  13
ATOM     13  O   UNL     1      50.611   6.137  18.842  0.00  0.00    +0.000 OA
ATOM     14  H   UNL     1      49.800   6.670  18.804  0.00  0.00    +0.000 HD
ENDBRANCH  10  13
ENDBRANCH   5   7
BRANCH   1  15
ATOM     15  C   UNL     1      45.705   7.905  12.496  0.00  0.00    +0.000 C 
ATOM     16  C   UNL     1      45.246   9.334  12.796  0.00  0.00    +0.000 C 
ATOM     17  C   UNL     1      45.269   8.847  11.388  0.00  0.00    +0.000 C 
BRANCH  15  18
ATOM     18  O   UNL     1      44.743   6.915  12.948  0.00  0.00    +0.000 OA
BRANCH  18  23
ATOM     19  C   UNL     1      44.961   4.290  10.441  0.00  0.00    +0.000 A 
ATOM     20  C   UNL     1      45.124   3.189  11.273  0.00  0.00    +0.000 A 
ATOM     21  N   UNL     1      45.194   3.269  12.622  0.00  0.00    +0.000 NA
ATOM     22  C   UNL     1      45.080   4.507  13.160  0.00  0.00    +0.000 A 
ATOM     23  C   UNL     1      44.874   5.662  12.414  0.00  0.00    +0.000 A 
ATOM     24  C   UNL     1      44.845   5.549  11.029  0.00  0.00    +0.000 A 
BRANCH  19  26
ATOM     25  N   UNL     1      44.878   3.999   7.871  0.00  0.00    +0.000 NA
ATOM     26  C   UNL     1      44.913   4.124   9.026  0.00  0.00    +0.000 C 
ENDBRANCH  19  26
ENDBRANCH  18  23
ENDBRANCH  15  18
ENDBRANCH   1  15
TORSDOF 6
ENDMDL
MODEL 9
REMARK VINA RESULT:    -5.602      3.380      7.558
REMARK INTER + INTRA:          -8.245
REMARK INTER:                  -7.281
REMARK INTRA:                  -0.964
REMARK UNBOUND:                -0.841
REMARK  Name = 
REMARK  6 active torsions:
REMARK  status: ('A' for Active; 'I' for Inactive)
REMARK    1  A    between atoms: C_2  and  C_3
REMARK    2  A    between atoms: C_7  and  O_8
REMARK    3  A    between atoms: O_8  and  C_9
REMARK    4  A    between atoms: C_9  and  C_10
REMARK    5  A    between atoms: C_14  and  N_15
REMARK    6  A    between atoms: C_18  and  O_19
REMARK                            x       y       z     vdW  Elec       q    Type
REMARK                         _______ _______ _______ _____ _____    ______ ____
ROOT
ATOM      1  C   UNL     1      48.969   8.040  14.753  0.00  0.00    +0.000 A 
ATOM      2  C   UNL     1      50.017   8.100  13.828  0.00  0.00    +0.000 A 
ATOM      3  C   UNL     1      49.876   7.563  12.551  0.00  0.00    +0.000 A 
ATOM      4  C   UNL     1      48.689   6.921  12.187  0.00  0.00    +0.000 A 
ATOM      5  C   UNL     1      47.597   6.853  13.056  0.00  0.00    +0.000 A 
ATOM      6  C   UNL     1      47.755   7.483  14.301  0.00  0.00    +0.000 A 
ENDROOT
BRANCH   5   7
ATOM      7  N   UNL     1      46.427   6.189  12.740  0.00  0.00    +0.000 N 
ATOM      8  C   UNL     1      45.589   6.607  11.612  0.00  0.00    +0.000 C 
ATOM      9  C   UNL     1      45.379   5.417  10.683  0.00  0.00    +0.000 C 
ATOM     10  C   UNL     1      44.826   4.212  11.445  0.00  0.00    +0.000 C 
ATOM     11  C   UNL     1      45.644   3.891  12.696  0.00  0.00    +0.000 C 
ATOM     12  C   UNL     1      45.876   5.121  13.573  0.00  0.00    +0.000 C 
BRANCH  10  13
ATOM     13  O   UNL     1      43.454   4.422  11.783  0.00  0.00    +0.000 OA
ATOM     14  H   UNL     1      43.241   3.904  12.575  0.00  0.00    +0.000 HD
ENDBRANCH  10  13
ENDBRANCH   5   7
BRANCH   1  15
ATOM     15  C   UNL     1      49.136   8.453  16.214  0.00  0.00    +0.000 C 
ATOM     16  C   UNL     1      49.566   9.897  16.479  0.00  0.00    +0.000 C 
ATOM     17  C   UNL     1      48.176   9.471  16.803  0.00  0.00    +0.000 C 
BRANCH  15  18
ATOM     18  O   UNL     1      49.764   7.518  17.132  0.00  0.00    +0.000 OA
BRANCH  18  23
ATOM     19  C   UNL     1      48.703   4.040  17.192  0.00  0.00    +0.000 A 
ATOM     20  C   UNL     1      47.612   4.146  18.046  0.00  0.00    +0.000 A 
ATOM     21  N   UNL     1      47.223   5.303  18.629  0.00  0.00    +0.000 NA
ATOM     22  C   UNL     1      47.951   6.405  18.328  0.00  0.00    +0.000 A 
ATOM     23  C   UNL     1      49.031   6.408  17.454  0.00  0.00    +0.000 A 
ATOM     24  C   UNL     1      49.429   5.195  16.902  0.00  0.00    +0.000 A 
BRANCH  19  26
ATOM     25  N   UNL     1      49.343   1.747  16.178  0.00  0.00    +0.000 NA
ATOM     26  C   UNL     1      49.060   2.780  16.630  0.00  0.00    +0.000 C 
ENDBRANCH  19  26
ENDBRANCH  18  23
ENDBRANCH  15  18
ENDBRANCH   1  15
TORSDOF 6
ENDMDL
