MODEL 1
REMARK VINA RESULT:    -8.229      0.000      0.000
REMARK INTER + INTRA:         -10.847
REMARK INTER:                 -10.153
REMARK INTRA:                  -0.694
REMARK UNBOUND:                -0.694
REMARK  Name = 
REMARK  4 active torsions:
REMARK  status: ('A' for Active; 'I' for Inactive)
REMARK    1  A    between atoms: C_2  and  C_4
REMARK    2  A    between atoms: C_7  and  C_8
REMARK    3  A    between atoms: C_8  and  C_9
REMARK    4  A    between atoms: C_9  and  C_10
REMARK                            x       y       z     vdW  Elec       q    Type
REMARK                         _______ _______ _______ _____ _____    ______ ____
ROOT
ATOM      1  C   UNL     1      46.362   2.292   7.838  0.00  0.00    +0.000 A 
ATOM      2  C   UNL     1      46.363   3.662   7.615  0.00  0.00    +0.000 A 
ATOM      3  C   UNL     1      45.503   4.456   8.370  0.00  0.00    +0.000 A 
ATOM      4  C   UNL     1      44.642   3.871   9.304  0.00  0.00    +0.000 A 
ATOM      5  C   UNL     1      44.726   2.483   9.450  0.00  0.00    +0.000 A 
ATOM      6  N   UNL     1      45.556   1.677   8.746  0.00  0.00    +0.000 NA
ENDROOT
BRANCH   1   8
ATOM      7  N   UNL     1      48.410   2.051   6.557  0.00  0.00    +0.000 N 
ATOM      8  C   UNL     1      47.312   1.418   7.075  0.00  0.00    +0.000 C 
ATOM      9  O   UNL     1      47.126   0.218   6.913  0.00  0.00    +0.000 OA
ATOM     10  H   UNL     1      49.078   1.527   6.013  0.00  0.00    +0.000 HD
ATOM     11  H   UNL     1      48.521   3.049   6.695  0.00  0.00    +0.000 HD
ENDBRANCH   1   8
BRANCH   4  12
ATOM     12  C   UNL     1      43.738   4.662  10.224  0.00  0.00    +0.000 C 
BRANCH  12  13
ATOM     13  C   UNL     1      44.118   4.643  11.703  0.00  0.00    +0.000 C 
ATOM     14  C   UNL     1      43.516   3.548  12.574  0.00  0.00    +0.000 C 
ATOM     15  C   UNL     1      43.001   4.945  12.706  0.00  0.00    +0.000 C 
BRANCH  13  16
ATOM     16  C   UNL     1      45.477   5.240  12.074  0.00  0.00    +0.000 A 
ATOM     17  C   UNL     1      45.985   6.365  11.401  0.00  0.00    +0.000 A 
ATOM     18  C   UNL     1      47.189   6.962  11.782  0.00  0.00    +0.000 A 
ATOM     19  C   UNL     1      47.922   6.435  12.841  0.00  0.00    +0.000 A 
ATOM     20  C   UNL     1      47.455   5.310  13.510  0.00  0.00    +0.000 A 
ATOM     21  C   UNL     1      46.247   4.725  13.131  0.00  0.00    +0.000 A 
ENDBRANCH  13  16
ENDBRANCH  12  13
ENDBRANCH   4  12
TORSDOF 4
ENDMDL
MODEL 2
REMARK VINA RESULT:    -6.544      3.900      5.972
REMARK INTER + INTRA:          -8.768
REMARK INTER:                  -8.220
REMARK INTRA:                  -0.549
REMARK UNBOUND:                -0.694
REMARK  Name = 
REMARK  4 active torsions:
REMARK  status: ('A' for Active; 'I' for Inactive)
REMARK    1  A    between atoms: C_2  and  C_4
REMARK    2  A    between atoms: C_7  and  C_8
REMARK    3  A    between atoms: C_8  and  C_9
REMARK    4  A    between atoms: C_9  and  C_10
REMARK                            x       y       z     vdW  Elec       q    Type
REMARK                         _______ _______ _______ _____ _____    ______ ____
ROOT
ATOM      1  C   UNL     1      48.462   6.648  13.743  0.00  0.00    +0.000 A 
ATOM      2  C   UNL     1      47.764   7.056  12.615  0.00  0.00    +0.000 A 
ATOM      3  C   UNL     1      46.592   6.380  12.281  0.00  0.00    +0.000 A 
ATOM      4  C   UNL     1      46.158   5.299  13.054  0.00  0.00    +0.000 A 
ATOM      5  C   UNL     1      46.935   4.975  14.171  0.00  0.00    +0.000 A 
ATOM      6  N   UNL     1      48.072   5.614  14.537  0.00  0.00    +0.000 NA
ENDROOT
BRANCH   1   8
ATOM      7  N   UNL     1      50.565   7.700  13.141  0.00  0.00    +0.000 N 
ATOM      8  C   UNL     1      49.699   7.389  14.155  0.00  0.00    +0.000 C 
ATOM      9  O   UNL     1      49.934   7.694  15.317  0.00  0.00    +0.000 OA
ATOM     10  H   UNL     1      51.428   8.178  13.351  0.00  0.00    +0.000 HD
ATOM     11  H   UNL     1      50.346   7.415  12.193  0.00  0.00    +0.000 HD
ENDBRANCH   1   8
BRANCH   4  12
ATOM     12  C   UNL     1      44.858   4.563  12.815  0.00  0.00    +0.000 C 
BRANCH  12  13
ATOM     13  C   UNL     1      44.157   4.869  11.494  0.00  0.00    +0.000 C 
ATOM     14  C   UNL     1      43.505   6.236  11.337  0.00  0.00    +0.000 C 
ATOM     15  C   UNL     1      42.636   5.038  11.542  0.00  0.00    +0.000 C 
BRANCH  13  16
ATOM     16  C   UNL     1      44.670   4.131  10.255  0.00  0.00    +0.000 A 
ATOM     17  C   UNL     1      45.315   4.819   9.213  0.00  0.00    +0.000 A 
ATOM     18  C   UNL     1      45.852   4.145   8.114  0.00  0.00    +0.000 A 
ATOM     19  C   UNL     1      45.741   2.760   8.026  0.00  0.00    +0.000 A 
ATOM     20  C   UNL     1      45.089   2.056   9.031  0.00  0.00    +0.000 A 
ATOM     21  C   UNL     1      44.564   2.734  10.131  0.00  0.00    +0.000 A 
ENDBRANCH  13  16
ENDBRANCH  12  13
ENDBRANCH   4  12
TORSDOF 4
ENDMDL
MODEL 3
REMARK VINA RESULT:    -6.001      3.980      6.179
REMARK INTER + INTRA:          -8.099
REMARK INTER:                  -8.118
REMARK INTRA:                   0.020
REMARK UNBOUND:                -0.694
REMARK  Name = 
REMARK  4 active torsions:
REMARK  status: ('A' for Active; 'I' for Inactive)
REMARK    1  A    between atoms: C_2  and  C_4
REMARK    2  A    between atoms: C_7  and  C_8
REMARK    3  A    between atoms: C_8  and  C_9
REMARK    4  A    between atoms: C_9  and  C_10
REMARK                            x       y       z     vdW  Elec       q    Type
REMARK                         _______ _______ _______ _____ _____    ______ ____
ROOT
ATOM      1  C   UNL     1      46.523   7.804  12.633  0.00  0.00    +0.000 A 
ATOM      2  C   UNL     1      47.183   7.067  11.660  0.00  0.00    +0.000 A 
ATOM      3  C   UNL     1      46.439   6.182  10.882  0.00  0.00    +0.000 A 
ATOM      4  C   UNL     1      45.068   6.027  11.108  0.00  0.00    +0.000 A 
ATOM      5  C   UNL     1      44.505   6.822  12.111  0.00  0.00    +0.000 A 
ATOM      6  N   UNL     1      45.189   7.703  12.880  0.00  0.00    +0.000 NA
ENDROOT
BRANCH   1   8
ATOM      7  N   UNL     1      47.529   8.438  14.750  0.00  0.00    +0.000 N 
ATOM      8  C   UNL     1      47.289   8.800  13.452  0.00  0.00    +0.000 C 
ATOM      9  O   UNL     1      47.672   9.873  13.004  0.00  0.00    +0.000 OA
ATOM     10  H   UNL     1      48.019   9.071  15.363  0.00  0.00    +0.000 HD
ATOM     11  H   UNL     1      47.181   7.549  15.092  0.00  0.00    +0.000 HD
ENDBRANCH   1   8
BRANCH   4  12
ATOM     12  C   UNL     1      44.170   5.156  10.258  0.00  0.00    +0.000 C 
BRANCH  12  13
ATOM     13  C   UNL     1      44.495   3.664  10.265  0.00  0.00    +0.000 C 
ATOM     14  C   UNL     1      43.559   2.737  11.030  0.00  0.00    +0.000 C 
ATOM     15  C   UNL     1      44.900   3.052  11.610  0.00  0.00    +0.000 C 
BRANCH  13  16
ATOM     16  C   UNL     1      45.278   3.123   9.066  0.00  0.00    +0.000 A 
ATOM     17  C   UNL     1      45.779   3.986   8.076  0.00  0.00    +0.000 A 
ATOM     18  C   UNL     1      46.557   3.511   7.018  0.00  0.00    +0.000 A 
ATOM     19  C   UNL     1      46.839   2.151   6.919  0.00  0.00    +0.000 A 
ATOM     20  C   UNL     1      46.338   1.272   7.871  0.00  0.00    +0.000 A 
ATOM     21  C   UNL     1      45.570   1.755   8.931  0.00  0.00    +0.000 A 
ENDBRANCH  13  16
ENDBRANCH  12  13
ENDBRANCH   4  12
TORSDOF 4
ENDMDL
MODEL 4
REMARK VINA RESULT:    -5.952      3.881      6.396
REMARK INTER + INTRA:          -8.038
REMARK INTER:                  -8.280
REMARK INTRA:                   0.242
REMARK UNBOUND:                -0.694
REMARK  Name = 
REMARK  4 active torsions:
REMARK  status: ('A' for Active; 'I' for Inactive)
REMARK    1  A    between atoms: C_2  and  C_4
REMARK    2  A    between atoms: C_7  and  C_8
REMARK    3  A    between atoms: C_8  and  C_9
REMARK    4  A    between atoms: C_9  and  C_10
REMARK                            x       y       z     vdW  Elec       q    Type
REMARK                         _______ _______ _______ _____ _____    ______ ____
ROOT
ATOM      1  C   UNL     1      47.590   4.071  15.618  0.00  0.00    +0.000 A 
ATOM      2  C   UNL     1      47.897   5.424  15.646  0.00  0.00    +0.000 A 
ATOM      3  C   UNL     1      47.751   6.161  14.473  0.00  0.00    +0.000 A 
ATOM      4  C   UNL     1      47.335   5.533  13.295  0.00  0.00    +0.000 A 
ATOM      5  C   UNL     1      47.048   4.167  13.380  0.00  0.00    +0.000 A 
ATOM      6  N   UNL     1      47.165   3.418  14.503  0.00  0.00    +0.000 NA
ENDROOT
BRANCH   1   8
ATOM      7  N   UNL     1      48.961   2.964  17.288  0.00  0.00    +0.000 N 
ATOM      8  C   UNL     1      47.690   3.264  16.878  0.00  0.00    +0.000 C 
ATOM      9  O   UNL     1      46.708   2.885  17.504  0.00  0.00    +0.000 OA
ATOM     10  H   UNL     1      49.101   2.404  18.115  0.00  0.00    +0.000 HD
ATOM     11  H   UNL     1      49.751   3.278  16.735  0.00  0.00    +0.000 HD
ENDBRANCH   1   8
BRANCH   4  12
ATOM     12  C   UNL     1      47.069   6.269  12.000  0.00  0.00    +0.000 C 
BRANCH  12  13
ATOM     13  C   UNL     1      45.638   6.184  11.472  0.00  0.00    +0.000 C 
ATOM     14  C   UNL     1      44.843   7.479  11.370  0.00  0.00    +0.000 C 
ATOM     15  C   UNL     1      44.516   6.511  12.461  0.00  0.00    +0.000 C 
BRANCH  13  16
ATOM     16  C   UNL     1      45.322   5.027  10.521  0.00  0.00    +0.000 A 
ATOM     17  C   UNL     1      44.577   3.915  10.950  0.00  0.00    +0.000 A 
ATOM     18  C   UNL     1      44.221   2.890  10.070  0.00  0.00    +0.000 A 
ATOM     19  C   UNL     1      44.617   2.950   8.737  0.00  0.00    +0.000 A 
ATOM     20  C   UNL     1      45.373   4.026   8.290  0.00  0.00    +0.000 A 
ATOM     21  C   UNL     1      45.717   5.052   9.171  0.00  0.00    +0.000 A 
ENDBRANCH  13  16
ENDBRANCH  12  13
ENDBRANCH   4  12
TORSDOF 4
ENDMDL
MODEL 5
REMARK VINA RESULT:    -5.930      3.636      6.264
REMARK INTER + INTRA:          -8.011
REMARK INTER:                  -8.078
REMARK INTRA:                   0.067
REMARK UNBOUND:                -0.694
REMARK  Name = 
REMARK  4 active torsions:
REMARK  status: ('A' for Active; 'I' for Inactive)
REMARK    1  A    between atoms: C_2  and  C_4
REMARK    2  A    between atoms: C_7  and  C_8
REMARK    3  A    between atoms: C_8  and  C_9
REMARK    4  A    between atoms: C_9  and  C_10
REMARK                            x       y       z     vdW  Elec       q    Type
REMARK                         _______ _______ _______ _____ _____    ______ ____
ROOT
ATOM      1  C   UNL     1      47.142   4.737  14.435  0.00  0.00    +0.000 A 
ATOM      2  C   UNL     1      46.507   5.657  13.612  0.00  0.00    +0.000 A 
ATOM      3  C   UNL     1      45.784   5.181  12.521  0.00  0.00    +0.000 A 
ATOM      4  C   UNL     1      45.734   3.810  12.253  0.00  0.00    +0.000 A 
ATOM      5  C   UNL     1      46.407   2.972  13.148  0.00  0.00    +0.000 A 
ATOM      6  N   UNL     1      47.109   3.393  14.227  0.00  0.00    +0.000 NA
ENDROOT
BRANCH   1   8
ATOM      7  N   UNL     1      47.362   4.833  16.850  0.00  0.00    +0.000 N 
ATOM      8  C   UNL     1      47.886   5.217  15.645  0.00  0.00    +0.000 C 
ATOM      9  O   UNL     1      48.891   5.912  15.574  0.00  0.00    +0.000 OA
ATOM     10  H   UNL     1      47.799   5.140  17.705  0.00  0.00    +0.000 HD
ATOM     11  H   UNL     1      46.518   4.272  16.871  0.00  0.00    +0.000 HD
ENDBRANCH   1   8
BRANCH   4  12
ATOM     12  C   UNL     1      44.907   3.200  11.143  0.00  0.00    +0.000 C 
BRANCH  12  13
ATOM     13  C   UNL     1      45.065   3.845   9.768  0.00  0.00    +0.000 C 
ATOM     14  C   UNL     1      45.129   5.365   9.701  0.00  0.00    +0.000 C 
ATOM     15  C   UNL     1      43.883   4.672   9.254  0.00  0.00    +0.000 C 
BRANCH  13  16
ATOM     16  C   UNL     1      45.766   3.012   8.692  0.00  0.00    +0.000 A 
ATOM     17  C   UNL     1      46.476   3.625   7.646  0.00  0.00    +0.000 A 
ATOM     18  C   UNL     1      47.181   2.874   6.702  0.00  0.00    +0.000 A 
ATOM     19  C   UNL     1      47.179   1.484   6.779  0.00  0.00    +0.000 A 
ATOM     20  C   UNL     1      46.468   0.851   7.789  0.00  0.00    +0.000 A 
ATOM     21  C   UNL     1      45.774   1.607   8.735  0.00  0.00    +0.000 A 
ENDBRANCH  13  16
ENDBRANCH  12  13
ENDBRANCH   4  12
TORSDOF 4
ENDMDL
MODEL 6
REMARK VINA RESULT:    -5.738      4.202      6.585
REMARK INTER + INTRA:          -7.774
REMARK INTER:                  -7.816
REMARK INTRA:                   0.042
REMARK UNBOUND:                -0.694
REMARK  Name = 
REMARK  4 active torsions:
REMARK  status: ('A' for Active; 'I' for Inactive)
REMARK    1  A    between atoms: C_2  and  C_4
REMARK    2  A    between atoms: C_7  and  C_8
REMARK    3  A    between atoms: C_8  and  C_9
REMARK    4  A    between atoms: C_9  and  C_10
REMARK                            x       y       z     vdW  Elec       q    Type
REMARK                         _______ _______ _______ _____ _____    ______ ____
ROOT
ATOM      1  C   UNL     1      47.833   4.453  15.840  0.00  0.00    +0.000 A 
ATOM      2  C   UNL     1      47.097   3.710  14.928  0.00  0.00    +0.000 A 
ATOM      3  C   UNL     1      46.800   4.284  13.693  0.00  0.00    +0.000 A 
ATOM      4  C   UNL     1      47.211   5.590  13.407  0.00  0.00    +0.000 A 
ATOM      5  C   UNL     1      47.949   6.245  14.397  0.00  0.00    +0.000 A 
ATOM      6  N   UNL     1      48.271   5.719  15.603  0.00  0.00    +0.000 NA
ENDROOT
BRANCH   1   8
ATOM      7  N   UNL     1      47.217   3.149  17.794  0.00  0.00    +0.000 N 
ATOM      8  C   UNL     1      48.211   3.842  17.156  0.00  0.00    +0.000 C 
ATOM      9  O   UNL     1      49.329   3.954  17.644  0.00  0.00    +0.000 OA
ATOM     10  H   UNL     1      47.396   2.732  18.694  0.00  0.00    +0.000 HD
ATOM     11  H   UNL     1      46.298   3.093  17.369  0.00  0.00    +0.000 HD
ENDBRANCH   1   8
BRANCH   4  12
ATOM     12  C   UNL     1      47.005   6.259  12.066  0.00  0.00    +0.000 C 
BRANCH  12  13
ATOM     13  C   UNL     1      45.581   6.222  11.518  0.00  0.00    +0.000 C 
ATOM     14  C   UNL     1      44.825   7.540  11.415  0.00  0.00    +0.000 C 
ATOM     15  C   UNL     1      44.455   6.575  12.495  0.00  0.00    +0.000 C 
BRANCH  13  16
ATOM     16  C   UNL     1      45.243   5.082  10.554  0.00  0.00    +0.000 A 
ATOM     17  C   UNL     1      45.648   5.124   9.208  0.00  0.00    +0.000 A 
ATOM     18  C   UNL     1      45.409   4.056   8.340  0.00  0.00    +0.000 A 
ATOM     19  C   UNL     1      44.743   2.923   8.799  0.00  0.00    +0.000 A 
ATOM     20  C   UNL     1      44.312   2.863  10.118  0.00  0.00    +0.000 A 
ATOM     21  C   UNL     1      44.563   3.929  10.983  0.00  0.00    +0.000 A 
ENDBRANCH  13  16
ENDBRANCH  12  13
ENDBRANCH   4  12
TORSDOF 4
ENDMDL
MODEL 7
REMARK VINA RESULT:    -5.569      3.059      5.040
REMARK INTER + INTRA:          -7.566
REMARK INTER:                  -7.078
REMARK INTRA:                  -0.489
REMARK UNBOUND:                -0.694
REMARK  Name = 
REMARK  4 active torsions:
REMARK  status: ('A' for Active; 'I' for Inactive)
REMARK    1  A    between atoms: C_2  and  C_4
REMARK    2  A    between atoms: C_7  and  C_8
REMARK    3  A    between atoms: C_8  and  C_9
REMARK    4  A    between atoms: C_9  and  C_10
REMARK                            x       y       z     vdW  Elec       q    Type
REMARK                         _______ _______ _______ _____ _____    ______ ____
ROOT
ATOM      1  C   UNL     1      44.404   4.207  11.365  0.00  0.00    +0.000 A 
ATOM      2  C   UNL     1      45.167   4.909  10.442  0.00  0.00    +0.000 A 
ATOM      3  C   UNL     1      45.738   6.117  10.837  0.00  0.00    +0.000 A 
ATOM      4  C   UNL     1      45.513   6.614  12.124  0.00  0.00    +0.000 A 
ATOM      5  C   UNL     1      44.733   5.824  12.974  0.00  0.00    +0.000 A 
ATOM      6  N   UNL     1      44.171   4.639  12.634  0.00  0.00    +0.000 NA
ENDROOT
BRANCH   1   8
ATOM      7  N   UNL     1      44.410   2.259   9.916  0.00  0.00    +0.000 N 
ATOM      8  C   UNL     1      43.820   2.880  10.984  0.00  0.00    +0.000 C 
ATOM      9  O   UNL     1      42.872   2.378  11.574  0.00  0.00    +0.000 OA
ATOM     10  H   UNL     1      44.052   1.374   9.592  0.00  0.00    +0.000 HD
ATOM     11  H   UNL     1      45.182   2.713   9.439  0.00  0.00    +0.000 HD
ENDBRANCH   1   8
BRANCH   4  12
ATOM     12  C   UNL     1      46.160   7.871  12.664  0.00  0.00    +0.000 C 
BRANCH  12  13
ATOM     13  C   UNL     1      47.670   7.799  12.880  0.00  0.00    +0.000 C 
ATOM     14  C   UNL     1      48.278   6.436  13.184  0.00  0.00    +0.000 C 
ATOM     15  C   UNL     1      48.149   7.435  14.288  0.00  0.00    +0.000 C 
BRANCH  13  16
ATOM     16  C   UNL     1      48.518   8.864  12.181  0.00  0.00    +0.000 A 
ATOM     17  C   UNL     1      49.837   8.595  11.777  0.00  0.00    +0.000 A 
ATOM     18  C   UNL     1      50.592   9.535  11.073  0.00  0.00    +0.000 A 
ATOM     19  C   UNL     1      50.045  10.779  10.770  0.00  0.00    +0.000 A 
ATOM     20  C   UNL     1      48.752  11.081  11.176  0.00  0.00    +0.000 A 
ATOM     21  C   UNL     1      47.999  10.133  11.870  0.00  0.00    +0.000 A 
ENDBRANCH  13  16
ENDBRANCH  12  13
ENDBRANCH   4  12
TORSDOF 4
ENDMDL
MODEL 8
REMARK VINA RESULT:    -5.289      3.916      5.992
REMARK INTER + INTRA:          -7.220
REMARK INTER:                  -6.572
REMARK INTRA:                  -0.648
REMARK UNBOUND:                -0.694
REMARK  Name = 
REMARK  4 active torsions:
REMARK  status: ('A' for Active; 'I' for Inactive)
REMARK    1  A    between atoms: C_2  and  C_4
REMARK    2  A    between atoms: C_7  and  C_8
REMARK    3  A    between atoms: C_8  and  C_9
REMARK    4  A    between atoms: C_9  and  C_10
REMARK                            x       y       z     vdW  Elec       q    Type
REMARK                         _______ _______ _______ _____ _____    ______ ____
ROOT
ATOM      1  C   UNL     1      44.433   5.553  11.988  0.00  0.00    +0.000 A 
ATOM      2  C   UNL     1      45.180   6.233  11.036  0.00  0.00    +0.000 A 
ATOM      3  C   UNL     1      46.511   6.528  11.325  0.00  0.00    +0.000 A 
ATOM      4  C   UNL     1      47.059   6.170  12.560  0.00  0.00    +0.000 A 
ATOM      5  C   UNL     1      46.219   5.486  13.444  0.00  0.00    +0.000 A 
ATOM      6  N   UNL     1      44.925   5.168  13.197  0.00  0.00    +0.000 NA
ENDROOT
BRANCH   1   8
ATOM      7  N   UNL     1      42.105   6.200  11.756  0.00  0.00    +0.000 N 
ATOM      8  C   UNL     1      43.013   5.178  11.685  0.00  0.00    +0.000 C 
ATOM      9  O   UNL     1      42.674   4.037  11.400  0.00  0.00    +0.000 OA
ATOM     10  H   UNL     1      41.129   6.014  11.586  0.00  0.00    +0.000 HD
ATOM     11  H   UNL     1      42.419   7.130  12.013  0.00  0.00    +0.000 HD
ENDBRANCH   1   8
BRANCH   4  12
ATOM     12  C   UNL     1      48.513   6.375  12.925  0.00  0.00    +0.000 C 
BRANCH  12  13
ATOM     13  C   UNL     1      48.873   7.758  13.463  0.00  0.00    +0.000 C 
ATOM     14  C   UNL     1      48.722   8.946  12.522  0.00  0.00    +0.000 C 
ATOM     15  C   UNL     1      50.093   8.444  12.842  0.00  0.00    +0.000 C 
BRANCH  13  16
ATOM     16  C   UNL     1      48.732   7.968  14.972  0.00  0.00    +0.000 A 
ATOM     17  C   UNL     1      48.267   9.186  15.497  0.00  0.00    +0.000 A 
ATOM     18  C   UNL     1      48.065   9.362  16.867  0.00  0.00    +0.000 A 
ATOM     19  C   UNL     1      48.339   8.321  17.749  0.00  0.00    +0.000 A 
ATOM     20  C   UNL     1      48.822   7.113  17.262  0.00  0.00    +0.000 A 
ATOM     21  C   UNL     1      49.011   6.940  15.890  0.00  0.00    +0.000 A 
ENDBRANCH  13  16
ENDBRANCH  12  13
ENDBRANCH   4  12
TORSDOF 4
ENDMDL
