MODEL 1
REMARK VINA RESULT:    -7.560      0.000      0.000
REMARK INTER + INTRA:         -11.364
REMARK INTER:                 -10.212
REMARK INTRA:                  -1.153
REMARK UNBOUND:                -1.153
REMARK  Name = 
REMARK  7 active torsions:
REMARK  status: ('A' for Active; 'I' for Inactive)
REMARK    1  A    between atoms: C_1  and  C_2
REMARK    2  A    between atoms: C_2  and  N_3
REMARK    3  A    between atoms: C_2  and  C_12
REMARK    4  A    between atoms: C_4  and  C_6
REMARK    5  A    between atoms: C_15  and  C_16
REMARK    6  A    between atoms: C_16  and  N_17
REMARK    7  A    between atoms: C_18  and  C_20
REMARK                            x       y       z     vdW  Elec       q    Type
REMARK                         _______ _______ _______ _____ _____    ______ ____
ROOT
ATOM      1  C   UNL     1      47.759   5.883  14.510  0.00  0.00    +0.000 A 
ATOM      2  C   UNL     1      47.025   4.695  14.549  0.00  0.00    +0.000 A 
ATOM      3  C   UNL     1      47.170   3.835  15.642  0.00  0.00    +0.000 A 
ATOM      4  C   UNL     1      48.026   4.177  16.689  0.00  0.00    +0.000 A 
ATOM      5  C   UNL     1      48.697   5.389  16.581  0.00  0.00    +0.000 A 
ATOM      6  N   UNL     1      48.576   6.243  15.533  0.00  0.00    +0.000 NA
ENDROOT
BRANCH   1   8
ATOM      7  C   UNL     1      49.143   6.899  12.692  0.00  0.00    +0.000 C 
ATOM      8  C   UNL     1      47.730   6.799  13.281  0.00  0.00    +0.000 C 
BRANCH   8   9
ATOM      9  N   UNL     1      46.732   6.356  12.302  0.00  0.00    +0.000 N 
ATOM     10  C   UNL     1      45.460   6.922  12.230  0.00  0.00    +0.000 C 
ATOM     11  O   UNL     1      45.099   7.871  12.918  0.00  0.00    +0.000 OA
ATOM     12  H   UNL     1      46.778   5.376  12.053  0.00  0.00    +0.000 HD
BRANCH  10  13
ATOM     13  C   UNL     1      44.538   6.214  11.196  0.00  0.00    +0.000 C 
ATOM     14  C   UNL     1      45.044   4.846  10.715  0.00  0.00    +0.000 C 
ATOM     15  C   UNL     1      44.827   3.711  11.715  0.00  0.00    +0.000 C 
ATOM     16  C   UNL     1      43.444   3.749  12.357  0.00  0.00    +0.000 C 
ATOM     17  C   UNL     1      43.045   5.151  12.798  0.00  0.00    +0.000 C 
ATOM     18  N   UNL     1      43.150   6.119  11.705  0.00  0.00    +0.000 NA
ATOM     19  H   UNL     1      42.859   7.031  12.051  0.00  0.00    +0.000 HD
ENDBRANCH  10  13
ENDBRANCH   8   9
ENDBRANCH   1   8
BRANCH   4  20
ATOM     20  C   UNL     1      48.255   3.266  17.863  0.00  0.00    +0.000 C 
BRANCH  20  21
ATOM     21  N   UNL     1      49.659   3.013  18.081  0.00  0.00    +0.000 N 
ATOM     22  C   UNL     1      50.378   2.210  17.229  0.00  0.00    +0.000 C 
ATOM     23  O   UNL     1      49.872   1.723  16.221  0.00  0.00    +0.000 OA
ATOM     24  H   UNL     1      50.036   3.213  19.003  0.00  0.00    +0.000 HD
BRANCH  22  25
ATOM     25  C   UNL     1      51.799   2.005  17.547  0.00  0.00    +0.000 A 
ATOM     26  C   UNL     1      52.288   0.713  17.705  0.00  0.00    +0.000 A 
ATOM     27  S   UNL     1      53.960   0.649  18.036  0.00  0.00    +0.000 S 
ATOM     28  C   UNL     1      54.083   2.345  18.037  0.00  0.00    +0.000 A 
ATOM     29  N   UNL     1      55.265   2.963  18.294  0.00  0.00    +0.000 NA
ATOM     30  C   UNL     1      55.204   4.254  18.300  0.00  0.00    +0.000 A 
ATOM     31  N   UNL     1      54.069   4.981  18.057  0.00  0.00    +0.000 N 
ATOM     32  C   UNL     1      52.861   4.401  17.749  0.00  0.00    +0.000 A 
ATOM     33  O   UNL     1      51.873   5.080  17.480  0.00  0.00    +0.000 OA
ATOM     34  C   UNL     1      52.871   2.951  17.759  0.00  0.00    +0.000 A 
ATOM     35  H   UNL     1      54.092   5.991  18.064  0.00  0.00    +0.000 HD
ENDBRANCH  22  25
ENDBRANCH  20  21
ENDBRANCH   4  20
TORSDOF 6
ENDMDL
MODEL 2
REMARK VINA RESULT:    -7.503      3.331      8.918
REMARK INTER + INTRA:         -11.287
REMARK INTER:                 -10.107
REMARK INTRA:                  -1.180
REMARK UNBOUND:                -1.153
REMARK  Name = 
REMARK  7 active torsions:
REMARK  status: ('A' for Active; 'I' for Inactive)
REMARK    1  A    between atoms: C_1  and  C_2
REMARK    2  A    between atoms: C_2  and  N_3
REMARK    3  A    between atoms: C_2  and  C_12
REMARK    4  A    between atoms: C_4  and  C_6
REMARK    5  A    between atoms: C_15  and  C_16
REMARK    6  A    between atoms: C_16  and  N_17
REMARK    7  A    between atoms: C_18  and  C_20
REMARK                            x       y       z     vdW  Elec       q    Type
REMARK                         _______ _______ _______ _____ _____    ______ ____
ROOT
ATOM      1  C   UNL     1      50.016   7.414  15.211  0.00  0.00    +0.000 A 
ATOM      2  C   UNL     1      50.333   8.376  14.249  0.00  0.00    +0.000 A 
ATOM      3  C   UNL     1      49.522   8.509  13.119  0.00  0.00    +0.000 A 
ATOM      4  C   UNL     1      48.396   7.699  12.969  0.00  0.00    +0.000 A 
ATOM      5  C   UNL     1      48.140   6.787  13.986  0.00  0.00    +0.000 A 
ATOM      6  N   UNL     1      48.909   6.636  15.094  0.00  0.00    +0.000 NA
ENDROOT
BRANCH   1   8
ATOM      7  C   UNL     1      51.474   8.479  16.942  0.00  0.00    +0.000 C 
ATOM      8  C   UNL     1      50.938   7.145  16.405  0.00  0.00    +0.000 C 
BRANCH   8   9
ATOM      9  N   UNL     1      50.269   6.341  17.433  0.00  0.00    +0.000 N 
ATOM     10  C   UNL     1      50.590   5.003  17.655  0.00  0.00    +0.000 C 
ATOM     11  O   UNL     1      51.492   4.415  17.071  0.00  0.00    +0.000 OA
ATOM     12  H   UNL     1      49.301   6.583  17.607  0.00  0.00    +0.000 HD
BRANCH  10  13
ATOM     13  C   UNL     1      49.671   4.326  18.713  0.00  0.00    +0.000 C 
ATOM     14  C   UNL     1      48.313   5.013  18.918  0.00  0.00    +0.000 C 
ATOM     15  C   UNL     1      47.292   4.726  17.819  0.00  0.00    +0.000 C 
ATOM     16  C   UNL     1      47.267   3.258  17.409  0.00  0.00    +0.000 C 
ATOM     17  C   UNL     1      48.664   2.678  17.230  0.00  0.00    +0.000 C 
ATOM     18  N   UNL     1      49.498   2.885  18.415  0.00  0.00    +0.000 NA
ATOM     19  H   UNL     1      50.411   2.467  18.246  0.00  0.00    +0.000 HD
ENDBRANCH  10  13
ENDBRANCH   8   9
ENDBRANCH   1   8
BRANCH   4  20
ATOM     20  C   UNL     1      47.518   7.768  11.750  0.00  0.00    +0.000 C 
BRANCH  20  21
ATOM     21  N   UNL     1      46.833   6.520  11.510  0.00  0.00    +0.000 N 
ATOM     22  C   UNL     1      45.466   6.427  11.622  0.00  0.00    +0.000 C 
ATOM     23  O   UNL     1      44.771   7.408  11.871  0.00  0.00    +0.000 OA
ATOM     24  H   UNL     1      47.386   5.669  11.524  0.00  0.00    +0.000 HD
BRANCH  22  25
ATOM     25  C   UNL     1      44.867   5.108  11.371  0.00  0.00    +0.000 A 
ATOM     26  C   UNL     1      44.132   4.486  12.374  0.00  0.00    +0.000 A 
ATOM     27  S   UNL     1      43.477   2.980  11.910  0.00  0.00    +0.000 S 
ATOM     28  C   UNL     1      44.196   3.077  10.371  0.00  0.00    +0.000 A 
ATOM     29  N   UNL     1      44.054   2.074   9.467  0.00  0.00    +0.000 NA
ATOM     30  C   UNL     1      44.685   2.264   8.355  0.00  0.00    +0.000 A 
ATOM     31  N   UNL     1      45.432   3.375   8.062  0.00  0.00    +0.000 N 
ATOM     32  C   UNL     1      45.568   4.434   8.928  0.00  0.00    +0.000 A 
ATOM     33  O   UNL     1      46.197   5.441   8.617  0.00  0.00    +0.000 OA
ATOM     34  C   UNL     1      44.901   4.255  10.204  0.00  0.00    +0.000 A 
ATOM     35  H   UNL     1      45.890   3.466   7.167  0.00  0.00    +0.000 HD
ENDBRANCH  22  25
ENDBRANCH  20  21
ENDBRANCH   4  20
TORSDOF 6
ENDMDL
MODEL 3
REMARK VINA RESULT:    -7.148      1.433      2.166
REMARK INTER + INTRA:         -10.808
REMARK INTER:                  -9.682
REMARK INTRA:                  -1.126
REMARK UNBOUND:                -1.153
REMARK  Name = 
REMARK  7 active torsions:
REMARK  status: ('A' for Active; 'I' for Inactive)
REMARK    1  A    between atoms: C_1  and  C_2
REMARK    2  A    between atoms: C_2  and  N_3
REMARK    3  A    between atoms: C_2  and  C_12
REMARK    4  A    between atoms: C_4  and  C_6
REMARK    5  A    between atoms: C_15  and  C_16
REMARK    6  A    between atoms: C_16  and  N_17
REMARK    7  A    between atoms: C_18  and  C_20
REMARK                            x       y       z     vdW  Elec       q    Type
REMARK                         _______ _______ _______ _____ _____    ______ ____
ROOT
ATOM      1  C   UNL     1      47.546   6.186  13.926  0.00  0.00    +0.000 A 
ATOM      2  C   UNL     1      46.914   4.961  14.153  0.00  0.00    +0.000 A 
ATOM      3  C   UNL     1      47.211   4.241  15.313  0.00  0.00    +0.000 A 
ATOM      4  C   UNL     1      48.115   4.756  16.242  0.00  0.00    +0.000 A 
ATOM      5  C   UNL     1      48.678   5.993  15.950  0.00  0.00    +0.000 A 
ATOM      6  N   UNL     1      48.409   6.714  14.832  0.00  0.00    +0.000 NA
ENDROOT
BRANCH   1   8
ATOM      7  C   UNL     1      48.720   7.371  12.063  0.00  0.00    +0.000 C 
ATOM      8  C   UNL     1      47.350   6.955  12.615  0.00  0.00    +0.000 C 
BRANCH   8   9
ATOM      9  N   UNL     1      46.554   6.185  11.653  0.00  0.00    +0.000 N 
ATOM     10  C   UNL     1      45.257   6.553  11.299  0.00  0.00    +0.000 C 
ATOM     11  O   UNL     1      44.707   7.572  11.700  0.00  0.00    +0.000 OA
ATOM     12  H   UNL     1      46.734   5.189  11.645  0.00  0.00    +0.000 HD
BRANCH  10  13
ATOM     13  C   UNL     1      44.571   5.524  10.354  0.00  0.00    +0.000 C 
ATOM     14  C   UNL     1      45.204   4.125  10.360  0.00  0.00    +0.000 C 
ATOM     15  C   UNL     1      44.839   3.277  11.578  0.00  0.00    +0.000 C 
ATOM     16  C   UNL     1      43.360   3.367  11.936  0.00  0.00    +0.000 C 
ATOM     17  C   UNL     1      42.838   4.798  11.902  0.00  0.00    +0.000 C 
ATOM     18  N   UNL     1      43.116   5.451  10.622  0.00  0.00    +0.000 NA
ATOM     19  H   UNL     1      42.734   6.395  10.650  0.00  0.00    +0.000 HD
ENDBRANCH  10  13
ENDBRANCH   8   9
ENDBRANCH   1   8
BRANCH   4  20
ATOM     20  C   UNL     1      48.505   4.000  17.481  0.00  0.00    +0.000 C 
BRANCH  20  21
ATOM     21  N   UNL     1      49.898   3.620  17.462  0.00  0.00    +0.000 N 
ATOM     22  C   UNL     1      50.771   4.069  18.424  0.00  0.00    +0.000 C 
ATOM     23  O   UNL     1      50.392   4.761  19.367  0.00  0.00    +0.000 OA
ATOM     24  H   UNL     1      50.272   3.245  16.596  0.00  0.00    +0.000 HD
BRANCH  22  25
ATOM     25  C   UNL     1      52.171   3.635  18.307  0.00  0.00    +0.000 A 
ATOM     26  C   UNL     1      53.194   4.532  18.594  0.00  0.00    +0.000 A 
ATOM     27  S   UNL     1      54.755   3.862  18.443  0.00  0.00    +0.000 S 
ATOM     28  C   UNL     1      54.126   2.365  17.935  0.00  0.00    +0.000 A 
ATOM     29  N   UNL     1      54.946   1.334  17.605  0.00  0.00    +0.000 NA
ATOM     30  C   UNL     1      54.333   0.271  17.200  0.00  0.00    +0.000 A 
ATOM     31  N   UNL     1      52.972   0.142  17.112  0.00  0.00    +0.000 N 
ATOM     32  C   UNL     1      52.101   1.142  17.476  0.00  0.00    +0.000 A 
ATOM     33  O   UNL     1      50.885   0.978  17.440  0.00  0.00    +0.000 OA
ATOM     34  C   UNL     1      52.743   2.368  17.910  0.00  0.00    +0.000 A 
ATOM     35  H   UNL     1      52.556  -0.723  16.800  0.00  0.00    +0.000 HD
ENDBRANCH  22  25
ENDBRANCH  20  21
ENDBRANCH   4  20
TORSDOF 6
ENDMDL
MODEL 4
REMARK VINA RESULT:    -6.781      2.958      9.106
REMARK INTER + INTRA:         -10.313
REMARK INTER:                  -9.314
REMARK INTRA:                  -0.999
REMARK UNBOUND:                -1.153
REMARK  Name = 
REMARK  7 active torsions:
REMARK  status: ('A' for Active; 'I' for Inactive)
REMARK    1  A    between atoms: C_1  and  C_2
REMARK    2  A    between atoms: C_2  and  N_3
REMARK    3  A    between atoms: C_2  and  C_12
REMARK    4  A    between atoms: C_4  and  C_6
REMARK    5  A    between atoms: C_15  and  C_16
REMARK    6  A    between atoms: C_16  and  N_17
REMARK    7  A    between atoms: C_18  and  C_20
REMARK                            x       y       z     vdW  Elec       q    Type
REMARK                         _______ _______ _______ _____ _____    ______ ____
ROOT
ATOM      1  C   UNL     1      51.375   3.275  17.766  0.00  0.00    +0.000 A 
ATOM      2  C   UNL     1      50.763   2.134  17.242  0.00  0.00    +0.000 A 
ATOM      3  C   UNL     1      49.393   2.157  16.962  0.00  0.00    +0.000 A 
ATOM      4  C   UNL     1      48.655   3.319  17.187  0.00  0.00    +0.000 A 
ATOM      5  C   UNL     1      49.348   4.416  17.684  0.00  0.00    +0.000 A 
ATOM      6  N   UNL     1      50.676   4.423  17.965  0.00  0.00    +0.000 NA
ENDROOT
BRANCH   1   8
ATOM      7  C   UNL     1      53.418   1.855  18.009  0.00  0.00    +0.000 C 
ATOM      8  C   UNL     1      52.843   3.264  18.205  0.00  0.00    +0.000 C 
BRANCH   8   9
ATOM      9  N   UNL     1      53.619   4.300  17.516  0.00  0.00    +0.000 N 
ATOM     10  C   UNL     1      54.186   5.378  18.195  0.00  0.00    +0.000 C 
ATOM     11  O   UNL     1      54.146   5.510  19.413  0.00  0.00    +0.000 OA
ATOM     12  H   UNL     1      53.327   4.498  16.567  0.00  0.00    +0.000 HD
BRANCH  10  13
ATOM     13  C   UNL     1      54.863   6.407  17.243  0.00  0.00    +0.000 C 
ATOM     14  C   UNL     1      54.291   6.436  15.818  0.00  0.00    +0.000 C 
ATOM     15  C   UNL     1      52.956   7.168  15.692  0.00  0.00    +0.000 C 
ATOM     16  C   UNL     1      52.928   8.476  16.473  0.00  0.00    +0.000 C 
ATOM     17  C   UNL     1      53.514   8.334  17.872  0.00  0.00    +0.000 C 
ATOM     18  N   UNL     1      54.861   7.761  17.845  0.00  0.00    +0.000 NA
ATOM     19  H   UNL     1      55.207   7.702  18.800  0.00  0.00    +0.000 HD
ENDBRANCH  10  13
ENDBRANCH   8   9
ENDBRANCH   1   8
BRANCH   4  20
ATOM     20  C   UNL     1      47.172   3.381  16.948  0.00  0.00    +0.000 C 
BRANCH  20  21
ATOM     21  N   UNL     1      46.828   4.389  15.973  0.00  0.00    +0.000 N 
ATOM     22  C   UNL     1      46.950   4.146  14.626  0.00  0.00    +0.000 C 
ATOM     23  O   UNL     1      47.300   3.049  14.197  0.00  0.00    +0.000 OA
ATOM     24  H   UNL     1      46.754   5.349  16.294  0.00  0.00    +0.000 HD
BRANCH  22  25
ATOM     25  C   UNL     1      46.587   5.242  13.716  0.00  0.00    +0.000 A 
ATOM     26  C   UNL     1      47.496   6.267  13.478  0.00  0.00    +0.000 A 
ATOM     27  S   UNL     1      46.933   7.439  12.373  0.00  0.00    +0.000 S 
ATOM     28  C   UNL     1      45.433   6.653  12.215  0.00  0.00    +0.000 A 
ATOM     29  N   UNL     1      44.454   7.162  11.424  0.00  0.00    +0.000 NA
ATOM     30  C   UNL     1      43.354   6.483  11.428  0.00  0.00    +0.000 A 
ATOM     31  N   UNL     1      43.154   5.330  12.141  0.00  0.00    +0.000 N 
ATOM     32  C   UNL     1      44.129   4.753  12.920  0.00  0.00    +0.000 A 
ATOM     33  O   UNL     1      43.939   3.690  13.502  0.00  0.00    +0.000 OA
ATOM     34  C   UNL     1      45.373   5.496  12.971  0.00  0.00    +0.000 A 
ATOM     35  H   UNL     1      42.273   4.840  12.090  0.00  0.00    +0.000 HD
ENDBRANCH  22  25
ENDBRANCH  20  21
ENDBRANCH   4  20
TORSDOF 6
ENDMDL
MODEL 5
REMARK VINA RESULT:    -6.559      2.090      3.224
REMARK INTER + INTRA:         -10.012
REMARK INTER:                  -9.176
REMARK INTRA:                  -0.836
REMARK UNBOUND:                -1.153
REMARK  Name = 
REMARK  7 active torsions:
REMARK  status: ('A' for Active; 'I' for Inactive)
REMARK    1  A    between atoms: C_1  and  C_2
REMARK    2  A    between atoms: C_2  and  N_3
REMARK    3  A    between atoms: C_2  and  C_12
REMARK    4  A    between atoms: C_4  and  C_6
REMARK    5  A    between atoms: C_15  and  C_16
REMARK    6  A    between atoms: C_16  and  N_17
REMARK    7  A    between atoms: C_18  and  C_20
REMARK                            x       y       z     vdW  Elec       q    Type
REMARK                         _______ _______ _______ _____ _____    ______ ____
ROOT
ATOM      1  C   UNL     1      48.344   7.761  14.344  0.00  0.00    +0.000 A 
ATOM      2  C   UNL     1      48.271   8.920  15.120  0.00  0.00    +0.000 A 
ATOM      3  C   UNL     1      49.071   9.034  16.261  0.00  0.00    +0.000 A 
ATOM      4  C   UNL     1      49.948   8.004  16.603  0.00  0.00    +0.000 A 
ATOM      5  C   UNL     1      49.976   6.899  15.761  0.00  0.00    +0.000 A 
ATOM      6  N   UNL     1      49.211   6.760  14.649  0.00  0.00    +0.000 NA
ENDROOT
BRANCH   1   8
ATOM      7  C   UNL     1      48.232   7.266  11.895  0.00  0.00    +0.000 C 
ATOM      8  C   UNL     1      47.401   7.534  13.157  0.00  0.00    +0.000 C 
BRANCH   8   9
ATOM      9  N   UNL     1      46.428   6.473  13.438  0.00  0.00    +0.000 N 
ATOM     10  C   UNL     1      45.250   6.334  12.706  0.00  0.00    +0.000 C 
ATOM     11  O   UNL     1      44.966   7.029  11.737  0.00  0.00    +0.000 OA
ATOM     12  H   UNL     1      46.365   6.192  14.408  0.00  0.00    +0.000 HD
BRANCH  10  13
ATOM     13  C   UNL     1      44.322   5.213  13.257  0.00  0.00    +0.000 C 
ATOM     14  C   UNL     1      42.958   5.108  12.559  0.00  0.00    +0.000 C 
ATOM     15  C   UNL     1      43.004   4.425  11.193  0.00  0.00    +0.000 C 
ATOM     16  C   UNL     1      43.880   3.177  11.188  0.00  0.00    +0.000 C 
ATOM     17  C   UNL     1      45.207   3.393  11.903  0.00  0.00    +0.000 C 
ATOM     18  N   UNL     1      45.019   3.906  13.261  0.00  0.00    +0.000 NA
ATOM     19  H   UNL     1      45.934   4.018  13.695  0.00  0.00    +0.000 HD
ENDBRANCH  10  13
ENDBRANCH   8   9
ENDBRANCH   1   8
BRANCH   4  20
ATOM     20  C   UNL     1      50.795   8.056  17.844  0.00  0.00    +0.000 C 
BRANCH  20  21
ATOM     21  N   UNL     1      51.582   6.857  18.007  0.00  0.00    +0.000 N 
ATOM     22  C   UNL     1      51.158   5.833  18.819  0.00  0.00    +0.000 C 
ATOM     23  O   UNL     1      50.071   5.870  19.391  0.00  0.00    +0.000 OA
ATOM     24  H   UNL     1      52.559   6.895  17.733  0.00  0.00    +0.000 HD
BRANCH  22  25
ATOM     25  C   UNL     1      52.039   4.661  18.928  0.00  0.00    +0.000 A 
ATOM     26  C   UNL     1      53.211   4.749  19.672  0.00  0.00    +0.000 A 
ATOM     27  S   UNL     1      54.100   3.294  19.726  0.00  0.00    +0.000 S 
ATOM     28  C   UNL     1      52.984   2.508  18.712  0.00  0.00    +0.000 A 
ATOM     29  N   UNL     1      53.171   1.218  18.329  0.00  0.00    +0.000 NA
ATOM     30  C   UNL     1      52.265   0.761  17.528  0.00  0.00    +0.000 A 
ATOM     31  N   UNL     1      51.181   1.474  17.090  0.00  0.00    +0.000 N 
ATOM     32  C   UNL     1      50.926   2.766  17.485  0.00  0.00    +0.000 A 
ATOM     33  O   UNL     1      49.916   3.361  17.120  0.00  0.00    +0.000 OA
ATOM     34  C   UNL     1      51.932   3.335  18.362  0.00  0.00    +0.000 A 
ATOM     35  H   UNL     1      50.501   1.052  16.474  0.00  0.00    +0.000 HD
ENDBRANCH  22  25
ENDBRANCH  20  21
ENDBRANCH   4  20
TORSDOF 6
ENDMDL
MODEL 6
REMARK VINA RESULT:    -6.487      3.459      8.687
REMARK INTER + INTRA:          -9.916
REMARK INTER:                  -9.621
REMARK INTRA:                  -0.294
REMARK UNBOUND:                -1.153
REMARK  Name = 
REMARK  7 active torsions:
REMARK  status: ('A' for Active; 'I' for Inactive)
REMARK    1  A    between atoms: C_1  and  C_2
REMARK    2  A    between atoms: C_2  and  N_3
REMARK    3  A    between atoms: C_2  and  C_12
REMARK    4  A    between atoms: C_4  and  C_6
REMARK    5  A    between atoms: C_15  and  C_16
REMARK    6  A    between atoms: C_16  and  N_17
REMARK    7  A    between atoms: C_18  and  C_20
REMARK                            x       y       z     vdW  Elec       q    Type
REMARK                         _______ _______ _______ _____ _____    ______ ____
ROOT
ATOM      1  C   UNL     1      49.476   7.579  16.079  0.00  0.00    +0.000 A 
ATOM      2  C   UNL     1      48.638   8.675  15.864  0.00  0.00    +0.000 A 
ATOM      3  C   UNL     1      48.159   8.931  14.576  0.00  0.00    +0.000 A 
ATOM      4  C   UNL     1      48.504   8.084  13.523  0.00  0.00    +0.000 A 
ATOM      5  C   UNL     1      49.321   7.003  13.830  0.00  0.00    +0.000 A 
ATOM      6  N   UNL     1      49.800   6.729  15.070  0.00  0.00    +0.000 NA
ENDROOT
BRANCH   1   8
ATOM      7  C   UNL     1      49.601   8.356  18.453  0.00  0.00    +0.000 C 
ATOM      8  C   UNL     1      50.126   7.326  17.444  0.00  0.00    +0.000 C 
BRANCH   8   9
ATOM      9  N   UNL     1      49.930   5.941  17.885  0.00  0.00    +0.000 N 
ATOM     10  C   UNL     1      48.663   5.409  18.121  0.00  0.00    +0.000 C 
ATOM     11  O   UNL     1      47.621   6.019  17.914  0.00  0.00    +0.000 OA
ATOM     12  H   UNL     1      50.667   5.566  18.469  0.00  0.00    +0.000 HD
BRANCH  10  13
ATOM     13  C   UNL     1      48.710   3.961  18.691  0.00  0.00    +0.000 C 
ATOM     14  C   UNL     1      47.851   2.943  17.927  0.00  0.00    +0.000 C 
ATOM     15  C   UNL     1      48.466   2.466  16.612  0.00  0.00    +0.000 C 
ATOM     16  C   UNL     1      49.954   2.159  16.736  0.00  0.00    +0.000 C 
ATOM     17  C   UNL     1      50.709   3.233  17.508  0.00  0.00    +0.000 C 
ATOM     18  N   UNL     1      50.108   3.489  18.818  0.00  0.00    +0.000 NA
ATOM     19  H   UNL     1      50.659   4.202  19.293  0.00  0.00    +0.000 HD
ENDBRANCH  10  13
ENDBRANCH   8   9
ENDBRANCH   1   8
BRANCH   4  20
ATOM     20  C   UNL     1      48.056   8.342  12.111  0.00  0.00    +0.000 C 
BRANCH  20  21
ATOM     21  N   UNL     1      47.451   7.173  11.518  0.00  0.00    +0.000 N 
ATOM     22  C   UNL     1      46.085   7.049  11.424  0.00  0.00    +0.000 C 
ATOM     23  O   UNL     1      45.330   7.947  11.786  0.00  0.00    +0.000 OA
ATOM     24  H   UNL     1      48.028   6.343  11.420  0.00  0.00    +0.000 HD
BRANCH  22  25
ATOM     25  C   UNL     1      45.569   5.813  10.817  0.00  0.00    +0.000 A 
ATOM     26  C   UNL     1      45.802   5.561   9.470  0.00  0.00    +0.000 A 
ATOM     27  S   UNL     1      45.167   4.072   8.931  0.00  0.00    +0.000 S 
ATOM     28  C   UNL     1      44.510   3.733  10.463  0.00  0.00    +0.000 A 
ATOM     29  N   UNL     1      43.796   2.599  10.685  0.00  0.00    +0.000 NA
ATOM     30  C   UNL     1      43.324   2.490  11.883  0.00  0.00    +0.000 A 
ATOM     31  N   UNL     1      43.517   3.407  12.883  0.00  0.00    +0.000 N 
ATOM     32  C   UNL     1      44.269   4.545  12.719  0.00  0.00    +0.000 A 
ATOM     33  O   UNL     1      44.472   5.321  13.649  0.00  0.00    +0.000 OA
ATOM     34  C   UNL     1      44.796   4.728  11.380  0.00  0.00    +0.000 A 
ATOM     35  H   UNL     1      43.131   3.254  13.804  0.00  0.00    +0.000 HD
ENDBRANCH  22  25
ENDBRANCH  20  21
ENDBRANCH   4  20
TORSDOF 6
ENDMDL
MODEL 7
REMARK VINA RESULT:    -6.445      4.011      5.768
REMARK INTER + INTRA:          -9.859
REMARK INTER:                 -10.109
REMARK INTRA:                   0.250
REMARK UNBOUND:                -1.153
REMARK  Name = 
REMARK  7 active torsions:
REMARK  status: ('A' for Active; 'I' for Inactive)
REMARK    1  A    between atoms: C_1  and  C_2
REMARK    2  A    between atoms: C_2  and  N_3
REMARK    3  A    between atoms: C_2  and  C_12
REMARK    4  A    between atoms: C_4  and  C_6
REMARK    5  A    between atoms: C_15  and  C_16
REMARK    6  A    between atoms: C_16  and  N_17
REMARK    7  A    between atoms: C_18  and  C_20
REMARK                            x       y       z     vdW  Elec       q    Type
REMARK                         _______ _______ _______ _____ _____    ______ ____
ROOT
ATOM      1  C   UNL     1      44.820   4.816  12.314  0.00  0.00    +0.000 A 
ATOM      2  C   UNL     1      45.171   6.165  12.410  0.00  0.00    +0.000 A 
ATOM      3  C   UNL     1      46.330   6.526  13.102  0.00  0.00    +0.000 A 
ATOM      4  C   UNL     1      47.136   5.540  13.673  0.00  0.00    +0.000 A 
ATOM      5  C   UNL     1      46.728   4.222  13.507  0.00  0.00    +0.000 A 
ATOM      6  N   UNL     1      45.608   3.843  12.841  0.00  0.00    +0.000 NA
ENDROOT
BRANCH   1   8
ATOM      7  C   UNL     1      42.515   5.556  11.689  0.00  0.00    +0.000 C 
ATOM      8  C   UNL     1      43.498   4.378  11.675  0.00  0.00    +0.000 C 
BRANCH   8   9
ATOM      9  N   UNL     1      43.707   3.823  10.334  0.00  0.00    +0.000 N 
ATOM     10  C   UNL     1      44.649   4.348   9.451  0.00  0.00    +0.000 C 
ATOM     11  O   UNL     1      45.421   5.255   9.741  0.00  0.00    +0.000 OA
ATOM     12  H   UNL     1      42.881   3.433   9.896  0.00  0.00    +0.000 HD
BRANCH  10  13
ATOM     13  C   UNL     1      44.611   3.672   8.049  0.00  0.00    +0.000 C 
ATOM     14  C   UNL     1      45.886   3.855   7.213  0.00  0.00    +0.000 C 
ATOM     15  C   UNL     1      47.048   2.958   7.636  0.00  0.00    +0.000 C 
ATOM     16  C   UNL     1      46.611   1.526   7.922  0.00  0.00    +0.000 C 
ATOM     17  C   UNL     1      45.341   1.460   8.760  0.00  0.00    +0.000 C 
ATOM     18  N   UNL     1      44.253   2.239   8.165  0.00  0.00    +0.000 NA
ATOM     19  H   UNL     1      43.429   2.148   8.757  0.00  0.00    +0.000 HD
ENDBRANCH  10  13
ENDBRANCH   8   9
ENDBRANCH   1   8
BRANCH   4  20
ATOM     20  C   UNL     1      48.367   5.876  14.468  0.00  0.00    +0.000 C 
BRANCH  20  21
ATOM     21  N   UNL     1      48.043   6.276  15.816  0.00  0.00    +0.000 N 
ATOM     22  C   UNL     1      48.762   5.807  16.890  0.00  0.00    +0.000 C 
ATOM     23  O   UNL     1      49.741   5.079  16.742  0.00  0.00    +0.000 OA
ATOM     24  H   UNL     1      47.127   6.684  15.979  0.00  0.00    +0.000 HD
BRANCH  22  25
ATOM     25  C   UNL     1      48.342   6.263  18.223  0.00  0.00    +0.000 A 
ATOM     26  C   UNL     1      48.193   5.338  19.250  0.00  0.00    +0.000 A 
ATOM     27  S   UNL     1      47.735   6.034  20.739  0.00  0.00    +0.000 S 
ATOM     28  C   UNL     1      47.663   7.590  20.054  0.00  0.00    +0.000 A 
ATOM     29  N   UNL     1      47.294   8.666  20.795  0.00  0.00    +0.000 NA
ATOM     30  C   UNL     1      47.245   9.777  20.138  0.00  0.00    +0.000 A 
ATOM     31  N   UNL     1      47.550   9.910  18.808  0.00  0.00    +0.000 N 
ATOM     32  C   UNL     1      47.971   8.859  18.029  0.00  0.00    +0.000 A 
ATOM     33  O   UNL     1      48.291   9.018  16.855  0.00  0.00    +0.000 OA
ATOM     34  C   UNL     1      48.013   7.582  18.716  0.00  0.00    +0.000 A 
ATOM     35  H   UNL     1      47.504  10.812  18.357  0.00  0.00    +0.000 HD
ENDBRANCH  22  25
ENDBRANCH  20  21
ENDBRANCH   4  20
TORSDOF 6
ENDMDL
MODEL 8
REMARK VINA RESULT:    -6.405      3.118      8.504
REMARK INTER + INTRA:          -9.805
REMARK INTER:                  -8.382
REMARK INTRA:                  -1.423
REMARK UNBOUND:                -1.153
REMARK  Name = 
REMARK  7 active torsions:
REMARK  status: ('A' for Active; 'I' for Inactive)
REMARK    1  A    between atoms: C_1  and  C_2
REMARK    2  A    between atoms: C_2  and  N_3
REMARK    3  A    between atoms: C_2  and  C_12
REMARK    4  A    between atoms: C_4  and  C_6
REMARK    5  A    between atoms: C_15  and  C_16
REMARK    6  A    between atoms: C_16  and  N_17
REMARK    7  A    between atoms: C_18  and  C_20
REMARK                            x       y       z     vdW  Elec       q    Type
REMARK                         _______ _______ _______ _____ _____    ______ ____
ROOT
ATOM      1  C   UNL     1      51.361   3.235  17.750  0.00  0.00    +0.000 A 
ATOM      2  C   UNL     1      50.714   2.099  17.257  0.00  0.00    +0.000 A 
ATOM      3  C   UNL     1      49.357   2.171  16.929  0.00  0.00    +0.000 A 
ATOM      4  C   UNL     1      48.667   3.375  17.075  0.00  0.00    +0.000 A 
ATOM      5  C   UNL     1      49.394   4.461  17.546  0.00  0.00    +0.000 A 
ATOM      6  N   UNL     1      50.711   4.421  17.873  0.00  0.00    +0.000 NA
ENDROOT
BRANCH   1   8
ATOM      7  C   UNL     1      53.360   1.759  18.033  0.00  0.00    +0.000 C 
ATOM      8  C   UNL     1      52.812   3.177  18.240  0.00  0.00    +0.000 C 
BRANCH   8   9
ATOM      9  N   UNL     1      53.637   4.208  17.602  0.00  0.00    +0.000 N 
ATOM     10  C   UNL     1      54.202   5.259  18.323  0.00  0.00    +0.000 C 
ATOM     11  O   UNL     1      54.119   5.369  19.541  0.00  0.00    +0.000 OA
ATOM     12  H   UNL     1      53.386   4.431  16.647  0.00  0.00    +0.000 HD
BRANCH  10  13
ATOM     13  C   UNL     1      54.938   6.290  17.419  0.00  0.00    +0.000 C 
ATOM     14  C   UNL     1      54.463   6.317  15.959  0.00  0.00    +0.000 C 
ATOM     15  C   UNL     1      53.137   7.046  15.744  0.00  0.00    +0.000 C 
ATOM     16  C   UNL     1      53.053   8.354  16.522  0.00  0.00    +0.000 C 
ATOM     17  C   UNL     1      53.545   8.213  17.956  0.00  0.00    +0.000 C 
ATOM     18  N   UNL     1      54.892   7.644  18.019  0.00  0.00    +0.000 NA
ATOM     19  H   UNL     1      55.174   7.586  18.995  0.00  0.00    +0.000 HD
ENDBRANCH  10  13
ENDBRANCH   8   9
ENDBRANCH   1   8
BRANCH   4  20
ATOM     20  C   UNL     1      47.197   3.493  16.782  0.00  0.00    +0.000 C 
BRANCH  20  21
ATOM     21  N   UNL     1      46.929   4.495  15.777  0.00  0.00    +0.000 N 
ATOM     22  C   UNL     1      47.007   4.197  14.437  0.00  0.00    +0.000 C 
ATOM     23  O   UNL     1      47.248   3.059  14.043  0.00  0.00    +0.000 OA
ATOM     24  H   UNL     1      46.948   5.468  16.066  0.00  0.00    +0.000 HD
BRANCH  22  25
ATOM     25  C   UNL     1      46.729   5.290  13.495  0.00  0.00    +0.000 A 
ATOM     26  C   UNL     1      45.621   5.213  12.660  0.00  0.00    +0.000 A 
ATOM     27  S   UNL     1      45.423   6.577  11.654  0.00  0.00    +0.000 S 
ATOM     28  C   UNL     1      46.842   7.297  12.256  0.00  0.00    +0.000 A 
ATOM     29  N   UNL     1      47.277   8.494  11.783  0.00  0.00    +0.000 NA
ATOM     30  C   UNL     1      48.387   8.903  12.302  0.00  0.00    +0.000 A 
ATOM     31  N   UNL     1      49.093   8.229  13.264  0.00  0.00    +0.000 N 
ATOM     32  C   UNL     1      48.670   7.038  13.805  0.00  0.00    +0.000 A 
ATOM     33  O   UNL     1      49.294   6.484  14.705  0.00  0.00    +0.000 OA
ATOM     34  C   UNL     1      47.441   6.522  13.232  0.00  0.00    +0.000 A 
ATOM     35  H   UNL     1      49.949   8.611  13.638  0.00  0.00    +0.000 HD
ENDBRANCH  22  25
ENDBRANCH  20  21
ENDBRANCH   4  20
TORSDOF 6
ENDMDL
MODEL 9
REMARK VINA RESULT:    -6.022      4.479      9.046
REMARK INTER + INTRA:          -9.288
REMARK INTER:                  -8.020
REMARK INTRA:                  -1.267
REMARK UNBOUND:                -1.153
REMARK  Name = 
REMARK  7 active torsions:
REMARK  status: ('A' for Active; 'I' for Inactive)
REMARK    1  A    between atoms: C_1  and  C_2
REMARK    2  A    between atoms: C_2  and  N_3
REMARK    3  A    between atoms: C_2  and  C_12
REMARK    4  A    between atoms: C_4  and  C_6
REMARK    5  A    between atoms: C_15  and  C_16
REMARK    6  A    between atoms: C_16  and  N_17
REMARK    7  A    between atoms: C_18  and  C_20
REMARK                            x       y       z     vdW  Elec       q    Type
REMARK                         _______ _______ _______ _____ _____    ______ ____
ROOT
ATOM      1  C   UNL     1      48.858   6.280  19.234  0.00  0.00    +0.000 A 
ATOM      2  C   UNL     1      49.679   6.260  18.104  0.00  0.00    +0.000 A 
ATOM      3  C   UNL     1      49.288   5.518  16.986  0.00  0.00    +0.000 A 
ATOM      4  C   UNL     1      48.079   4.822  16.998  0.00  0.00    +0.000 A 
ATOM      5  C   UNL     1      47.313   4.917  18.153  0.00  0.00    +0.000 A 
ATOM      6  N   UNL     1      47.666   5.629  19.253  0.00  0.00    +0.000 NA
ENDROOT
BRANCH   1   8
ATOM      7  C   UNL     1      50.498   6.227  21.121  0.00  0.00    +0.000 C 
ATOM      8  C   UNL     1      49.297   6.975  20.528  0.00  0.00    +0.000 C 
BRANCH   8   9
ATOM      9  N   UNL     1      49.562   8.401  20.309  0.00  0.00    +0.000 N 
ATOM     10  C   UNL     1      48.549   9.358  20.343  0.00  0.00    +0.000 C 
ATOM     11  O   UNL     1      47.383   9.103  20.624  0.00  0.00    +0.000 OA
ATOM     12  H   UNL     1      50.323   8.606  19.674  0.00  0.00    +0.000 HD
BRANCH  10  13
ATOM     13  C   UNL     1      49.048  10.784  19.970  0.00  0.00    +0.000 C 
ATOM     14  C   UNL     1      50.413  10.823  19.268  0.00  0.00    +0.000 C 
ATOM     15  C   UNL     1      50.370  10.431  17.792  0.00  0.00    +0.000 C 
ATOM     16  C   UNL     1      49.195  11.057  17.050  0.00  0.00    +0.000 C 
ATOM     17  C   UNL     1      47.893  10.961  17.834  0.00  0.00    +0.000 C 
ATOM     18  N   UNL     1      48.024  11.512  19.184  0.00  0.00    +0.000 NA
ATOM     19  H   UNL     1      47.125  11.434  19.654  0.00  0.00    +0.000 HD
ENDBRANCH  10  13
ENDBRANCH   8   9
ENDBRANCH   1   8
BRANCH   4  20
ATOM     20  C   UNL     1      47.636   3.970  15.841  0.00  0.00    +0.000 C 
BRANCH  20  21
ATOM     21  N   UNL     1      46.694   4.663  14.995  0.00  0.00    +0.000 N 
ATOM     22  C   UNL     1      47.118   5.417  13.927  0.00  0.00    +0.000 C 
ATOM     23  O   UNL     1      48.304   5.484  13.615  0.00  0.00    +0.000 OA
ATOM     24  H   UNL     1      45.754   4.804  15.353  0.00  0.00    +0.000 HD
BRANCH  22  25
ATOM     25  C   UNL     1      46.080   6.094  13.136  0.00  0.00    +0.000 A 
ATOM     26  C   UNL     1      46.216   7.445  12.837  0.00  0.00    +0.000 A 
ATOM     27  S   UNL     1      44.945   8.068  11.884  0.00  0.00    +0.000 S 
ATOM     28  C   UNL     1      44.136   6.572  11.883  0.00  0.00    +0.000 A 
ATOM     29  N   UNL     1      42.940   6.421  11.259  0.00  0.00    +0.000 NA
ATOM     30  C   UNL     1      42.422   5.243  11.371  0.00  0.00    +0.000 A 
ATOM     31  N   UNL     1      43.003   4.197  12.038  0.00  0.00    +0.000 N 
ATOM     32  C   UNL     1      44.232   4.289  12.647  0.00  0.00    +0.000 A 
ATOM     33  O   UNL     1      44.753   3.319  13.190  0.00  0.00    +0.000 OA
ATOM     34  C   UNL     1      44.841   5.603  12.574  0.00  0.00    +0.000 A 
ATOM     35  H   UNL     1      42.550   3.295  12.077  0.00  0.00    +0.000 HD
ENDBRANCH  22  25
ENDBRANCH  20  21
ENDBRANCH   4  20
TORSDOF 6
ENDMDL
