MODEL 1
REMARK VINA RESULT:    -7.622      0.000      0.000
REMARK INTER + INTRA:         -11.255
REMARK INTER:                 -10.295
REMARK INTRA:                  -0.960
REMARK UNBOUND:                -0.960
REMARK  Name = 
REMARK  7 active torsions:
REMARK  status: ('A' for Active; 'I' for Inactive)
REMARK    1  A    between atoms: C_1  and  N_2
REMARK    2  A    between atoms: C_8  and  C_9
REMARK    3  A    between atoms: N_11  and  C_12
REMARK    4  A    between atoms: C_12  and  C_13
REMARK    5  A    between atoms: C_16  and  C_17
REMARK    6  A    between atoms: C_17  and  N_18
REMARK    7  A    between atoms: N_18  and  C_19
REMARK                            x       y       z     vdW  Elec       q    Type
REMARK                         _______ _______ _______ _____ _____    ______ ____
ROOT
ATOM      1  C   UNL     1      46.738   4.379  15.393  0.00  0.00    +0.000 C 
ENDROOT
BRANCH   1   2
ATOM      2  C   UNL     1      46.487   4.815  13.980  0.00  0.00    +0.000 A 
ATOM      3  C   UNL     1      47.202   5.870  13.414  0.00  0.00    +0.000 A 
ATOM      4  C   UNL     1      46.955   6.251  12.099  0.00  0.00    +0.000 A 
ATOM      5  C   UNL     1      45.999   5.556  11.362  0.00  0.00    +0.000 A 
ATOM      6  N   UNL     1      45.281   4.531  11.894  0.00  0.00    +0.000 NA
ATOM      7  C   UNL     1      45.548   4.181  13.174  0.00  0.00    +0.000 A 
BRANCH   5   8
ATOM      8  C   UNL     1      45.743   5.918   9.910  0.00  0.00    +0.000 C 
BRANCH   8   9
ATOM      9  N   UNL     1      44.948   4.916   9.205  0.00  0.00    +0.000 N 
ATOM     10  H   UNL     1      44.193   5.338   8.670  0.00  0.00    +0.000 HD
BRANCH   9  11
ATOM     11  C   UNL     1      45.620   3.943   8.456  0.00  0.00    +0.000 A 
ATOM     12  N   UNL     1      46.547   4.330   7.547  0.00  0.00    +0.000 NA
ATOM     13  C   UNL     1      47.255   3.372   6.903  0.00  0.00    +0.000 A 
ATOM     14  C   UNL     1      47.102   2.015   7.124  0.00  0.00    +0.000 A 
ATOM     15  C   UNL     1      46.157   1.613   8.057  0.00  0.00    +0.000 A 
ATOM     16  C   UNL     1      45.407   2.580   8.729  0.00  0.00    +0.000 A 
ATOM     17 CL   UNL     1      44.239   2.052   9.888  0.00  0.00    +0.000 Cl
ENDBRANCH   9  11
ENDBRANCH   8   9
ENDBRANCH   5   8
ENDBRANCH   1   2
BRANCH   1  20
ATOM     18  C   UNL     1      48.295   5.080  17.180  0.00  0.00    +0.000 C 
ATOM     19  O   UNL     1      47.410   5.159  18.028  0.00  0.00    +0.000 OA
ATOM     20  N   UNL     1      48.038   4.783  15.867  0.00  0.00    +0.000 N 
ATOM     21  H   UNL     1      48.818   4.594  15.248  0.00  0.00    +0.000 HD
BRANCH  18  29
ATOM     22  C   UNL     1      52.220   0.962  17.624  0.00  0.00    +0.000 C 
ATOM     23  N   UNL     1      52.103   2.400  17.743  0.00  0.00    +0.000 N 
ATOM     24  C   UNL     1      53.203   3.174  18.049  0.00  0.00    +0.000 A 
ATOM     25  N   UNL     1      53.204   4.462  18.171  0.00  0.00    +0.000 NA
ATOM     26  C   UNL     1      51.994   5.047  17.976  0.00  0.00    +0.000 A 
ATOM     27  S   UNL     1      51.797   6.729  18.141  0.00  0.00    +0.000 S 
ATOM     28  C   UNL     1      50.130   6.625  17.794  0.00  0.00    +0.000 A 
ATOM     29  C   UNL     1      49.702   5.335  17.513  0.00  0.00    +0.000 A 
ATOM     30  C   UNL     1      50.811   4.416  17.643  0.00  0.00    +0.000 A 
ATOM     31  C   UNL     1      50.858   2.971  17.499  0.00  0.00    +0.000 A 
ATOM     32  O   UNL     1      49.882   2.308  17.156  0.00  0.00    +0.000 OA
ENDBRANCH  18  29
ENDBRANCH   1  20
TORSDOF 6
ENDMDL
MODEL 2
REMARK VINA RESULT:    -7.513      1.530      1.959
REMARK INTER + INTRA:         -11.108
REMARK INTER:                 -10.114
REMARK INTRA:                  -0.994
REMARK UNBOUND:                -0.960
REMARK  Name = 
REMARK  7 active torsions:
REMARK  status: ('A' for Active; 'I' for Inactive)
REMARK    1  A    between atoms: C_1  and  N_2
REMARK    2  A    between atoms: C_8  and  C_9
REMARK    3  A    between atoms: N_11  and  C_12
REMARK    4  A    between atoms: C_12  and  C_13
REMARK    5  A    between atoms: C_16  and  C_17
REMARK    6  A    between atoms: C_17  and  N_18
REMARK    7  A    between atoms: N_18  and  C_19
REMARK                            x       y       z     vdW  Elec       q    Type
REMARK                         _______ _______ _______ _____ _____    ______ ____
ROOT
ATOM      1  C   UNL     1      47.128   4.105  15.355  0.00  0.00    +0.000 C 
ENDROOT
BRANCH   1   2
ATOM      2  C   UNL     1      46.707   4.635  14.017  0.00  0.00    +0.000 A 
ATOM      3  C   UNL     1      47.330   5.749  13.455  0.00  0.00    +0.000 A 
ATOM      4  C   UNL     1      46.925   6.216  12.208  0.00  0.00    +0.000 A 
ATOM      5  C   UNL     1      45.905   5.549  11.535  0.00  0.00    +0.000 A 
ATOM      6  N   UNL     1      45.274   4.467  12.066  0.00  0.00    +0.000 NA
ATOM      7  C   UNL     1      45.695   4.033  13.278  0.00  0.00    +0.000 A 
BRANCH   5   8
ATOM      8  C   UNL     1      45.475   6.008  10.153  0.00  0.00    +0.000 C 
BRANCH   8   9
ATOM      9  N   UNL     1      44.712   4.995   9.429  0.00  0.00    +0.000 N 
ATOM     10  H   UNL     1      43.933   5.402   8.917  0.00  0.00    +0.000 HD
BRANCH   9  11
ATOM     11  C   UNL     1      45.411   4.073   8.642  0.00  0.00    +0.000 A 
ATOM     12  N   UNL     1      46.307   4.524   7.731  0.00  0.00    +0.000 NA
ATOM     13  C   UNL     1      47.043   3.615   7.049  0.00  0.00    +0.000 A 
ATOM     14  C   UNL     1      46.950   2.247   7.232  0.00  0.00    +0.000 A 
ATOM     15  C   UNL     1      46.037   1.780   8.167  0.00  0.00    +0.000 A 
ATOM     16  C   UNL     1      45.259   2.695   8.877  0.00  0.00    +0.000 A 
ATOM     17 CL   UNL     1      44.132   2.085  10.038  0.00  0.00    +0.000 Cl
ENDBRANCH   9  11
ENDBRANCH   8   9
ENDBRANCH   5   8
ENDBRANCH   1   2
BRANCH   1  20
ATOM     18  C   UNL     1      47.571   5.202  17.526  0.00  0.00    +0.000 C 
ATOM     19  O   UNL     1      46.754   4.512  18.131  0.00  0.00    +0.000 OA
ATOM     20  N   UNL     1      47.754   5.116  16.171  0.00  0.00    +0.000 N 
ATOM     21  H   UNL     1      48.537   5.606  15.753  0.00  0.00    +0.000 HD
BRANCH  18  29
ATOM     22  C   UNL     1      53.276   5.092  17.582  0.00  0.00    +0.000 C 
ATOM     23  N   UNL     1      52.177   5.884  18.092  0.00  0.00    +0.000 N 
ATOM     24  C   UNL     1      52.413   7.015  18.848  0.00  0.00    +0.000 A 
ATOM     25  N   UNL     1      51.503   7.790  19.341  0.00  0.00    +0.000 NA
ATOM     26  C   UNL     1      50.229   7.410  19.068  0.00  0.00    +0.000 A 
ATOM     27  S   UNL     1      48.903   8.286  19.676  0.00  0.00    +0.000 S 
ATOM     28  C   UNL     1      47.790   7.211  18.957  0.00  0.00    +0.000 A 
ATOM     29  C   UNL     1      48.393   6.201  18.221  0.00  0.00    +0.000 A 
ATOM     30  C   UNL     1      49.831   6.324  18.312  0.00  0.00    +0.000 A 
ATOM     31  C   UNL     1      50.885   5.489  17.761  0.00  0.00    +0.000 A 
ATOM     32  O   UNL     1      50.653   4.527  17.032  0.00  0.00    +0.000 OA
ENDBRANCH  18  29
ENDBRANCH   1  20
TORSDOF 6
ENDMDL
MODEL 3
REMARK VINA RESULT:    -7.337      2.366      3.292
REMARK INTER + INTRA:         -10.870
REMARK INTER:                  -9.798
REMARK INTRA:                  -1.072
REMARK UNBOUND:                -0.960
REMARK  Name = 
REMARK  7 active torsions:
REMARK  status: ('A' for Active; 'I' for Inactive)
REMARK    1  A    between atoms: C_1  and  N_2
REMARK    2  A    between atoms: C_8  and  C_9
REMARK    3  A    between atoms: N_11  and  C_12
REMARK    4  A    between atoms: C_12  and  C_13
REMARK    5  A    between atoms: C_16  and  C_17
REMARK    6  A    between atoms: C_17  and  N_18
REMARK    7  A    between atoms: N_18  and  C_19
REMARK                            x       y       z     vdW  Elec       q    Type
REMARK                         _______ _______ _______ _____ _____    ______ ____
ROOT
ATOM      1  C   UNL     1      47.143   4.169  15.218  0.00  0.00    +0.000 C 
ENDROOT
BRANCH   1   2
ATOM      2  C   UNL     1      46.680   4.641  13.872  0.00  0.00    +0.000 A 
ATOM      3  C   UNL     1      47.215   5.791  13.289  0.00  0.00    +0.000 A 
ATOM      4  C   UNL     1      46.773   6.203  12.036  0.00  0.00    +0.000 A 
ATOM      5  C   UNL     1      45.806   5.448  11.377  0.00  0.00    +0.000 A 
ATOM      6  N   UNL     1      45.262   4.330  11.928  0.00  0.00    +0.000 NA
ATOM      7  C   UNL     1      45.717   3.951  13.146  0.00  0.00    +0.000 A 
BRANCH   5   8
ATOM      8  C   UNL     1      45.341   5.847   9.988  0.00  0.00    +0.000 C 
BRANCH   8   9
ATOM      9  N   UNL     1      44.651   4.769   9.286  0.00  0.00    +0.000 N 
ATOM     10  H   UNL     1      43.840   5.108   8.774  0.00  0.00    +0.000 HD
BRANCH   9  11
ATOM     11  C   UNL     1      45.412   3.889   8.508  0.00  0.00    +0.000 A 
ATOM     12  N   UNL     1      46.327   4.391   7.643  0.00  0.00    +0.000 NA
ATOM     13  C   UNL     1      47.120   3.524   6.972  0.00  0.00    +0.000 A 
ATOM     14  C   UNL     1      47.068   2.149   7.123  0.00  0.00    +0.000 A 
ATOM     15  C   UNL     1      46.136   1.630   8.010  0.00  0.00    +0.000 A 
ATOM     16  C   UNL     1      45.300   2.502   8.709  0.00  0.00    +0.000 A 
ATOM     17 CL   UNL     1      44.151   1.828   9.811  0.00  0.00    +0.000 Cl
ENDBRANCH   9  11
ENDBRANCH   8   9
ENDBRANCH   5   8
ENDBRANCH   1   2
BRANCH   1  20
ATOM     18  C   UNL     1      48.735   5.150  16.836  0.00  0.00    +0.000 C 
ATOM     19  O   UNL     1      49.330   4.090  17.012  0.00  0.00    +0.000 OA
ATOM     20  N   UNL     1      47.621   5.251  16.042  0.00  0.00    +0.000 N 
ATOM     21  H   UNL     1      47.260   6.172  15.823  0.00  0.00    +0.000 HD
BRANCH  18  29
ATOM     22  C   UNL     1      51.438   9.388  14.135  0.00  0.00    +0.000 C 
ATOM     23  N   UNL     1      50.946   9.049  15.454  0.00  0.00    +0.000 N 
ATOM     24  C   UNL     1      51.089   9.928  16.508  0.00  0.00    +0.000 A 
ATOM     25  N   UNL     1      50.679   9.722  17.717  0.00  0.00    +0.000 NA
ATOM     26  C   UNL     1      50.070   8.524  17.909  0.00  0.00    +0.000 A 
ATOM     27  S   UNL     1      49.507   8.063  19.448  0.00  0.00    +0.000 S 
ATOM     28  C   UNL     1      48.964   6.556  18.860  0.00  0.00    +0.000 A 
ATOM     29  C   UNL     1      49.162   6.389  17.497  0.00  0.00    +0.000 A 
ATOM     30  C   UNL     1      49.831   7.552  16.957  0.00  0.00    +0.000 A 
ATOM     31  C   UNL     1      50.292   7.831  15.607  0.00  0.00    +0.000 A 
ATOM     32  O   UNL     1      50.091   7.064  14.668  0.00  0.00    +0.000 OA
ENDBRANCH  18  29
ENDBRANCH   1  20
TORSDOF 6
ENDMDL
MODEL 4
REMARK VINA RESULT:    -7.235      1.801      2.466
REMARK INTER + INTRA:         -10.733
REMARK INTER:                 -10.024
REMARK INTRA:                  -0.709
REMARK UNBOUND:                -0.960
REMARK  Name = 
REMARK  7 active torsions:
REMARK  status: ('A' for Active; 'I' for Inactive)
REMARK    1  A    between atoms: C_1  and  N_2
REMARK    2  A    between atoms: C_8  and  C_9
REMARK    3  A    between atoms: N_11  and  C_12
REMARK    4  A    between atoms: C_12  and  C_13
REMARK    5  A    between atoms: C_16  and  C_17
REMARK    6  A    between atoms: C_17  and  N_18
REMARK    7  A    between atoms: N_18  and  C_19
REMARK                            x       y       z     vdW  Elec       q    Type
REMARK                         _______ _______ _______ _____ _____    ______ ____
ROOT
ATOM      1  C   UNL     1      47.206   8.083  13.598  0.00  0.00    +0.000 C 
ENDROOT
BRANCH   1   2
ATOM      2  C   UNL     1      46.448   7.075  12.788  0.00  0.00    +0.000 A 
ATOM      3  C   UNL     1      46.486   5.718  13.108  0.00  0.00    +0.000 A 
ATOM      4  C   UNL     1      45.768   4.803  12.343  0.00  0.00    +0.000 A 
ATOM      5  C   UNL     1      45.009   5.266  11.271  0.00  0.00    +0.000 A 
ATOM      6  N   UNL     1      44.965   6.582  10.932  0.00  0.00    +0.000 NA
ATOM      7  C   UNL     1      45.669   7.448  11.699  0.00  0.00    +0.000 A 
BRANCH   5   8
ATOM      8  C   UNL     1      44.178   4.297  10.449  0.00  0.00    +0.000 C 
BRANCH   8   9
ATOM      9  N   UNL     1      44.303   4.517   9.011  0.00  0.00    +0.000 N 
ATOM     10  H   UNL     1      44.330   5.507   8.780  0.00  0.00    +0.000 HD
BRANCH   9  11
ATOM     11  C   UNL     1      45.286   3.805   8.314  0.00  0.00    +0.000 A 
ATOM     12  N   UNL     1      46.211   4.484   7.594  0.00  0.00    +0.000 NA
ATOM     13  C   UNL     1      47.210   3.785   7.006  0.00  0.00    +0.000 A 
ATOM     14  C   UNL     1      47.358   2.413   7.106  0.00  0.00    +0.000 A 
ATOM     15  C   UNL     1      46.415   1.712   7.845  0.00  0.00    +0.000 A 
ATOM     16  C   UNL     1      45.370   2.408   8.454  0.00  0.00    +0.000 A 
ATOM     17 CL   UNL     1      44.213   1.511   9.373  0.00  0.00    +0.000 Cl
ENDBRANCH   9  11
ENDBRANCH   8   9
ENDBRANCH   5   8
ENDBRANCH   1   2
BRANCH   1  20
ATOM     18  C   UNL     1      48.910   8.021  15.389  0.00  0.00    +0.000 C 
ATOM     19  O   UNL     1      48.543   9.084  15.883  0.00  0.00    +0.000 OA
ATOM     20  N   UNL     1      48.362   7.510  14.241  0.00  0.00    +0.000 N 
ATOM     21  H   UNL     1      48.606   6.567  13.962  0.00  0.00    +0.000 HD
BRANCH  18  29
ATOM     22  C   UNL     1      48.128   2.908  17.799  0.00  0.00    +0.000 C 
ATOM     23  N   UNL     1      49.189   3.854  17.524  0.00  0.00    +0.000 N 
ATOM     24  C   UNL     1      50.491   3.580  17.890  0.00  0.00    +0.000 A 
ATOM     25  N   UNL     1      51.507   4.354  17.683  0.00  0.00    +0.000 NA
ATOM     26  C   UNL     1      51.208   5.520  17.056  0.00  0.00    +0.000 A 
ATOM     27  S   UNL     1      52.413   6.681  16.743  0.00  0.00    +0.000 S 
ATOM     28  C   UNL     1      51.284   7.745  16.033  0.00  0.00    +0.000 A 
ATOM     29  C   UNL     1      49.995   7.233  15.985  0.00  0.00    +0.000 A 
ATOM     30  C   UNL     1      49.966   5.929  16.609  0.00  0.00    +0.000 A 
ATOM     31  C   UNL     1      48.855   5.022  16.846  0.00  0.00    +0.000 A 
ATOM     32  O   UNL     1      47.716   5.255  16.448  0.00  0.00    +0.000 OA
ENDBRANCH  18  29
ENDBRANCH   1  20
TORSDOF 6
ENDMDL
MODEL 5
REMARK VINA RESULT:    -7.208      4.018      9.203
REMARK INTER + INTRA:         -10.696
REMARK INTER:                  -9.667
REMARK INTRA:                  -1.029
REMARK UNBOUND:                -0.960
REMARK  Name = 
REMARK  7 active torsions:
REMARK  status: ('A' for Active; 'I' for Inactive)
REMARK    1  A    between atoms: C_1  and  N_2
REMARK    2  A    between atoms: C_8  and  C_9
REMARK    3  A    between atoms: N_11  and  C_12
REMARK    4  A    between atoms: C_12  and  C_13
REMARK    5  A    between atoms: C_16  and  C_17
REMARK    6  A    between atoms: C_17  and  N_18
REMARK    7  A    between atoms: N_18  and  C_19
REMARK                            x       y       z     vdW  Elec       q    Type
REMARK                         _______ _______ _______ _____ _____    ______ ____
ROOT
ATOM      1  C   UNL     1      47.164   7.816  11.996  0.00  0.00    +0.000 C 
ENDROOT
BRANCH   1   2
ATOM      2  C   UNL     1      47.952   7.867  13.271  0.00  0.00    +0.000 A 
ATOM      3  C   UNL     1      47.647   8.792  14.269  0.00  0.00    +0.000 A 
ATOM      4  C   UNL     1      48.390   8.814  15.446  0.00  0.00    +0.000 A 
ATOM      5  C   UNL     1      49.424   7.896  15.610  0.00  0.00    +0.000 A 
ATOM      6  N   UNL     1      49.748   6.991  14.647  0.00  0.00    +0.000 NA
ATOM      7  C   UNL     1      49.003   6.991  13.517  0.00  0.00    +0.000 A 
BRANCH   5   8
ATOM      8  C   UNL     1      50.220   7.865  16.903  0.00  0.00    +0.000 C 
BRANCH   8   9
ATOM      9  N   UNL     1      49.567   7.091  17.955  0.00  0.00    +0.000 N 
ATOM     10  H   UNL     1      48.644   7.456  18.177  0.00  0.00    +0.000 HD
BRANCH   9  11
ATOM     11  C   UNL     1      49.547   5.697  17.838  0.00  0.00    +0.000 A 
ATOM     12  N   UNL     1      50.667   5.049  17.435  0.00  0.00    +0.000 NA
ATOM     13  C   UNL     1      50.658   3.696  17.422  0.00  0.00    +0.000 A 
ATOM     14  C   UNL     1      49.578   2.924  17.811  0.00  0.00    +0.000 A 
ATOM     15  C   UNL     1      48.429   3.581  18.229  0.00  0.00    +0.000 A 
ATOM     16  C   UNL     1      48.409   4.977  18.243  0.00  0.00    +0.000 A 
ATOM     17 CL   UNL     1      46.966   5.770  18.772  0.00  0.00    +0.000 Cl
ENDBRANCH   9  11
ENDBRANCH   8   9
ENDBRANCH   5   8
ENDBRANCH   1   2
BRANCH   1  20
ATOM     18  C   UNL     1      45.162   6.444  11.525  0.00  0.00    +0.000 C 
ATOM     19  O   UNL     1      44.403   7.409  11.530  0.00  0.00    +0.000 OA
ATOM     20  N   UNL     1      46.497   6.550  11.816  0.00  0.00    +0.000 N 
ATOM     21  H   UNL     1      47.096   5.748  11.658  0.00  0.00    +0.000 HD
BRANCH  18  29
ATOM     22  C   UNL     1      46.448   3.599   6.748  0.00  0.00    +0.000 C 
ATOM     23  N   UNL     1      45.692   3.429   7.970  0.00  0.00    +0.000 N 
ATOM     24  C   UNL     1      45.010   2.256   8.221  0.00  0.00    +0.000 A 
ATOM     25  N   UNL     1      44.314   2.005   9.282  0.00  0.00    +0.000 NA
ATOM     26  C   UNL     1      44.282   3.016  10.187  0.00  0.00    +0.000 A 
ATOM     27  S   UNL     1      43.377   2.879  11.622  0.00  0.00    +0.000 S 
ATOM     28  C   UNL     1      43.817   4.451  12.116  0.00  0.00    +0.000 A 
ATOM     29  C   UNL     1      44.677   5.089  11.234  0.00  0.00    +0.000 A 
ATOM     30  C   UNL     1      44.926   4.234  10.094  0.00  0.00    +0.000 A 
ATOM     31  C   UNL     1      45.711   4.469   8.894  0.00  0.00    +0.000 A 
ATOM     32  O   UNL     1      46.368   5.493   8.724  0.00  0.00    +0.000 OA
ENDBRANCH  18  29
ENDBRANCH   1  20
TORSDOF 6
ENDMDL
MODEL 6
REMARK VINA RESULT:    -7.035      2.461      3.249
REMARK INTER + INTRA:         -10.463
REMARK INTER:                  -9.219
REMARK INTRA:                  -1.244
REMARK UNBOUND:                -0.960
REMARK  Name = 
REMARK  7 active torsions:
REMARK  status: ('A' for Active; 'I' for Inactive)
REMARK    1  A    between atoms: C_1  and  N_2
REMARK    2  A    between atoms: C_8  and  C_9
REMARK    3  A    between atoms: N_11  and  C_12
REMARK    4  A    between atoms: C_12  and  C_13
REMARK    5  A    between atoms: C_16  and  C_17
REMARK    6  A    between atoms: C_17  and  N_18
REMARK    7  A    between atoms: N_18  and  C_19
REMARK                            x       y       z     vdW  Elec       q    Type
REMARK                         _______ _______ _______ _____ _____    ______ ____
ROOT
ATOM      1  C   UNL     1      49.188   8.948  14.102  0.00  0.00    +0.000 C 
ENDROOT
BRANCH   1   2
ATOM      2  C   UNL     1      48.050   8.355  13.327  0.00  0.00    +0.000 A 
ATOM      3  C   UNL     1      48.210   7.174  12.601  0.00  0.00    +0.000 A 
ATOM      4  C   UNL     1      47.135   6.642  11.895  0.00  0.00    +0.000 A 
ATOM      5  C   UNL     1      45.907   7.297  11.937  0.00  0.00    +0.000 A 
ATOM      6  N   UNL     1      45.728   8.455  12.628  0.00  0.00    +0.000 NA
ATOM      7  C   UNL     1      46.791   8.945  13.310  0.00  0.00    +0.000 A 
BRANCH   5   8
ATOM      8  C   UNL     1      44.705   6.713  11.216  0.00  0.00    +0.000 C 
BRANCH   8   9
ATOM      9  N   UNL     1      44.561   5.275  11.423  0.00  0.00    +0.000 N 
ATOM     10  H   UNL     1      43.716   5.049  11.942  0.00  0.00    +0.000 HD
BRANCH   9  11
ATOM     11  C   UNL     1      44.722   4.427  10.321  0.00  0.00    +0.000 A 
ATOM     12  N   UNL     1      45.429   4.859   9.249  0.00  0.00    +0.000 NA
ATOM     13  C   UNL     1      45.657   3.991   8.236  0.00  0.00    +0.000 A 
ATOM     14  C   UNL     1      45.225   2.677   8.229  0.00  0.00    +0.000 A 
ATOM     15  C   UNL     1      44.503   2.227   9.326  0.00  0.00    +0.000 A 
ATOM     16  C   UNL     1      44.247   3.105  10.381  0.00  0.00    +0.000 A 
ATOM     17 CL   UNL     1      43.349   2.517  11.736  0.00  0.00    +0.000 Cl
ENDBRANCH   9  11
ENDBRANCH   8   9
ENDBRANCH   5   8
ENDBRANCH   1   2
BRANCH   1  20
ATOM     18  C   UNL     1      48.712   8.523  16.491  0.00  0.00    +0.000 C 
ATOM     19  O   UNL     1      47.923   9.460  16.581  0.00  0.00    +0.000 OA
ATOM     20  N   UNL     1      49.419   8.258  15.347  0.00  0.00    +0.000 N 
ATOM     21  H   UNL     1      49.943   7.392  15.287  0.00  0.00    +0.000 HD
BRANCH  18  29
ATOM     22  C   UNL     1      48.038   2.860  16.271  0.00  0.00    +0.000 C 
ATOM     23  N   UNL     1      48.443   3.894  17.200  0.00  0.00    +0.000 N 
ATOM     24  C   UNL     1      48.829   3.575  18.486  0.00  0.00    +0.000 A 
ATOM     25  N   UNL     1      49.213   4.421  19.386  0.00  0.00    +0.000 NA
ATOM     26  C   UNL     1      49.211   5.716  18.979  0.00  0.00    +0.000 A 
ATOM     27  S   UNL     1      49.642   6.971  20.044  0.00  0.00    +0.000 S 
ATOM     28  C   UNL     1      49.362   8.158  18.851  0.00  0.00    +0.000 A 
ATOM     29  C   UNL     1      48.976   7.631  17.627  0.00  0.00    +0.000 A 
ATOM     30  C   UNL     1      48.876   6.192  17.726  0.00  0.00    +0.000 A 
ATOM     31  C   UNL     1      48.467   5.206  16.739  0.00  0.00    +0.000 A 
ATOM     32  O   UNL     1      48.195   5.506  15.579  0.00  0.00    +0.000 OA
ENDBRANCH  18  29
ENDBRANCH   1  20
TORSDOF 6
ENDMDL
MODEL 7
REMARK VINA RESULT:    -6.994      4.241      9.514
REMARK INTER + INTRA:         -10.407
REMARK INTER:                  -9.660
REMARK INTRA:                  -0.747
REMARK UNBOUND:                -0.960
REMARK  Name = 
REMARK  7 active torsions:
REMARK  status: ('A' for Active; 'I' for Inactive)
REMARK    1  A    between atoms: C_1  and  N_2
REMARK    2  A    between atoms: C_8  and  C_9
REMARK    3  A    between atoms: N_11  and  C_12
REMARK    4  A    between atoms: C_12  and  C_13
REMARK    5  A    between atoms: C_16  and  C_17
REMARK    6  A    between atoms: C_17  and  N_18
REMARK    7  A    between atoms: N_18  and  C_19
REMARK                            x       y       z     vdW  Elec       q    Type
REMARK                         _______ _______ _______ _____ _____    ______ ____
ROOT
ATOM      1  C   UNL     1      47.645   3.635  17.136  0.00  0.00    +0.000 C 
ENDROOT
BRANCH   1   2
ATOM      2  C   UNL     1      49.074   3.228  17.335  0.00  0.00    +0.000 A 
ATOM      3  C   UNL     1      49.971   4.056  18.011  0.00  0.00    +0.000 A 
ATOM      4  C   UNL     1      51.291   3.651  18.189  0.00  0.00    +0.000 A 
ATOM      5  C   UNL     1      51.691   2.412  17.695  0.00  0.00    +0.000 A 
ATOM      6  N   UNL     1      50.839   1.592  17.023  0.00  0.00    +0.000 NA
ATOM      7  C   UNL     1      49.560   2.011  16.872  0.00  0.00    +0.000 A 
BRANCH   5   8
ATOM      8  C   UNL     1      53.112   1.925  17.916  0.00  0.00    +0.000 C 
BRANCH   8   9
ATOM      9  N   UNL     1      53.174   0.538  18.368  0.00  0.00    +0.000 N 
ATOM     10  H   UNL     1      52.248   0.147  18.522  0.00  0.00    +0.000 HD
BRANCH   9  11
ATOM     11  C   UNL     1      53.991  -0.354  17.664  0.00  0.00    +0.000 A 
ATOM     12  N   UNL     1      54.640   0.076  16.555  0.00  0.00    +0.000 NA
ATOM     13  C   UNL     1      55.500  -0.772  15.944  0.00  0.00    +0.000 A 
ATOM     14  C   UNL     1      55.774  -2.053  16.390  0.00  0.00    +0.000 A 
ATOM     15  C   UNL     1      55.116  -2.497  17.528  0.00  0.00    +0.000 A 
ATOM     16  C   UNL     1      54.216  -1.646  18.172  0.00  0.00    +0.000 A 
ATOM     17 CL   UNL     1      53.413  -2.224  19.589  0.00  0.00    +0.000 Cl
ENDBRANCH   9  11
ENDBRANCH   8   9
ENDBRANCH   5   8
ENDBRANCH   1   2
BRANCH   1  20
ATOM     18  C   UNL     1      47.313   4.393  14.806  0.00  0.00    +0.000 C 
ATOM     19  O   UNL     1      47.383   3.257  14.343  0.00  0.00    +0.000 OA
ATOM     20  N   UNL     1      47.504   4.664  16.136  0.00  0.00    +0.000 N 
ATOM     21  H   UNL     1      47.295   5.594  16.479  0.00  0.00    +0.000 HD
BRANCH  18  29
ATOM     22  C   UNL     1      42.592   4.961  11.651  0.00  0.00    +0.000 C 
ATOM     23  N   UNL     1      43.816   5.672  11.953  0.00  0.00    +0.000 N 
ATOM     24  C   UNL     1      44.077   6.902  11.384  0.00  0.00    +0.000 A 
ATOM     25  N   UNL     1      45.134   7.617  11.594  0.00  0.00    +0.000 NA
ATOM     26  C   UNL     1      46.030   7.060  12.449  0.00  0.00    +0.000 A 
ATOM     27  S   UNL     1      47.501   7.838  12.807  0.00  0.00    +0.000 S 
ATOM     28  C   UNL     1      47.991   6.564  13.830  0.00  0.00    +0.000 A 
ATOM     29  C   UNL     1      47.047   5.554  13.948  0.00  0.00    +0.000 A 
ATOM     30  C   UNL     1      45.905   5.855  13.113  0.00  0.00    +0.000 A 
ATOM     31  C   UNL     1      44.695   5.092  12.862  0.00  0.00    +0.000 A 
ATOM     32  O   UNL     1      44.451   4.032  13.434  0.00  0.00    +0.000 OA
ENDBRANCH  18  29
ENDBRANCH   1  20
TORSDOF 6
ENDMDL
MODEL 8
REMARK VINA RESULT:    -6.694      4.331      8.723
REMARK INTER + INTRA:         -10.002
REMARK INTER:                  -8.601
REMARK INTRA:                  -1.401
REMARK UNBOUND:                -0.960
REMARK  Name = 
REMARK  7 active torsions:
REMARK  status: ('A' for Active; 'I' for Inactive)
REMARK    1  A    between atoms: C_1  and  N_2
REMARK    2  A    between atoms: C_8  and  C_9
REMARK    3  A    between atoms: N_11  and  C_12
REMARK    4  A    between atoms: C_12  and  C_13
REMARK    5  A    between atoms: C_16  and  C_17
REMARK    6  A    between atoms: C_17  and  N_18
REMARK    7  A    between atoms: N_18  and  C_19
REMARK                            x       y       z     vdW  Elec       q    Type
REMARK                         _______ _______ _______ _____ _____    ______ ____
ROOT
ATOM      1  C   UNL     1      47.308   3.377  17.002  0.00  0.00    +0.000 C 
ENDROOT
BRANCH   1   2
ATOM      2  C   UNL     1      48.775   3.352  17.313  0.00  0.00    +0.000 A 
ATOM      3  C   UNL     1      49.560   2.243  16.995  0.00  0.00    +0.000 A 
ATOM      4  C   UNL     1      50.920   2.248  17.288  0.00  0.00    +0.000 A 
ATOM      5  C   UNL     1      51.479   3.374  17.888  0.00  0.00    +0.000 A 
ATOM      6  N   UNL     1      50.733   4.463  18.218  0.00  0.00    +0.000 NA
ATOM      7  C   UNL     1      49.414   4.430  17.914  0.00  0.00    +0.000 A 
BRANCH   5   8
ATOM      8  C   UNL     1      52.969   3.426  18.176  0.00  0.00    +0.000 C 
BRANCH   8   9
ATOM      9  N   UNL     1      53.495   4.788  18.208  0.00  0.00    +0.000 N 
ATOM     10  H   UNL     1      54.046   4.962  19.045  0.00  0.00    +0.000 HD
BRANCH   9  11
ATOM     11  C   UNL     1      54.138   5.279  17.066  0.00  0.00    +0.000 A 
ATOM     12  N   UNL     1      55.225   4.627  16.586  0.00  0.00    +0.000 NA
ATOM     13  C   UNL     1      55.774   5.060  15.427  0.00  0.00    +0.000 A 
ATOM     14  C   UNL     1      55.286   6.122  14.687  0.00  0.00    +0.000 A 
ATOM     15  C   UNL     1      54.170   6.790  15.172  0.00  0.00    +0.000 A 
ATOM     16  C   UNL     1      53.590   6.370  16.369  0.00  0.00    +0.000 A 
ATOM     17 CL   UNL     1      52.199   7.218  16.948  0.00  0.00    +0.000 Cl
ENDBRANCH   9  11
ENDBRANCH   8   9
ENDBRANCH   5   8
ENDBRANCH   1   2
BRANCH   1  20
ATOM     18  C   UNL     1      46.961   4.095  14.662  0.00  0.00    +0.000 C 
ATOM     19  O   UNL     1      47.357   3.031  14.194  0.00  0.00    +0.000 OA
ATOM     20  N   UNL     1      46.978   4.365  16.006  0.00  0.00    +0.000 N 
ATOM     21  H   UNL     1      46.510   5.199  16.341  0.00  0.00    +0.000 HD
BRANCH  18  29
ATOM     22  C   UNL     1      49.848   8.920  13.690  0.00  0.00    +0.000 C 
ATOM     23  N   UNL     1      48.600   8.282  13.328  0.00  0.00    +0.000 N 
ATOM     24  C   UNL     1      47.711   8.904  12.474  0.00  0.00    +0.000 A 
ATOM     25  N   UNL     1      46.578   8.417  12.087  0.00  0.00    +0.000 NA
ATOM     26  C   UNL     1      46.287   7.193  12.596  0.00  0.00    +0.000 A 
ATOM     27  S   UNL     1      44.816   6.418  12.231  0.00  0.00    +0.000 S 
ATOM     28  C   UNL     1      45.212   5.080  13.213  0.00  0.00    +0.000 A 
ATOM     29  C   UNL     1      46.465   5.175  13.799  0.00  0.00    +0.000 A 
ATOM     30  C   UNL     1      47.077   6.435  13.439  0.00  0.00    +0.000 A 
ATOM     31  C   UNL     1      48.350   7.012  13.837  0.00  0.00    +0.000 A 
ATOM     32  O   UNL     1      49.158   6.410  14.540  0.00  0.00    +0.000 OA
ENDBRANCH  18  29
ENDBRANCH   1  20
TORSDOF 6
ENDMDL
MODEL 9
REMARK VINA RESULT:    -6.611      4.402      9.471
REMARK INTER + INTRA:          -9.889
REMARK INTER:                  -8.759
REMARK INTRA:                  -1.130
REMARK UNBOUND:                -0.960
REMARK  Name = 
REMARK  7 active torsions:
REMARK  status: ('A' for Active; 'I' for Inactive)
REMARK    1  A    between atoms: C_1  and  N_2
REMARK    2  A    between atoms: C_8  and  C_9
REMARK    3  A    between atoms: N_11  and  C_12
REMARK    4  A    between atoms: C_12  and  C_13
REMARK    5  A    between atoms: C_16  and  C_17
REMARK    6  A    between atoms: C_17  and  N_18
REMARK    7  A    between atoms: N_18  and  C_19
REMARK                            x       y       z     vdW  Elec       q    Type
REMARK                         _______ _______ _______ _____ _____    ______ ____
ROOT
ATOM      1  C   UNL     1      47.302   3.366  16.782  0.00  0.00    +0.000 C 
ENDROOT
BRANCH   1   2
ATOM      2  C   UNL     1      48.755   3.312  17.148  0.00  0.00    +0.000 A 
ATOM      3  C   UNL     1      49.521   2.176  16.889  0.00  0.00    +0.000 A 
ATOM      4  C   UNL     1      50.869   2.154  17.233  0.00  0.00    +0.000 A 
ATOM      5  C   UNL     1      51.436   3.281  17.823  0.00  0.00    +0.000 A 
ATOM      6  N   UNL     1      50.707   4.397  18.096  0.00  0.00    +0.000 NA
ATOM      7  C   UNL     1      49.400   4.390  17.744  0.00  0.00    +0.000 A 
BRANCH   5   8
ATOM      8  C   UNL     1      52.915   3.303  18.164  0.00  0.00    +0.000 C 
BRANCH   8   9
ATOM      9  N   UNL     1      53.659   2.211  17.543  0.00  0.00    +0.000 N 
ATOM     10  H   UNL     1      54.225   2.534  16.763  0.00  0.00    +0.000 HD
BRANCH   9  11
ATOM     11  C   UNL     1      54.381   1.345  18.371  0.00  0.00    +0.000 A 
ATOM     12  N   UNL     1      54.675   1.729  19.637  0.00  0.00    +0.000 NA
ATOM     13  C   UNL     1      55.288   0.840  20.453  0.00  0.00    +0.000 A 
ATOM     14  C   UNL     1      55.624  -0.450  20.081  0.00  0.00    +0.000 A 
ATOM     15  C   UNL     1      55.322  -0.850  18.787  0.00  0.00    +0.000 A 
ATOM     16  C   UNL     1      54.698   0.050  17.923  0.00  0.00    +0.000 A 
ATOM     17 CL   UNL     1      54.329  -0.476  16.318  0.00  0.00    +0.000 Cl
ENDBRANCH   9  11
ENDBRANCH   8   9
ENDBRANCH   5   8
ENDBRANCH   1   2
BRANCH   1  20
ATOM     18  C   UNL     1      46.953   4.200  14.481  0.00  0.00    +0.000 C 
ATOM     19  O   UNL     1      47.269   3.132  13.962  0.00  0.00    +0.000 OA
ATOM     20  N   UNL     1      47.016   4.414  15.833  0.00  0.00    +0.000 N 
ATOM     21  H   UNL     1      46.610   5.261  16.213  0.00  0.00    +0.000 HD
BRANCH  18  29
ATOM     22  C   UNL     1      49.985   9.000  13.901  0.00  0.00    +0.000 C 
ATOM     23  N   UNL     1      48.734   8.419  13.462  0.00  0.00    +0.000 N 
ATOM     24  C   UNL     1      47.887   9.115  12.623  0.00  0.00    +0.000 A 
ATOM     25  N   UNL     1      46.756   8.682  12.172  0.00  0.00    +0.000 NA
ATOM     26  C   UNL     1      46.419   7.437  12.594  0.00  0.00    +0.000 A 
ATOM     27  S   UNL     1      44.943   6.724  12.137  0.00  0.00    +0.000 S 
ATOM     28  C   UNL     1      45.275   5.318  13.044  0.00  0.00    +0.000 A 
ATOM     29  C   UNL     1      46.511   5.344  13.673  0.00  0.00    +0.000 A 
ATOM     30  C   UNL     1      47.164   6.608  13.411  0.00  0.00    +0.000 A 
ATOM     31  C   UNL     1      48.437   7.126  13.883  0.00  0.00    +0.000 A 
ATOM     32  O   UNL     1      49.207   6.461  14.572  0.00  0.00    +0.000 OA
ENDBRANCH  18  29
ENDBRANCH   1  20
TORSDOF 6
ENDMDL
