MODEL 1
REMARK VINA RESULT:    -9.023      0.000      0.000
REMARK INTER + INTRA:         -12.954
REMARK INTER:                 -12.188
REMARK INTRA:                  -0.766
REMARK UNBOUND:                -0.766
REMARK  Name = 
REMARK  7 active torsions:
REMARK  status: ('A' for Active; 'I' for Inactive)
REMARK    1  A    between atoms: C_1  and  C_2
REMARK    2  A    between atoms: C_2  and  C_3
REMARK    3  A    between atoms: C_2  and  C_24
REMARK    4  A    between atoms: C_3  and  N_4
REMARK    5  A    between atoms: C_7  and  C_8
REMARK    6  A    between atoms: C_8  and  N_9
REMARK    7  A    between atoms: C_10  and  C_12
REMARK                            x       y       z     vdW  Elec       q    Type
REMARK                         _______ _______ _______ _____ _____    ______ ____
ROOT
ATOM      1  C   UNL     1      45.402   4.693  13.353  0.00  0.00    +0.000 C 
ENDROOT
BRANCH   1   5
ATOM      2  N   UNL     1      44.082   5.014   9.926  0.00  0.00    +0.000 NA
ATOM      3  C   UNL     1      43.350   4.407  11.047  0.00  0.00    +0.000 C 
ATOM      4  C   UNL     1      43.220   5.377  12.217  0.00  0.00    +0.000 C 
ATOM      5  C   UNL     1      44.591   5.834  12.719  0.00  0.00    +0.000 C 
ATOM      6  C   UNL     1      45.347   6.449  11.532  0.00  0.00    +0.000 C 
ATOM      7  C   UNL     1      45.411   5.498  10.329  0.00  0.00    +0.000 C 
BRANCH   2   8
ATOM      8  C   UNL     1      44.225   4.063   8.797  0.00  0.00    +0.000 C 
BRANCH   8  10
ATOM      9  C   UNL     1      44.238   1.593   9.409  0.00  0.00    +0.000 C 
ATOM     10  C   UNL     1      45.099   2.821   9.095  0.00  0.00    +0.000 C 
BRANCH  10  11
ATOM     11  C   UNL     1      46.074   2.604   7.950  0.00  0.00    +0.000 A 
ATOM     12  C   UNL     1      46.199   3.592   6.970  0.00  0.00    +0.000 A 
ATOM     13  C   UNL     1      47.038   3.368   5.882  0.00  0.00    +0.000 A 
ATOM     14  C   UNL     1      47.735   2.172   5.801  0.00  0.00    +0.000 A 
ATOM     15  C   UNL     1      47.561   1.245   6.815  0.00  0.00    +0.000 A 
ATOM     16  N   UNL     1      46.742   1.428   7.875  0.00  0.00    +0.000 NA
ENDBRANCH  10  11
ENDBRANCH   8  10
ENDBRANCH   2   8
ENDBRANCH   1   5
BRANCH   1  17
ATOM     17  N   UNL     1      46.198   5.138  14.479  0.00  0.00    +0.000 N 
ATOM     18  C   UNL     1      47.201   4.362  15.008  0.00  0.00    +0.000 C 
ATOM     19  O   UNL     1      47.468   3.239  14.578  0.00  0.00    +0.000 OA
ATOM     20  H   UNL     1      45.917   5.990  14.960  0.00  0.00    +0.000 HD
BRANCH  18  21
ATOM     21  C   UNL     1      47.994   4.957  16.078  0.00  0.00    +0.000 A 
ATOM     22  C   UNL     1      48.740   6.104  15.832  0.00  0.00    +0.000 A 
ATOM     23  S   UNL     1      49.588   6.664  17.201  0.00  0.00    +0.000 S 
ATOM     24  C   UNL     1      49.029   5.365  18.141  0.00  0.00    +0.000 A 
ATOM     25  N   UNL     1      49.402   5.200  19.438  0.00  0.00    +0.000 NA
ATOM     26  N   UNL     1      48.991   4.198  20.073  0.00  0.00    +0.000 NA
ATOM     27  N   UNL     1      48.161   3.306  19.453  0.00  0.00    +0.000 N 
ATOM     28  C   UNL     1      47.691   3.396  18.165  0.00  0.00    +0.000 A 
ATOM     29  O   UNL     1      46.908   2.576  17.697  0.00  0.00    +0.000 OA
ATOM     30  C   UNL     1      48.189   4.535  17.436  0.00  0.00    +0.000 A 
ATOM     31  H   UNL     1      47.861   2.520  20.017  0.00  0.00    +0.000 HD
ENDBRANCH  18  21
ENDBRANCH   1  17
TORSDOF 6
ENDMDL
MODEL 2
REMARK VINA RESULT:    -8.774      1.414      2.105
REMARK INTER + INTRA:         -12.617
REMARK INTER:                 -11.581
REMARK INTRA:                  -1.036
REMARK UNBOUND:                -0.766
REMARK  Name = 
REMARK  7 active torsions:
REMARK  status: ('A' for Active; 'I' for Inactive)
REMARK    1  A    between atoms: C_1  and  C_2
REMARK    2  A    between atoms: C_2  and  C_3
REMARK    3  A    between atoms: C_2  and  C_24
REMARK    4  A    between atoms: C_3  and  N_4
REMARK    5  A    between atoms: C_7  and  C_8
REMARK    6  A    between atoms: C_8  and  N_9
REMARK    7  A    between atoms: C_10  and  C_12
REMARK                            x       y       z     vdW  Elec       q    Type
REMARK                         _______ _______ _______ _____ _____    ______ ____
ROOT
ATOM      1  C   UNL     1      45.989   4.724  13.404  0.00  0.00    +0.000 C 
ENDROOT
BRANCH   1   5
ATOM      2  N   UNL     1      44.269   5.079  10.163  0.00  0.00    +0.000 NA
ATOM      3  C   UNL     1      43.663   4.491  11.367  0.00  0.00    +0.000 C 
ATOM      4  C   UNL     1      43.703   5.465  12.540  0.00  0.00    +0.000 C 
ATOM      5  C   UNL     1      45.137   5.886  12.870  0.00  0.00    +0.000 C 
ATOM      6  C   UNL     1      45.757   6.480  11.597  0.00  0.00    +0.000 C 
ATOM      7  C   UNL     1      45.649   5.528  10.399  0.00  0.00    +0.000 C 
BRANCH   2   8
ATOM      8  C   UNL     1      44.247   4.124   9.029  0.00  0.00    +0.000 C 
BRANCH   8  10
ATOM      9  C   UNL     1      44.162   1.627   9.513  0.00  0.00    +0.000 C 
ATOM     10  C   UNL     1      45.071   2.832   9.246  0.00  0.00    +0.000 C 
BRANCH  10  11
ATOM     11  C   UNL     1      46.017   2.633   8.073  0.00  0.00    +0.000 A 
ATOM     12  C   UNL     1      46.067   3.604   7.071  0.00  0.00    +0.000 A 
ATOM     13  C   UNL     1      46.879   3.394   5.961  0.00  0.00    +0.000 A 
ATOM     14  C   UNL     1      47.624   2.228   5.879  0.00  0.00    +0.000 A 
ATOM     15  C   UNL     1      47.524   1.315   6.916  0.00  0.00    +0.000 A 
ATOM     16  N   UNL     1      46.733   1.486   8.000  0.00  0.00    +0.000 NA
ENDBRANCH  10  11
ENDBRANCH   8  10
ENDBRANCH   2   8
ENDBRANCH   1   5
BRANCH   1  17
ATOM     17  N   UNL     1      46.612   5.033  14.675  0.00  0.00    +0.000 N 
ATOM     18  C   UNL     1      47.380   4.112  15.347  0.00  0.00    +0.000 C 
ATOM     19  O   UNL     1      47.563   2.969  14.928  0.00  0.00    +0.000 OA
ATOM     20  H   UNL     1      46.369   5.909  15.130  0.00  0.00    +0.000 HD
BRANCH  18  21
ATOM     21  C   UNL     1      48.032   4.570  16.568  0.00  0.00    +0.000 A 
ATOM     22  C   UNL     1      47.780   3.925  17.773  0.00  0.00    +0.000 A 
ATOM     23  S   UNL     1      48.641   4.587  19.088  0.00  0.00    +0.000 S 
ATOM     24  C   UNL     1      49.329   5.783  18.099  0.00  0.00    +0.000 A 
ATOM     25  N   UNL     1      50.165   6.734  18.594  0.00  0.00    +0.000 NA
ATOM     26  N   UNL     1      50.612   7.621  17.825  0.00  0.00    +0.000 NA
ATOM     27  N   UNL     1      50.265   7.597  16.502  0.00  0.00    +0.000 N 
ATOM     28  C   UNL     1      49.464   6.663  15.891  0.00  0.00    +0.000 A 
ATOM     29  O   UNL     1      49.240   6.683  14.685  0.00  0.00    +0.000 OA
ATOM     30  C   UNL     1      48.935   5.665  16.787  0.00  0.00    +0.000 A 
ATOM     31  H   UNL     1      50.659   8.334  15.931  0.00  0.00    +0.000 HD
ENDBRANCH  18  21
ENDBRANCH   1  17
TORSDOF 6
ENDMDL
MODEL 3
REMARK VINA RESULT:    -7.434      2.471      3.721
REMARK INTER + INTRA:         -10.807
REMARK INTER:                  -9.910
REMARK INTRA:                  -0.897
REMARK UNBOUND:                -0.766
REMARK  Name = 
REMARK  7 active torsions:
REMARK  status: ('A' for Active; 'I' for Inactive)
REMARK    1  A    between atoms: C_1  and  C_2
REMARK    2  A    between atoms: C_2  and  C_3
REMARK    3  A    between atoms: C_2  and  C_24
REMARK    4  A    between atoms: C_3  and  N_4
REMARK    5  A    between atoms: C_7  and  C_8
REMARK    6  A    between atoms: C_8  and  N_9
REMARK    7  A    between atoms: C_10  and  C_12
REMARK                            x       y       z     vdW  Elec       q    Type
REMARK                         _______ _______ _______ _____ _____    ______ ____
ROOT
ATOM      1  C   UNL     1      47.802   6.251  15.171  0.00  0.00    +0.000 C 
ENDROOT
BRANCH   1   5
ATOM      2  N   UNL     1      45.323   4.896  12.801  0.00  0.00    +0.000 NA
ATOM      3  C   UNL     1      45.550   6.329  13.040  0.00  0.00    +0.000 C 
ATOM      4  C   UNL     1      47.005   6.710  12.788  0.00  0.00    +0.000 C 
ATOM      5  C   UNL     1      47.956   5.910  13.680  0.00  0.00    +0.000 C 
ATOM      6  C   UNL     1      47.692   4.418  13.430  0.00  0.00    +0.000 C 
ATOM      7  C   UNL     1      46.214   4.051  13.612  0.00  0.00    +0.000 C 
BRANCH   2   8
ATOM      8  C   UNL     1      43.913   4.523  13.066  0.00  0.00    +0.000 C 
BRANCH   8  10
ATOM      9  C   UNL     1      42.343   5.794  11.518  0.00  0.00    +0.000 C 
ATOM     10  C   UNL     1      43.010   4.446  11.811  0.00  0.00    +0.000 C 
BRANCH  10  11
ATOM     11  C   UNL     1      43.814   3.898  10.644  0.00  0.00    +0.000 A 
ATOM     12  C   UNL     1      44.414   4.793   9.754  0.00  0.00    +0.000 A 
ATOM     13  C   UNL     1      45.092   4.297   8.645  0.00  0.00    +0.000 A 
ATOM     14  C   UNL     1      45.161   2.925   8.453  0.00  0.00    +0.000 A 
ATOM     15  C   UNL     1      44.544   2.104   9.382  0.00  0.00    +0.000 A 
ATOM     16  N   UNL     1      43.867   2.557  10.460  0.00  0.00    +0.000 NA
ENDBRANCH  10  11
ENDBRANCH   8  10
ENDBRANCH   2   8
ENDBRANCH   1   5
BRANCH   1  17
ATOM     17  N   UNL     1      48.937   5.819  15.959  0.00  0.00    +0.000 N 
ATOM     18  C   UNL     1      48.818   4.853  16.930  0.00  0.00    +0.000 C 
ATOM     19  O   UNL     1      47.744   4.318  17.205  0.00  0.00    +0.000 OA
ATOM     20  H   UNL     1      49.809   6.335  15.870  0.00  0.00    +0.000 HD
BRANCH  18  21
ATOM     21  C   UNL     1      50.049   4.434  17.590  0.00  0.00    +0.000 A 
ATOM     22  C   UNL     1      50.773   5.346  18.350  0.00  0.00    +0.000 A 
ATOM     23  S   UNL     1      52.172   4.676  19.058  0.00  0.00    +0.000 S 
ATOM     24  C   UNL     1      51.880   3.171  18.328  0.00  0.00    +0.000 A 
ATOM     25  N   UNL     1      52.725   2.118  18.486  0.00  0.00    +0.000 NA
ATOM     26  N   UNL     1      52.483   1.040  17.889  0.00  0.00    +0.000 NA
ATOM     27  N   UNL     1      51.363   0.942  17.111  0.00  0.00    +0.000 N 
ATOM     28  C   UNL     1      50.424   1.926  16.915  0.00  0.00    +0.000 A 
ATOM     29  O   UNL     1      49.418   1.744  16.238  0.00  0.00    +0.000 OA
ATOM     30  C   UNL     1      50.725   3.168  17.583  0.00  0.00    +0.000 A 
ATOM     31  H   UNL     1      51.219   0.048  16.658  0.00  0.00    +0.000 HD
ENDBRANCH  18  21
ENDBRANCH   1  17
TORSDOF 6
ENDMDL
MODEL 4
REMARK VINA RESULT:    -7.237      3.452      9.686
REMARK INTER + INTRA:         -10.541
REMARK INTER:                  -9.482
REMARK INTRA:                  -1.059
REMARK UNBOUND:                -0.766
REMARK  Name = 
REMARK  7 active torsions:
REMARK  status: ('A' for Active; 'I' for Inactive)
REMARK    1  A    between atoms: C_1  and  C_2
REMARK    2  A    between atoms: C_2  and  C_3
REMARK    3  A    between atoms: C_2  and  C_24
REMARK    4  A    between atoms: C_3  and  N_4
REMARK    5  A    between atoms: C_7  and  C_8
REMARK    6  A    between atoms: C_8  and  N_9
REMARK    7  A    between atoms: C_10  and  C_12
REMARK                            x       y       z     vdW  Elec       q    Type
REMARK                         _______ _______ _______ _____ _____    ______ ____
ROOT
ATOM      1  C   UNL     1      47.810   4.772  15.997  0.00  0.00    +0.000 C 
ENDROOT
BRANCH   1   5
ATOM      2  N   UNL     1      49.365   4.417  19.321  0.00  0.00    +0.000 NA
ATOM      3  C   UNL     1      48.689   5.632  18.844  0.00  0.00    +0.000 C 
ATOM      4  C   UNL     1      47.252   5.341  18.424  0.00  0.00    +0.000 C 
ATOM      5  C   UNL     1      47.195   4.284  17.319  0.00  0.00    +0.000 C 
ATOM      6  C   UNL     1      47.921   3.030  17.829  0.00  0.00    +0.000 C 
ATOM      7  C   UNL     1      49.340   3.339  18.321  0.00  0.00    +0.000 C 
BRANCH   2   8
ATOM      8  C   UNL     1      50.767   4.698  19.711  0.00  0.00    +0.000 C 
BRANCH   8  10
ATOM      9  C   UNL     1      52.340   6.037  18.224  0.00  0.00    +0.000 C 
ATOM     10  C   UNL     1      51.791   4.644  18.551  0.00  0.00    +0.000 C 
BRANCH  10  11
ATOM     11  C   UNL     1      52.871   3.625  18.879  0.00  0.00    +0.000 A 
ATOM     12  C   UNL     1      53.019   2.506  18.056  0.00  0.00    +0.000 A 
ATOM     13  C   UNL     1      53.957   1.536  18.391  0.00  0.00    +0.000 A 
ATOM     14  C   UNL     1      54.730   1.707  19.530  0.00  0.00    +0.000 A 
ATOM     15  C   UNL     1      54.526   2.846  20.292  0.00  0.00    +0.000 A 
ATOM     16  N   UNL     1      53.612   3.798  19.999  0.00  0.00    +0.000 NA
ENDBRANCH  10  11
ENDBRANCH   8  10
ENDBRANCH   2   8
ENDBRANCH   1   5
BRANCH   1  17
ATOM     17  N   UNL     1      46.806   5.084  15.001  0.00  0.00    +0.000 N 
ATOM     18  C   UNL     1      47.133   5.680  13.806  0.00  0.00    +0.000 C 
ATOM     19  O   UNL     1      48.285   6.008  13.522  0.00  0.00    +0.000 OA
ATOM     20  H   UNL     1      45.827   4.968  15.252  0.00  0.00    +0.000 HD
BRANCH  18  21
ATOM     21  C   UNL     1      46.050   5.857  12.846  0.00  0.00    +0.000 A 
ATOM     22  C   UNL     1      45.665   7.137  12.463  0.00  0.00    +0.000 A 
ATOM     23  S   UNL     1      44.397   7.149  11.322  0.00  0.00    +0.000 S 
ATOM     24  C   UNL     1      44.291   5.454  11.350  0.00  0.00    +0.000 A 
ATOM     25  N   UNL     1      43.369   4.777  10.614  0.00  0.00    +0.000 NA
ATOM     26  N   UNL     1      43.307   3.527  10.705  0.00  0.00    +0.000 NA
ATOM     27  N   UNL     1      44.183   2.870  11.526  0.00  0.00    +0.000 N 
ATOM     28  C   UNL     1      45.175   3.448  12.279  0.00  0.00    +0.000 A 
ATOM     29  O   UNL     1      45.954   2.784  12.955  0.00  0.00    +0.000 OA
ATOM     30  C   UNL     1      45.221   4.886  12.188  0.00  0.00    +0.000 A 
ATOM     31  H   UNL     1      44.087   1.863  11.555  0.00  0.00    +0.000 HD
ENDBRANCH  18  21
ENDBRANCH   1  17
TORSDOF 6
ENDMDL
MODEL 5
REMARK VINA RESULT:    -7.061      3.599      9.188
REMARK INTER + INTRA:         -10.303
REMARK INTER:                  -9.170
REMARK INTRA:                  -1.134
REMARK UNBOUND:                -0.766
REMARK  Name = 
REMARK  7 active torsions:
REMARK  status: ('A' for Active; 'I' for Inactive)
REMARK    1  A    between atoms: C_1  and  C_2
REMARK    2  A    between atoms: C_2  and  C_3
REMARK    3  A    between atoms: C_2  and  C_24
REMARK    4  A    between atoms: C_3  and  N_4
REMARK    5  A    between atoms: C_7  and  C_8
REMARK    6  A    between atoms: C_8  and  N_9
REMARK    7  A    between atoms: C_10  and  C_12
REMARK                            x       y       z     vdW  Elec       q    Type
REMARK                         _______ _______ _______ _____ _____    ______ ____
ROOT
ATOM      1  C   UNL     1      48.185   5.119  15.970  0.00  0.00    +0.000 C 
ENDROOT
BRANCH   1   5
ATOM      2  N   UNL     1      50.369   2.970  18.021  0.00  0.00    +0.000 NA
ATOM      3  C   UNL     1      49.940   4.324  18.400  0.00  0.00    +0.000 C 
ATOM      4  C   UNL     1      48.419   4.440  18.421  0.00  0.00    +0.000 C 
ATOM      5  C   UNL     1      47.813   4.099  17.058  0.00  0.00    +0.000 C 
ATOM      6  C   UNL     1      48.287   2.690  16.671  0.00  0.00    +0.000 C 
ATOM      7  C   UNL     1      49.814   2.555  16.724  0.00  0.00    +0.000 C 
BRANCH   2   8
ATOM      8  C   UNL     1      51.847   2.865  17.982  0.00  0.00    +0.000 C 
BRANCH   8  10
ATOM      9  C   UNL     1      53.355   3.566  19.908  0.00  0.00    +0.000 C 
ATOM     10  C   UNL     1      52.604   4.034  18.657  0.00  0.00    +0.000 C 
BRANCH  10  11
ATOM     11  C   UNL     1      53.495   4.717  17.632  0.00  0.00    +0.000 A 
ATOM     12  C   UNL     1      53.000   5.819  16.930  0.00  0.00    +0.000 A 
ATOM     13  C   UNL     1      53.785   6.403  15.942  0.00  0.00    +0.000 A 
ATOM     14  C   UNL     1      55.044   5.882  15.681  0.00  0.00    +0.000 A 
ATOM     15  C   UNL     1      55.464   4.790  16.423  0.00  0.00    +0.000 A 
ATOM     16  N   UNL     1      54.719   4.193  17.379  0.00  0.00    +0.000 NA
ENDBRANCH  10  11
ENDBRANCH   8  10
ENDBRANCH   2   8
ENDBRANCH   1   5
BRANCH   1  17
ATOM     17  N   UNL     1      47.108   5.344  15.029  0.00  0.00    +0.000 N 
ATOM     18  C   UNL     1      47.343   5.814  13.759  0.00  0.00    +0.000 C 
ATOM     19  O   UNL     1      48.471   6.097  13.354  0.00  0.00    +0.000 OA
ATOM     20  H   UNL     1      46.151   5.267  15.365  0.00  0.00    +0.000 HD
BRANCH  18  21
ATOM     21  C   UNL     1      46.188   5.909  12.872  0.00  0.00    +0.000 A 
ATOM     22  C   UNL     1      45.741   7.155  12.449  0.00  0.00    +0.000 A 
ATOM     23  S   UNL     1      44.393   7.071  11.407  0.00  0.00    +0.000 S 
ATOM     24  C   UNL     1      44.337   5.378  11.536  0.00  0.00    +0.000 A 
ATOM     25  N   UNL     1      43.384   4.639  10.909  0.00  0.00    +0.000 NA
ATOM     26  N   UNL     1      43.364   3.394  11.074  0.00  0.00    +0.000 NA
ATOM     27  N   UNL     1      44.315   2.808  11.862  0.00  0.00    +0.000 N 
ATOM     28  C   UNL     1      45.344   3.452  12.507  0.00  0.00    +0.000 A 
ATOM     29  O   UNL     1      46.188   2.846  13.159  0.00  0.00    +0.000 OA
ATOM     30  C   UNL     1      45.342   4.883  12.333  0.00  0.00    +0.000 A 
ATOM     31  H   UNL     1      44.251   1.801  11.955  0.00  0.00    +0.000 HD
ENDBRANCH  18  21
ENDBRANCH   1  17
TORSDOF 6
ENDMDL
MODEL 6
REMARK VINA RESULT:    -6.997      3.854      7.941
REMARK INTER + INTRA:         -10.217
REMARK INTER:                  -9.385
REMARK INTRA:                  -0.832
REMARK UNBOUND:                -0.766
REMARK  Name = 
REMARK  7 active torsions:
REMARK  status: ('A' for Active; 'I' for Inactive)
REMARK    1  A    between atoms: C_1  and  C_2
REMARK    2  A    between atoms: C_2  and  C_3
REMARK    3  A    between atoms: C_2  and  C_24
REMARK    4  A    between atoms: C_3  and  N_4
REMARK    5  A    between atoms: C_7  and  C_8
REMARK    6  A    between atoms: C_8  and  N_9
REMARK    7  A    between atoms: C_10  and  C_12
REMARK                            x       y       z     vdW  Elec       q    Type
REMARK                         _______ _______ _______ _____ _____    ______ ____
ROOT
ATOM      1  C   UNL     1      47.513   3.474  16.430  0.00  0.00    +0.000 C 
ENDROOT
BRANCH   1   5
ATOM      2  N   UNL     1      50.061   6.033  17.175  0.00  0.00    +0.000 NA
ATOM      3  C   UNL     1      48.656   6.326  16.856  0.00  0.00    +0.000 C 
ATOM      4  C   UNL     1      47.709   5.611  17.815  0.00  0.00    +0.000 C 
ATOM      5  C   UNL     1      47.913   4.095  17.778  0.00  0.00    +0.000 C 
ATOM      6  C   UNL     1      49.389   3.811  18.095  0.00  0.00    +0.000 C 
ATOM      7  C   UNL     1      50.341   4.589  17.177  0.00  0.00    +0.000 C 
BRANCH   2   8
ATOM      8  C   UNL     1      50.980   6.712  16.229  0.00  0.00    +0.000 C 
BRANCH   8  10
ATOM      9  C   UNL     1      51.076   9.247  16.426  0.00  0.00    +0.000 C 
ATOM     10  C   UNL     1      50.465   8.061  15.672  0.00  0.00    +0.000 C 
BRANCH  10  11
ATOM     11  C   UNL     1      50.698   8.109  14.171  0.00  0.00    +0.000 A 
ATOM     12  C   UNL     1      49.686   7.668  13.314  0.00  0.00    +0.000 A 
ATOM     13  C   UNL     1      49.920   7.643  11.943  0.00  0.00    +0.000 A 
ATOM     14  C   UNL     1      51.150   8.063  11.459  0.00  0.00    +0.000 A 
ATOM     15  C   UNL     1      52.100   8.489  12.372  0.00  0.00    +0.000 A 
ATOM     16  N   UNL     1      51.906   8.511  13.710  0.00  0.00    +0.000 NA
ENDBRANCH  10  11
ENDBRANCH   8  10
ENDBRANCH   2   8
ENDBRANCH   1   5
BRANCH   1  17
ATOM     17  N   UNL     1      46.842   4.419  15.562  0.00  0.00    +0.000 N 
ATOM     18  C   UNL     1      46.820   4.259  14.197  0.00  0.00    +0.000 C 
ATOM     19  O   UNL     1      47.387   3.325  13.630  0.00  0.00    +0.000 OA
ATOM     20  H   UNL     1      46.489   5.282  15.971  0.00  0.00    +0.000 HD
BRANCH  18  21
ATOM     21  C   UNL     1      46.032   5.223  13.438  0.00  0.00    +0.000 A 
ATOM     22  C   UNL     1      46.430   6.554  13.384  0.00  0.00    +0.000 A 
ATOM     23  S   UNL     1      45.398   7.530  12.439  0.00  0.00    +0.000 S 
ATOM     24  C   UNL     1      44.367   6.219  12.122  0.00  0.00    +0.000 A 
ATOM     25  N   UNL     1      43.235   6.354  11.381  0.00  0.00    +0.000 NA
ATOM     26  N   UNL     1      42.486   5.360  11.214  0.00  0.00    +0.000 NA
ATOM     27  N   UNL     1      42.837   4.158  11.762  0.00  0.00    +0.000 N 
ATOM     28  C   UNL     1      43.973   3.900  12.491  0.00  0.00    +0.000 A 
ATOM     29  O   UNL     1      44.240   2.778  12.909  0.00  0.00    +0.000 OA
ATOM     30  C   UNL     1      44.812   5.053  12.700  0.00  0.00    +0.000 A 
ATOM     31  H   UNL     1      42.196   3.393  11.591  0.00  0.00    +0.000 HD
ENDBRANCH  18  21
ENDBRANCH   1  17
TORSDOF 6
ENDMDL
MODEL 7
REMARK VINA RESULT:    -6.928      2.973      4.024
REMARK INTER + INTRA:         -10.124
REMARK INTER:                  -9.030
REMARK INTRA:                  -1.094
REMARK UNBOUND:                -0.766
REMARK  Name = 
REMARK  7 active torsions:
REMARK  status: ('A' for Active; 'I' for Inactive)
REMARK    1  A    between atoms: C_1  and  C_2
REMARK    2  A    between atoms: C_2  and  C_3
REMARK    3  A    between atoms: C_2  and  C_24
REMARK    4  A    between atoms: C_3  and  N_4
REMARK    5  A    between atoms: C_7  and  C_8
REMARK    6  A    between atoms: C_8  and  N_9
REMARK    7  A    between atoms: C_10  and  C_12
REMARK                            x       y       z     vdW  Elec       q    Type
REMARK                         _______ _______ _______ _____ _____    ______ ____
ROOT
ATOM      1  C   UNL     1      48.183   8.536  14.376  0.00  0.00    +0.000 C 
ENDROOT
BRANCH   1   5
ATOM      2  N   UNL     1      46.724   6.313  11.822  0.00  0.00    +0.000 NA
ATOM      3  C   UNL     1      47.588   7.466  11.528  0.00  0.00    +0.000 C 
ATOM      4  C   UNL     1      48.931   7.350  12.241  0.00  0.00    +0.000 C 
ATOM      5  C   UNL     1      48.752   7.249  13.757  0.00  0.00    +0.000 C 
ATOM      6  C   UNL     1      47.834   6.052  14.044  0.00  0.00    +0.000 C 
ATOM      7  C   UNL     1      46.514   6.132  13.267  0.00  0.00    +0.000 C 
BRANCH   2   8
ATOM      8  C   UNL     1      45.412   6.436  11.144  0.00  0.00    +0.000 C 
BRANCH   8  10
ATOM      9  C   UNL     1      43.049   5.493  11.121  0.00  0.00    +0.000 C 
ATOM     10  C   UNL     1      44.543   5.156  11.163  0.00  0.00    +0.000 C 
BRANCH  10  11
ATOM     11  C   UNL     1      44.989   4.227  10.045  0.00  0.00    +0.000 A 
ATOM     12  C   UNL     1      45.637   4.768   8.932  0.00  0.00    +0.000 A 
ATOM     13  C   UNL     1      45.984   3.933   7.875  0.00  0.00    +0.000 A 
ATOM     14  C   UNL     1      45.685   2.581   7.955  0.00  0.00    +0.000 A 
ATOM     15  C   UNL     1      45.045   2.120   9.094  0.00  0.00    +0.000 A 
ATOM     16  N   UNL     1      44.683   2.910  10.130  0.00  0.00    +0.000 NA
ENDBRANCH  10  11
ENDBRANCH   8  10
ENDBRANCH   2   8
ENDBRANCH   1   5
BRANCH   1  17
ATOM     17  N   UNL     1      47.904   8.394  15.790  0.00  0.00    +0.000 N 
ATOM     18  C   UNL     1      48.645   9.049  16.744  0.00  0.00    +0.000 C 
ATOM     19  O   UNL     1      49.602   9.770  16.460  0.00  0.00    +0.000 OA
ATOM     20  H   UNL     1      47.222   7.696  16.078  0.00  0.00    +0.000 HD
BRANCH  18  21
ATOM     21  C   UNL     1      48.208   8.903  18.128  0.00  0.00    +0.000 A 
ATOM     22  C   UNL     1      48.032  10.030  18.922  0.00  0.00    +0.000 A 
ATOM     23  S   UNL     1      47.504   9.668  20.502  0.00  0.00    +0.000 S 
ATOM     24  C   UNL     1      47.549   8.000  20.187  0.00  0.00    +0.000 A 
ATOM     25  N   UNL     1      47.241   7.078  21.139  0.00  0.00    +0.000 NA
ATOM     26  N   UNL     1      47.332   5.856  20.864  0.00  0.00    +0.000 NA
ATOM     27  N   UNL     1      47.718   5.480  19.607  0.00  0.00    +0.000 N 
ATOM     28  C   UNL     1      48.013   6.323  18.563  0.00  0.00    +0.000 A 
ATOM     29  O   UNL     1      48.305   5.904  17.448  0.00  0.00    +0.000 OA
ATOM     30  C   UNL     1      47.931   7.722  18.896  0.00  0.00    +0.000 A 
ATOM     31  H   UNL     1      47.770   4.482  19.444  0.00  0.00    +0.000 HD
ENDBRANCH  18  21
ENDBRANCH   1  17
TORSDOF 6
ENDMDL
MODEL 8
REMARK VINA RESULT:    -6.918      3.487      8.575
REMARK INTER + INTRA:         -10.110
REMARK INTER:                  -9.155
REMARK INTRA:                  -0.955
REMARK UNBOUND:                -0.766
REMARK  Name = 
REMARK  7 active torsions:
REMARK  status: ('A' for Active; 'I' for Inactive)
REMARK    1  A    between atoms: C_1  and  C_2
REMARK    2  A    between atoms: C_2  and  C_3
REMARK    3  A    between atoms: C_2  and  C_24
REMARK    4  A    between atoms: C_3  and  N_4
REMARK    5  A    between atoms: C_7  and  C_8
REMARK    6  A    between atoms: C_8  and  N_9
REMARK    7  A    between atoms: C_10  and  C_12
REMARK                            x       y       z     vdW  Elec       q    Type
REMARK                         _______ _______ _______ _____ _____    ______ ____
ROOT
ATOM      1  C   UNL     1      47.029   8.455  13.238  0.00  0.00    +0.000 C 
ENDROOT
BRANCH   1   5
ATOM      2  N   UNL     1      49.922   7.979  15.474  0.00  0.00    +0.000 NA
ATOM      3  C   UNL     1      49.445   6.981  14.506  0.00  0.00    +0.000 C 
ATOM      4  C   UNL     1      49.413   7.550  13.091  0.00  0.00    +0.000 C 
ATOM      5  C   UNL     1      48.512   8.784  13.004  0.00  0.00    +0.000 C 
ATOM      6  C   UNL     1      49.015   9.807  14.034  0.00  0.00    +0.000 C 
ATOM      7  C   UNL     1      49.118   9.210  15.443  0.00  0.00    +0.000 C 
BRANCH   2   8
ATOM      8  C   UNL     1      49.934   7.431  16.851  0.00  0.00    +0.000 C 
BRANCH   8  10
ATOM      9  C   UNL     1      51.536   5.901  18.103  0.00  0.00    +0.000 C 
ATOM     10  C   UNL     1      50.499   5.996  16.979  0.00  0.00    +0.000 C 
BRANCH  10  11
ATOM     11  C   UNL     1      49.349   5.012  17.127  0.00  0.00    +0.000 A 
ATOM     12  C   UNL     1      48.152   5.450  17.699  0.00  0.00    +0.000 A 
ATOM     13  C   UNL     1      47.122   4.537  17.901  0.00  0.00    +0.000 A 
ATOM     14  C   UNL     1      47.306   3.215  17.523  0.00  0.00    +0.000 A 
ATOM     15  C   UNL     1      48.520   2.861  16.959  0.00  0.00    +0.000 A 
ATOM     16  N   UNL     1      49.544   3.722  16.764  0.00  0.00    +0.000 NA
ENDBRANCH  10  11
ENDBRANCH   8  10
ENDBRANCH   2   8
ENDBRANCH   1   5
BRANCH   1  17
ATOM     17  N   UNL     1      46.612   7.254  12.545  0.00  0.00    +0.000 N 
ATOM     18  C   UNL     1      45.544   7.252  11.680  0.00  0.00    +0.000 C 
ATOM     19  O   UNL     1      44.865   8.257  11.462  0.00  0.00    +0.000 OA
ATOM     20  H   UNL     1      47.047   6.372  12.805  0.00  0.00    +0.000 HD
BRANCH  18  21
ATOM     21  C   UNL     1      45.279   6.007  10.969  0.00  0.00    +0.000 A 
ATOM     22  C   UNL     1      45.826   5.798   9.708  0.00  0.00    +0.000 A 
ATOM     23  S   UNL     1      45.423   4.282   9.039  0.00  0.00    +0.000 S 
ATOM     24  C   UNL     1      44.465   3.887  10.385  0.00  0.00    +0.000 A 
ATOM     25  N   UNL     1      43.780   2.716  10.463  0.00  0.00    +0.000 NA
ATOM     26  N   UNL     1      43.053   2.494  11.463  0.00  0.00    +0.000 NA
ATOM     27  N   UNL     1      42.985   3.426  12.462  0.00  0.00    +0.000 N 
ATOM     28  C   UNL     1      43.665   4.619  12.504  0.00  0.00    +0.000 A 
ATOM     29  O   UNL     1      43.587   5.382  13.462  0.00  0.00    +0.000 OA
ATOM     30  C   UNL     1      44.475   4.877  11.340  0.00  0.00    +0.000 A 
ATOM     31  H   UNL     1      42.387   3.189  13.244  0.00  0.00    +0.000 HD
ENDBRANCH  18  21
ENDBRANCH   1  17
TORSDOF 6
ENDMDL
MODEL 9
REMARK VINA RESULT:    -6.612      3.536      9.169
REMARK INTER + INTRA:          -9.697
REMARK INTER:                  -8.605
REMARK INTRA:                  -1.092
REMARK UNBOUND:                -0.766
REMARK  Name = 
REMARK  7 active torsions:
REMARK  status: ('A' for Active; 'I' for Inactive)
REMARK    1  A    between atoms: C_1  and  C_2
REMARK    2  A    between atoms: C_2  and  C_3
REMARK    3  A    between atoms: C_2  and  C_24
REMARK    4  A    between atoms: C_3  and  N_4
REMARK    5  A    between atoms: C_7  and  C_8
REMARK    6  A    between atoms: C_8  and  N_9
REMARK    7  A    between atoms: C_10  and  C_12
REMARK                            x       y       z     vdW  Elec       q    Type
REMARK                         _______ _______ _______ _____ _____    ______ ____
ROOT
ATOM      1  C   UNL     1      46.305   8.018  13.079  0.00  0.00    +0.000 C 
ENDROOT
BRANCH   1   5
ATOM      2  N   UNL     1      49.805   8.489  14.137  0.00  0.00    +0.000 NA
ATOM      3  C   UNL     1      49.246   7.219  13.649  0.00  0.00    +0.000 C 
ATOM      4  C   UNL     1      48.637   7.377  12.260  0.00  0.00    +0.000 C 
ATOM      5  C   UNL     1      47.531   8.434  12.250  0.00  0.00    +0.000 C 
ATOM      6  C   UNL     1      48.128   9.746  12.779  0.00  0.00    +0.000 C 
ATOM      7  C   UNL     1      48.806   9.568  14.143  0.00  0.00    +0.000 C 
BRANCH   2   8
ATOM      8  C   UNL     1      50.379   8.338  15.495  0.00  0.00    +0.000 C 
BRANCH   8  10
ATOM      9  C   UNL     1      52.395   6.881  16.026  0.00  0.00    +0.000 C 
ATOM     10  C   UNL     1      50.875   6.914  15.842  0.00  0.00    +0.000 C 
BRANCH  10  11
ATOM     11  C   UNL     1      50.104   6.389  17.042  0.00  0.00    +0.000 A 
ATOM     12  C   UNL     1      48.810   6.861  17.276  0.00  0.00    +0.000 A 
ATOM     13  C   UNL     1      48.127   6.437  18.411  0.00  0.00    +0.000 A 
ATOM     14  C   UNL     1      48.745   5.551  19.281  0.00  0.00    +0.000 A 
ATOM     15  C   UNL     1      50.028   5.127  18.978  0.00  0.00    +0.000 A 
ATOM     16  N   UNL     1      50.721   5.532  17.890  0.00  0.00    +0.000 NA
ENDBRANCH  10  11
ENDBRANCH   8  10
ENDBRANCH   2   8
ENDBRANCH   1   5
BRANCH   1  17
ATOM     17  N   UNL     1      45.817   6.701  12.724  0.00  0.00    +0.000 N 
ATOM     18  C   UNL     1      44.796   6.527  11.820  0.00  0.00    +0.000 C 
ATOM     19  O   UNL     1      44.220   7.472  11.280  0.00  0.00    +0.000 OA
ATOM     20  H   UNL     1      46.159   5.902  13.252  0.00  0.00    +0.000 HD
BRANCH  18  21
ATOM     21  C   UNL     1      44.457   5.152  11.472  0.00  0.00    +0.000 A 
ATOM     22  C   UNL     1      43.710   4.378  12.353  0.00  0.00    +0.000 A 
ATOM     23  S   UNL     1      43.397   2.805  11.774  0.00  0.00    +0.000 S 
ATOM     24  C   UNL     1      44.294   3.095  10.361  0.00  0.00    +0.000 A 
ATOM     25  N   UNL     1      44.472   2.138   9.411  0.00  0.00    +0.000 NA
ATOM     26  N   UNL     1      45.179   2.393   8.406  0.00  0.00    +0.000 NA
ATOM     27  N   UNL     1      45.737   3.635   8.277  0.00  0.00    +0.000 N 
ATOM     28  C   UNL     1      45.590   4.684   9.152  0.00  0.00    +0.000 A 
ATOM     29  O   UNL     1      46.085   5.786   8.940  0.00  0.00    +0.000 OA
ATOM     30  C   UNL     1      44.798   4.373  10.315  0.00  0.00    +0.000 A 
ATOM     31  H   UNL     1      46.294   3.782   7.444  0.00  0.00    +0.000 HD
ENDBRANCH  18  21
ENDBRANCH   1  17
TORSDOF 6
ENDMDL
