MODEL 1
REMARK VINA RESULT:    -8.363      0.000      0.000
REMARK INTER + INTRA:         -13.393
REMARK INTER:                 -12.275
REMARK INTRA:                  -1.119
REMARK UNBOUND:                -1.119
REMARK  Name = 
REMARK  9 active torsions:
REMARK  status: ('A' for Active; 'I' for Inactive)
REMARK    1  A    between atoms: C_1  and  O_2
REMARK    2  A    between atoms: O_2  and  C_3
REMARK    3  A    between atoms: C_10  and  C_11
REMARK    4  A    between atoms: N_13  and  C_14
REMARK    5  A    between atoms: C_14  and  C_15
REMARK    6  A    between atoms: C_18  and  C_19
REMARK    7  A    between atoms: C_19  and  S_20
REMARK    8  A    between atoms: S_20  and  C_21
REMARK    9  A    between atoms: C_21  and  C_22
REMARK                            x       y       z     vdW  Elec       q    Type
REMARK                         _______ _______ _______ _____ _____    ______ ____
ROOT
ATOM      1  C   UNL     1      47.714   8.073  13.366  0.00  0.00    +0.000 C 
ENDROOT
BRANCH   1   2
ATOM      2  C   UNL     1      46.674   7.151  12.775  0.00  0.00    +0.000 A 
ATOM      3  C   UNL     1      46.832   5.761  12.843  0.00  0.00    +0.000 A 
ATOM      4  C   UNL     1      45.824   4.903  12.385  0.00  0.00    +0.000 A 
ATOM      5  C   UNL     1      44.628   5.411  11.853  0.00  0.00    +0.000 A 
ATOM      6  C   UNL     1      44.511   6.802  11.709  0.00  0.00    +0.000 A 
ATOM      7  C   UNL     1      45.524   7.660  12.160  0.00  0.00    +0.000 A 
BRANCH   5   8
ATOM      8  C   UNL     1      43.498   4.487  11.443  0.00  0.00    +0.000 C 
BRANCH   8   9
ATOM      9  S   UNL     1      44.089   3.068  10.445  0.00  0.00    +0.000 S 
BRANCH   9  10
ATOM     10  C   UNL     1      44.692   3.958   8.977  0.00  0.00    +0.000 C 
BRANCH  10  11
ATOM     11  C   UNL     1      45.618   3.108   8.137  0.00  0.00    +0.000 A 
ATOM     12  C   UNL     1      46.318   3.664   7.052  0.00  0.00    +0.000 A 
ATOM     13  C   UNL     1      47.195   2.884   6.286  0.00  0.00    +0.000 A 
ATOM     14  C   UNL     1      47.379   1.538   6.593  0.00  0.00    +0.000 A 
ATOM     15  C   UNL     1      46.675   0.981   7.652  0.00  0.00    +0.000 A 
ATOM     16  F   UNL     1      46.847  -0.316   7.943  0.00  0.00    +0.000 F 
ATOM     17  C   UNL     1      45.799   1.745   8.420  0.00  0.00    +0.000 A 
ENDBRANCH  10  11
ENDBRANCH   9  10
ENDBRANCH   8   9
ENDBRANCH   5   8
ENDBRANCH   1   2
BRANCH   1  20
ATOM     18  C   UNL     1      48.818   7.269  15.415  0.00  0.00    +0.000 C 
ATOM     19  O   UNL     1      49.704   6.722  14.761  0.00  0.00    +0.000 OA
ATOM     20  N   UNL     1      47.799   7.948  14.799  0.00  0.00    +0.000 N 
ATOM     21  H   UNL     1      47.058   8.362  15.346  0.00  0.00    +0.000 HD
BRANCH  18  29
ATOM     22  C   UNL     1      48.784   4.679  17.676  0.00  0.00    +0.000 A 
ATOM     23  N   UNL     1      48.795   3.871  18.754  0.00  0.00    +0.000 NA
ATOM     24  C   UNL     1      48.800   4.442  19.962  0.00  0.00    +0.000 A 
ATOM     25  N   UNL     1      48.790   5.743  20.236  0.00  0.00    +0.000 NA
ATOM     26  C   UNL     1      48.793   6.510  19.134  0.00  0.00    +0.000 A 
ATOM     27  S   UNL     1      48.777   8.202  19.287  0.00  0.00    +0.000 S 
ATOM     28  C   UNL     1      48.791   8.407  17.599  0.00  0.00    +0.000 A 
ATOM     29  C   UNL     1      48.806   7.212  16.887  0.00  0.00    +0.000 A 
ATOM     30  C   UNL     1      48.799   6.079  17.811  0.00  0.00    +0.000 A 
BRANCH  22  32
ATOM     31  C   UNL     1      47.491   3.804  15.931  0.00  0.00    +0.000 C 
ATOM     32  O   UNL     1      48.793   4.095  16.428  0.00  0.00    +0.000 OA
ENDBRANCH  22  32
ENDBRANCH  18  29
ENDBRANCH   1  20
TORSDOF 8
ENDMDL
MODEL 2
REMARK VINA RESULT:    -7.947      2.517      3.071
REMARK INTER + INTRA:         -12.782
REMARK INTER:                 -11.743
REMARK INTRA:                  -1.040
REMARK UNBOUND:                -1.119
REMARK  Name = 
REMARK  9 active torsions:
REMARK  status: ('A' for Active; 'I' for Inactive)
REMARK    1  A    between atoms: C_1  and  O_2
REMARK    2  A    between atoms: O_2  and  C_3
REMARK    3  A    between atoms: C_10  and  C_11
REMARK    4  A    between atoms: N_13  and  C_14
REMARK    5  A    between atoms: C_14  and  C_15
REMARK    6  A    between atoms: C_18  and  C_19
REMARK    7  A    between atoms: C_19  and  S_20
REMARK    8  A    between atoms: S_20  and  C_21
REMARK    9  A    between atoms: C_21  and  C_22
REMARK                            x       y       z     vdW  Elec       q    Type
REMARK                         _______ _______ _______ _____ _____    ______ ____
ROOT
ATOM      1  C   UNL     1      48.953   6.916  15.451  0.00  0.00    +0.000 C 
ENDROOT
BRANCH   1   2
ATOM      2  C   UNL     1      47.938   6.206  14.587  0.00  0.00    +0.000 A 
ATOM      3  C   UNL     1      47.677   6.648  13.284  0.00  0.00    +0.000 A 
ATOM      4  C   UNL     1      46.812   5.935  12.444  0.00  0.00    +0.000 A 
ATOM      5  C   UNL     1      46.188   4.756  12.883  0.00  0.00    +0.000 A 
ATOM      6  C   UNL     1      46.386   4.365  14.216  0.00  0.00    +0.000 A 
ATOM      7  C   UNL     1      47.246   5.084  15.058  0.00  0.00    +0.000 A 
BRANCH   5   8
ATOM      8  C   UNL     1      45.325   3.932  11.948  0.00  0.00    +0.000 C 
BRANCH   8   9
ATOM      9  S   UNL     1      44.922   4.829  10.402  0.00  0.00    +0.000 S 
BRANCH   9  10
ATOM     10  C   UNL     1      44.288   3.446   9.404  0.00  0.00    +0.000 C 
BRANCH  10  11
ATOM     11  C   UNL     1      45.360   2.841   8.525  0.00  0.00    +0.000 A 
ATOM     12  C   UNL     1      46.132   3.650   7.673  0.00  0.00    +0.000 A 
ATOM     13  C   UNL     1      47.142   3.096   6.875  0.00  0.00    +0.000 A 
ATOM     14  C   UNL     1      47.389   1.725   6.917  0.00  0.00    +0.000 A 
ATOM     15  C   UNL     1      46.616   0.921   7.744  0.00  0.00    +0.000 A 
ATOM     16  F   UNL     1      46.850  -0.399   7.780  0.00  0.00    +0.000 F 
ATOM     17  C   UNL     1      45.608   1.459   8.541  0.00  0.00    +0.000 A 
ENDBRANCH  10  11
ENDBRANCH   9  10
ENDBRANCH   8   9
ENDBRANCH   5   8
ENDBRANCH   1   2
BRANCH   1  20
ATOM     18  C   UNL     1      50.317   6.045  17.306  0.00  0.00    +0.000 C 
ATOM     19  O   UNL     1      49.840   6.868  18.085  0.00  0.00    +0.000 OA
ATOM     20  N   UNL     1      49.935   6.010  15.990  0.00  0.00    +0.000 N 
ATOM     21  H   UNL     1      50.360   5.352  15.353  0.00  0.00    +0.000 HD
BRANCH  18  29
ATOM     22  C   UNL     1      50.489   2.614  17.176  0.00  0.00    +0.000 A 
ATOM     23  N   UNL     1      50.818   1.308  17.230  0.00  0.00    +0.000 NA
ATOM     24  C   UNL     1      51.988   0.980  17.784  0.00  0.00    +0.000 A 
ATOM     25  N   UNL     1      52.889   1.808  18.305  0.00  0.00    +0.000 NA
ATOM     26  C   UNL     1      52.528   3.098  18.219  0.00  0.00    +0.000 A 
ATOM     27  S   UNL     1      53.554   4.301  18.838  0.00  0.00    +0.000 S 
ATOM     28  C   UNL     1      52.476   5.533  18.375  0.00  0.00    +0.000 A 
ATOM     29  C   UNL     1      51.325   5.065  17.749  0.00  0.00    +0.000 A 
ATOM     30  C   UNL     1      51.357   3.607  17.665  0.00  0.00    +0.000 A 
BRANCH  22  32
ATOM     31  C   UNL     1      48.179   2.849  17.478  0.00  0.00    +0.000 C 
ATOM     32  O   UNL     1      49.289   2.956  16.592  0.00  0.00    +0.000 OA
ENDBRANCH  22  32
ENDBRANCH  18  29
ENDBRANCH   1  20
TORSDOF 8
ENDMDL
MODEL 3
REMARK VINA RESULT:    -7.736      1.812      1.975
REMARK INTER + INTRA:         -12.472
REMARK INTER:                 -11.289
REMARK INTRA:                  -1.183
REMARK UNBOUND:                -1.119
REMARK  Name = 
REMARK  9 active torsions:
REMARK  status: ('A' for Active; 'I' for Inactive)
REMARK    1  A    between atoms: C_1  and  O_2
REMARK    2  A    between atoms: O_2  and  C_3
REMARK    3  A    between atoms: C_10  and  C_11
REMARK    4  A    between atoms: N_13  and  C_14
REMARK    5  A    between atoms: C_14  and  C_15
REMARK    6  A    between atoms: C_18  and  C_19
REMARK    7  A    between atoms: C_19  and  S_20
REMARK    8  A    between atoms: S_20  and  C_21
REMARK    9  A    between atoms: C_21  and  C_22
REMARK                            x       y       z     vdW  Elec       q    Type
REMARK                         _______ _______ _______ _____ _____    ______ ____
ROOT
ATOM      1  C   UNL     1      48.085   7.968  13.233  0.00  0.00    +0.000 C 
ENDROOT
BRANCH   1   2
ATOM      2  C   UNL     1      46.944   7.020  12.949  0.00  0.00    +0.000 A 
ATOM      3  C   UNL     1      47.025   5.673  13.325  0.00  0.00    +0.000 A 
ATOM      4  C   UNL     1      45.932   4.814  13.154  0.00  0.00    +0.000 A 
ATOM      5  C   UNL     1      44.726   5.279  12.607  0.00  0.00    +0.000 A 
ATOM      6  C   UNL     1      44.679   6.606  12.153  0.00  0.00    +0.000 A 
ATOM      7  C   UNL     1      45.776   7.464  12.318  0.00  0.00    +0.000 A 
BRANCH   5   8
ATOM      8  C   UNL     1      43.512   4.377  12.505  0.00  0.00    +0.000 C 
BRANCH   8   9
ATOM      9  S   UNL     1      43.756   3.018  11.299  0.00  0.00    +0.000 S 
BRANCH   9  10
ATOM     10  C   UNL     1      44.056   3.997   9.794  0.00  0.00    +0.000 C 
BRANCH  10  11
ATOM     11  C   UNL     1      45.074   3.344   8.886  0.00  0.00    +0.000 A 
ATOM     12  C   UNL     1      45.875   4.121   8.030  0.00  0.00    +0.000 A 
ATOM     13  C   UNL     1      46.835   3.521   7.204  0.00  0.00    +0.000 A 
ATOM     14  C   UNL     1      47.001   2.138   7.220  0.00  0.00    +0.000 A 
ATOM     15  C   UNL     1      46.200   1.367   8.050  0.00  0.00    +0.000 A 
ATOM     16  F   UNL     1      46.356   0.035   8.062  0.00  0.00    +0.000 F 
ATOM     17  C   UNL     1      45.241   1.951   8.876  0.00  0.00    +0.000 A 
ENDBRANCH  10  11
ENDBRANCH   9  10
ENDBRANCH   8   9
ENDBRANCH   5   8
ENDBRANCH   1   2
BRANCH   1  20
ATOM     18  C   UNL     1      49.502   7.704  15.229  0.00  0.00    +0.000 C 
ATOM     19  O   UNL     1      48.916   8.620  15.804  0.00  0.00    +0.000 OA
ATOM     20  N   UNL     1      49.154   7.329  13.957  0.00  0.00    +0.000 N 
ATOM     21  H   UNL     1      49.666   6.600  13.483  0.00  0.00    +0.000 HD
BRANCH  18  29
ATOM     22  C   UNL     1      49.622   5.017  17.370  0.00  0.00    +0.000 A 
ATOM     23  N   UNL     1      49.950   3.988  18.176  0.00  0.00    +0.000 NA
ATOM     24  C   UNL     1      51.246   3.772  18.416  0.00  0.00    +0.000 A 
ATOM     25  N   UNL     1      52.277   4.468  17.947  0.00  0.00    +0.000 NA
ATOM     26  C   UNL     1      51.906   5.474  17.139  0.00  0.00    +0.000 A 
ATOM     27  S   UNL     1      53.090   6.478  16.449  0.00  0.00    +0.000 S 
ATOM     28  C   UNL     1      51.910   7.401  15.642  0.00  0.00    +0.000 A 
ATOM     29  C   UNL     1      50.607   6.976  15.876  0.00  0.00    +0.000 A 
ATOM     30  C   UNL     1      50.609   5.827  16.780  0.00  0.00    +0.000 A 
BRANCH  22  32
ATOM     31  C   UNL     1      47.605   4.074  16.646  0.00  0.00    +0.000 C 
ATOM     32  O   UNL     1      48.287   5.236  17.109  0.00  0.00    +0.000 OA
ENDBRANCH  22  32
ENDBRANCH  18  29
ENDBRANCH   1  20
TORSDOF 8
ENDMDL
MODEL 4
REMARK VINA RESULT:    -7.511      1.656      2.402
REMARK INTER + INTRA:         -12.143
REMARK INTER:                 -10.972
REMARK INTRA:                  -1.171
REMARK UNBOUND:                -1.119
REMARK  Name = 
REMARK  9 active torsions:
REMARK  status: ('A' for Active; 'I' for Inactive)
REMARK    1  A    between atoms: C_1  and  O_2
REMARK    2  A    between atoms: O_2  and  C_3
REMARK    3  A    between atoms: C_10  and  C_11
REMARK    4  A    between atoms: N_13  and  C_14
REMARK    5  A    between atoms: C_14  and  C_15
REMARK    6  A    between atoms: C_18  and  C_19
REMARK    7  A    between atoms: C_19  and  S_20
REMARK    8  A    between atoms: S_20  and  C_21
REMARK    9  A    between atoms: C_21  and  C_22
REMARK                            x       y       z     vdW  Elec       q    Type
REMARK                         _______ _______ _______ _____ _____    ______ ____
ROOT
ATOM      1  C   UNL     1      47.802   4.465  15.547  0.00  0.00    +0.000 C 
ENDROOT
BRANCH   1   2
ATOM      2  C   UNL     1      46.950   4.588  14.307  0.00  0.00    +0.000 A 
ATOM      3  C   UNL     1      46.501   3.445  13.633  0.00  0.00    +0.000 A 
ATOM      4  C   UNL     1      45.630   3.553  12.541  0.00  0.00    +0.000 A 
ATOM      5  C   UNL     1      45.178   4.805  12.097  0.00  0.00    +0.000 A 
ATOM      6  C   UNL     1      45.698   5.950  12.721  0.00  0.00    +0.000 A 
ATOM      7  C   UNL     1      46.576   5.842  13.809  0.00  0.00    +0.000 A 
BRANCH   5   8
ATOM      8  C   UNL     1      44.164   4.921  10.977  0.00  0.00    +0.000 C 
BRANCH   8   9
ATOM      9  S   UNL     1      44.126   3.426   9.918  0.00  0.00    +0.000 S 
BRANCH   9  10
ATOM     10  C   UNL     1      44.847   4.113   8.395  0.00  0.00    +0.000 C 
BRANCH  10  11
ATOM     11  C   UNL     1      45.810   3.151   7.737  0.00  0.00    +0.000 A 
ATOM     12  C   UNL     1      46.648   3.575   6.690  0.00  0.00    +0.000 A 
ATOM     13  C   UNL     1      47.558   2.692   6.095  0.00  0.00    +0.000 A 
ATOM     14  C   UNL     1      47.638   1.372   6.534  0.00  0.00    +0.000 A 
ATOM     15  C   UNL     1      46.799   0.945   7.555  0.00  0.00    +0.000 A 
ATOM     16  F   UNL     1      46.871  -0.326   7.974  0.00  0.00    +0.000 F 
ATOM     17  C   UNL     1      45.889   1.813   8.155  0.00  0.00    +0.000 A 
ENDBRANCH  10  11
ENDBRANCH   9  10
ENDBRANCH   8   9
ENDBRANCH   5   8
ENDBRANCH   1   2
BRANCH   1  20
ATOM     18  C   UNL     1      48.877   6.491  16.441  0.00  0.00    +0.000 C 
ATOM     19  O   UNL     1      49.930   6.225  15.865  0.00  0.00    +0.000 OA
ATOM     20  N   UNL     1      47.785   5.668  16.339  0.00  0.00    +0.000 N 
ATOM     21  H   UNL     1      46.938   5.879  16.846  0.00  0.00    +0.000 HD
BRANCH  18  29
ATOM     22  C   UNL     1      47.797   7.031  19.660  0.00  0.00    +0.000 A 
ATOM     23  N   UNL     1      47.455   7.511  20.872  0.00  0.00    +0.000 NA
ATOM     24  C   UNL     1      47.570   8.826  21.079  0.00  0.00    +0.000 A 
ATOM     25  N   UNL     1      47.989   9.741  20.211  0.00  0.00    +0.000 NA
ATOM     26  C   UNL     1      48.332   9.220  19.023  0.00  0.00    +0.000 A 
ATOM     27  S   UNL     1      48.887  10.241  17.785  0.00  0.00    +0.000 S 
ATOM     28  C   UNL     1      49.090   8.928  16.721  0.00  0.00    +0.000 A 
ATOM     29  C   UNL     1      48.743   7.699  17.273  0.00  0.00    +0.000 A 
ATOM     30  C   UNL     1      48.282   7.880  18.649  0.00  0.00    +0.000 A 
BRANCH  22  32
ATOM     31  C   UNL     1      48.841   4.946  19.869  0.00  0.00    +0.000 C 
ATOM     32  O   UNL     1      47.693   5.674  19.447  0.00  0.00    +0.000 OA
ENDBRANCH  22  32
ENDBRANCH  18  29
ENDBRANCH   1  20
TORSDOF 8
ENDMDL
MODEL 5
REMARK VINA RESULT:    -7.311      1.722      3.085
REMARK INTER + INTRA:         -11.849
REMARK INTER:                 -10.832
REMARK INTRA:                  -1.018
REMARK UNBOUND:                -1.119
REMARK  Name = 
REMARK  9 active torsions:
REMARK  status: ('A' for Active; 'I' for Inactive)
REMARK    1  A    between atoms: C_1  and  O_2
REMARK    2  A    between atoms: O_2  and  C_3
REMARK    3  A    between atoms: C_10  and  C_11
REMARK    4  A    between atoms: N_13  and  C_14
REMARK    5  A    between atoms: C_14  and  C_15
REMARK    6  A    between atoms: C_18  and  C_19
REMARK    7  A    between atoms: C_19  and  S_20
REMARK    8  A    between atoms: S_20  and  C_21
REMARK    9  A    between atoms: C_21  and  C_22
REMARK                            x       y       z     vdW  Elec       q    Type
REMARK                         _______ _______ _______ _____ _____    ______ ____
ROOT
ATOM      1  C   UNL     1      47.554   3.773  15.738  0.00  0.00    +0.000 C 
ENDROOT
BRANCH   1   2
ATOM      2  C   UNL     1      46.946   4.273  14.449  0.00  0.00    +0.000 A 
ATOM      3  C   UNL     1      46.346   3.382  13.551  0.00  0.00    +0.000 A 
ATOM      4  C   UNL     1      45.693   3.852  12.404  0.00  0.00    +0.000 A 
ATOM      5  C   UNL     1      45.618   5.226  12.127  0.00  0.00    +0.000 A 
ATOM      6  C   UNL     1      46.294   6.108  12.984  0.00  0.00    +0.000 A 
ATOM      7  C   UNL     1      46.954   5.636  14.128  0.00  0.00    +0.000 A 
BRANCH   5   8
ATOM      8  C   UNL     1      44.835   5.744  10.937  0.00  0.00    +0.000 C 
BRANCH   8   9
ATOM      9  S   UNL     1      45.706   5.453   9.351  0.00  0.00    +0.000 S 
BRANCH   9  10
ATOM     10  C   UNL     1      44.856   3.937   8.810  0.00  0.00    +0.000 C 
BRANCH  10  11
ATOM     11  C   UNL     1      45.760   3.038   7.997  0.00  0.00    +0.000 A 
ATOM     12  C   UNL     1      46.484   3.546   6.904  0.00  0.00    +0.000 A 
ATOM     13  C   UNL     1      47.340   2.721   6.163  0.00  0.00    +0.000 A 
ATOM     14  C   UNL     1      47.478   1.377   6.501  0.00  0.00    +0.000 A 
ATOM     15  C   UNL     1      46.750   0.867   7.568  0.00  0.00    +0.000 A 
ATOM     16  F   UNL     1      46.879  -0.427   7.892  0.00  0.00    +0.000 F 
ATOM     17  C   UNL     1      45.895   1.677   8.313  0.00  0.00    +0.000 A 
ENDBRANCH  10  11
ENDBRANCH   9  10
ENDBRANCH   8   9
ENDBRANCH   5   8
ENDBRANCH   1   2
BRANCH   1  20
ATOM     18  C   UNL     1      48.465   5.520  17.215  0.00  0.00    +0.000 C 
ATOM     19  O   UNL     1      49.571   5.435  16.685  0.00  0.00    +0.000 OA
ATOM     20  N   UNL     1      47.422   4.729  16.807  0.00  0.00    +0.000 N 
ATOM     21  H   UNL     1      46.528   4.783  17.274  0.00  0.00    +0.000 HD
BRANCH  18  29
ATOM     22  C   UNL     1      48.201   8.945  17.363  0.00  0.00    +0.000 A 
ATOM     23  N   UNL     1      48.029  10.240  17.694  0.00  0.00    +0.000 NA
ATOM     24  C   UNL     1      47.782  10.531  18.974  0.00  0.00    +0.000 A 
ATOM     25  N   UNL     1      47.686   9.676  19.987  0.00  0.00    +0.000 NA
ATOM     26  C   UNL     1      47.850   8.397  19.612  0.00  0.00    +0.000 A 
ATOM     27  S   UNL     1      47.765   7.162  20.775  0.00  0.00    +0.000 S 
ATOM     28  C   UNL     1      48.048   5.965  19.600  0.00  0.00    +0.000 A 
ATOM     29  C   UNL     1      48.212   6.468  18.314  0.00  0.00    +0.000 A 
ATOM     30  C   UNL     1      48.101   7.925  18.328  0.00  0.00    +0.000 A 
BRANCH  22  32
ATOM     31  C   UNL     1      49.770   8.940  15.626  0.00  0.00    +0.000 C 
ATOM     32  O   UNL     1      48.442   8.639  16.042  0.00  0.00    +0.000 OA
ENDBRANCH  22  32
ENDBRANCH  18  29
ENDBRANCH   1  20
TORSDOF 8
ENDMDL
MODEL 6
REMARK VINA RESULT:    -7.164      4.383      9.047
REMARK INTER + INTRA:         -11.633
REMARK INTER:                  -9.185
REMARK INTRA:                  -2.448
REMARK UNBOUND:                -1.119
REMARK  Name = 
REMARK  9 active torsions:
REMARK  status: ('A' for Active; 'I' for Inactive)
REMARK    1  A    between atoms: C_1  and  O_2
REMARK    2  A    between atoms: O_2  and  C_3
REMARK    3  A    between atoms: C_10  and  C_11
REMARK    4  A    between atoms: N_13  and  C_14
REMARK    5  A    between atoms: C_14  and  C_15
REMARK    6  A    between atoms: C_18  and  C_19
REMARK    7  A    between atoms: C_19  and  S_20
REMARK    8  A    between atoms: S_20  and  C_21
REMARK    9  A    between atoms: C_21  and  C_22
REMARK                            x       y       z     vdW  Elec       q    Type
REMARK                         _______ _______ _______ _____ _____    ______ ____
ROOT
ATOM      1  C   UNL     1      47.160   3.348  16.831  0.00  0.00    +0.000 C 
ENDROOT
BRANCH   1   2
ATOM      2  C   UNL     1      48.439   3.626  17.584  0.00  0.00    +0.000 A 
ATOM      3  C   UNL     1      49.661   3.119  17.125  0.00  0.00    +0.000 A 
ATOM      4  C   UNL     1      50.862   3.457  17.763  0.00  0.00    +0.000 A 
ATOM      5  C   UNL     1      50.873   4.315  18.874  0.00  0.00    +0.000 A 
ATOM      6  C   UNL     1      49.640   4.751  19.381  0.00  0.00    +0.000 A 
ATOM      7  C   UNL     1      48.438   4.407  18.746  0.00  0.00    +0.000 A 
BRANCH   5   8
ATOM      8  C   UNL     1      52.177   4.757  19.510  0.00  0.00    +0.000 C 
BRANCH   8   9
ATOM      9  S   UNL     1      53.371   5.395  18.275  0.00  0.00    +0.000 S 
BRANCH   9  10
ATOM     10  C   UNL     1      52.881   7.148  18.254  0.00  0.00    +0.000 C 
BRANCH  10  11
ATOM     11  C   UNL     1      51.500   7.345  17.670  0.00  0.00    +0.000 A 
ATOM     12  C   UNL     1      51.174   6.825  16.404  0.00  0.00    +0.000 A 
ATOM     13  C   UNL     1      49.889   6.986  15.870  0.00  0.00    +0.000 A 
ATOM     14  C   UNL     1      48.915   7.673  16.593  0.00  0.00    +0.000 A 
ATOM     15  C   UNL     1      49.239   8.204  17.834  0.00  0.00    +0.000 A 
ATOM     16  F   UNL     1      48.304   8.869  18.527  0.00  0.00    +0.000 F 
ATOM     17  C   UNL     1      50.514   8.051  18.376  0.00  0.00    +0.000 A 
ENDBRANCH  10  11
ENDBRANCH   9  10
ENDBRANCH   8   9
ENDBRANCH   5   8
ENDBRANCH   1   2
BRANCH   1  20
ATOM     18  C   UNL     1      46.899   4.201  14.536  0.00  0.00    +0.000 C 
ATOM     19  O   UNL     1      47.238   3.119  14.062  0.00  0.00    +0.000 OA
ATOM     20  N   UNL     1      46.844   4.394  15.892  0.00  0.00    +0.000 N 
ATOM     21  H   UNL     1      46.599   5.298  16.270  0.00  0.00    +0.000 HD
BRANCH  18  29
ATOM     22  C   UNL     1      44.110   4.985  12.685  0.00  0.00    +0.000 A 
ATOM     23  N   UNL     1      43.155   5.536  11.911  0.00  0.00    +0.000 NA
ATOM     24  C   UNL     1      43.417   6.714  11.338  0.00  0.00    +0.000 A 
ATOM     25  N   UNL     1      44.536   7.424  11.439  0.00  0.00    +0.000 NA
ATOM     26  C   UNL     1      45.454   6.846  12.229  0.00  0.00    +0.000 A 
ATOM     27  S   UNL     1      46.953   7.608  12.474  0.00  0.00    +0.000 S 
ATOM     28  C   UNL     1      47.482   6.355  13.495  0.00  0.00    +0.000 A 
ATOM     29  C   UNL     1      46.547   5.341  13.672  0.00  0.00    +0.000 A 
ATOM     30  C   UNL     1      45.338   5.635  12.905  0.00  0.00    +0.000 A 
BRANCH  22  32
ATOM     31  C   UNL     1      43.549   2.735  12.362  0.00  0.00    +0.000 C 
ATOM     32  O   UNL     1      43.839   3.776  13.289  0.00  0.00    +0.000 OA
ENDBRANCH  22  32
ENDBRANCH  18  29
ENDBRANCH   1  20
TORSDOF 8
ENDMDL
MODEL 7
REMARK VINA RESULT:    -6.727      2.191      3.077
REMARK INTER + INTRA:         -10.991
REMARK INTER:                 -10.101
REMARK INTRA:                  -0.891
REMARK UNBOUND:                -1.119
REMARK  Name = 
REMARK  9 active torsions:
REMARK  status: ('A' for Active; 'I' for Inactive)
REMARK    1  A    between atoms: C_1  and  O_2
REMARK    2  A    between atoms: O_2  and  C_3
REMARK    3  A    between atoms: C_10  and  C_11
REMARK    4  A    between atoms: N_13  and  C_14
REMARK    5  A    between atoms: C_14  and  C_15
REMARK    6  A    between atoms: C_18  and  C_19
REMARK    7  A    between atoms: C_19  and  S_20
REMARK    8  A    between atoms: S_20  and  C_21
REMARK    9  A    between atoms: C_21  and  C_22
REMARK                            x       y       z     vdW  Elec       q    Type
REMARK                         _______ _______ _______ _____ _____    ______ ____
ROOT
ATOM      1  C   UNL     1      47.578   4.174  15.843  0.00  0.00    +0.000 C 
ENDROOT
BRANCH   1   2
ATOM      2  C   UNL     1      46.997   4.476  14.483  0.00  0.00    +0.000 A 
ATOM      3  C   UNL     1      46.485   3.448  13.681  0.00  0.00    +0.000 A 
ATOM      4  C   UNL     1      45.855   3.735  12.464  0.00  0.00    +0.000 A 
ATOM      5  C   UNL     1      45.715   5.058  12.016  0.00  0.00    +0.000 A 
ATOM      6  C   UNL     1      46.305   6.076  12.780  0.00  0.00    +0.000 A 
ATOM      7  C   UNL     1      46.942   5.788  13.996  0.00  0.00    +0.000 A 
BRANCH   5   8
ATOM      8  C   UNL     1      44.953   5.378  10.745  0.00  0.00    +0.000 C 
BRANCH   8   9
ATOM      9  S   UNL     1      44.148   3.898  10.025  0.00  0.00    +0.000 S 
BRANCH   9  10
ATOM     10  C   UNL     1      44.577   4.140   8.273  0.00  0.00    +0.000 C 
BRANCH  10  11
ATOM     11  C   UNL     1      45.563   3.103   7.781  0.00  0.00    +0.000 A 
ATOM     12  C   UNL     1      45.701   1.871   8.444  0.00  0.00    +0.000 A 
ATOM     13  C   UNL     1      46.596   0.900   7.976  0.00  0.00    +0.000 A 
ATOM     14  C   UNL     1      47.367   1.151   6.843  0.00  0.00    +0.000 A 
ATOM     15  C   UNL     1      47.246   2.373   6.197  0.00  0.00    +0.000 A 
ATOM     16  F   UNL     1      47.992   2.617   5.110  0.00  0.00    +0.000 F 
ATOM     17  C   UNL     1      46.361   3.348   6.652  0.00  0.00    +0.000 A 
ENDBRANCH  10  11
ENDBRANCH   9  10
ENDBRANCH   8   9
ENDBRANCH   5   8
ENDBRANCH   1   2
BRANCH   1  20
ATOM     18  C   UNL     1      48.355   5.407  17.827  0.00  0.00    +0.000 C 
ATOM     19  O   UNL     1      48.118   4.446  18.556  0.00  0.00    +0.000 OA
ATOM     20  N   UNL     1      48.109   5.352  16.480  0.00  0.00    +0.000 N 
ATOM     21  H   UNL     1      48.275   6.160  15.898  0.00  0.00    +0.000 HD
BRANCH  18  29
ATOM     22  C   UNL     1      51.540   6.681  18.056  0.00  0.00    +0.000 A 
ATOM     23  N   UNL     1      52.657   7.411  18.245  0.00  0.00    +0.000 NA
ATOM     24  C   UNL     1      52.530   8.606  18.830  0.00  0.00    +0.000 A 
ATOM     25  N   UNL     1      51.408   9.174  19.260  0.00  0.00    +0.000 NA
ATOM     26  C   UNL     1      50.320   8.420  19.040  0.00  0.00    +0.000 A 
ATOM     27  S   UNL     1      48.794   8.982  19.528  0.00  0.00    +0.000 S 
ATOM     28  C   UNL     1      48.031   7.579  18.941  0.00  0.00    +0.000 A 
ATOM     29  C   UNL     1      48.906   6.662  18.369  0.00  0.00    +0.000 A 
ATOM     30  C   UNL     1      50.276   7.166  18.438  0.00  0.00    +0.000 A 
BRANCH  22  32
ATOM     31  C   UNL     1      52.864   4.769  17.786  0.00  0.00    +0.000 C 
ATOM     32  O   UNL     1      51.665   5.455  17.441  0.00  0.00    +0.000 OA
ENDBRANCH  22  32
ENDBRANCH  18  29
ENDBRANCH   1  20
TORSDOF 8
ENDMDL
MODEL 8
REMARK VINA RESULT:    -6.721      2.661      3.440
REMARK INTER + INTRA:         -10.983
REMARK INTER:                  -9.977
REMARK INTRA:                  -1.006
REMARK UNBOUND:                -1.119
REMARK  Name = 
REMARK  9 active torsions:
REMARK  status: ('A' for Active; 'I' for Inactive)
REMARK    1  A    between atoms: C_1  and  O_2
REMARK    2  A    between atoms: O_2  and  C_3
REMARK    3  A    between atoms: C_10  and  C_11
REMARK    4  A    between atoms: N_13  and  C_14
REMARK    5  A    between atoms: C_14  and  C_15
REMARK    6  A    between atoms: C_18  and  C_19
REMARK    7  A    between atoms: C_19  and  S_20
REMARK    8  A    between atoms: S_20  and  C_21
REMARK    9  A    between atoms: C_21  and  C_22
REMARK                            x       y       z     vdW  Elec       q    Type
REMARK                         _______ _______ _______ _____ _____    ______ ____
ROOT
ATOM      1  C   UNL     1      47.145   9.271  12.506  0.00  0.00    +0.000 C 
ENDROOT
BRANCH   1   2
ATOM      2  C   UNL     1      46.221   8.095  12.299  0.00  0.00    +0.000 A 
ATOM      3  C   UNL     1      44.953   8.275  11.733  0.00  0.00    +0.000 A 
ATOM      4  C   UNL     1      44.133   7.176  11.447  0.00  0.00    +0.000 A 
ATOM      5  C   UNL     1      44.561   5.866  11.714  0.00  0.00    +0.000 A 
ATOM      6  C   UNL     1      45.796   5.696  12.359  0.00  0.00    +0.000 A 
ATOM      7  C   UNL     1      46.613   6.798  12.652  0.00  0.00    +0.000 A 
BRANCH   5   8
ATOM      8  C   UNL     1      43.716   4.670  11.321  0.00  0.00    +0.000 C 
BRANCH   8   9
ATOM      9  S   UNL     1      44.718   3.324  10.584  0.00  0.00    +0.000 S 
BRANCH   9  10
ATOM     10  C   UNL     1      44.912   3.979   8.897  0.00  0.00    +0.000 C 
BRANCH  10  11
ATOM     11  C   UNL     1      45.774   3.084   8.035  0.00  0.00    +0.000 A 
ATOM     12  C   UNL     1      46.447   3.599   6.913  0.00  0.00    +0.000 A 
ATOM     13  C   UNL     1      47.266   2.777   6.126  0.00  0.00    +0.000 A 
ATOM     14  C   UNL     1      47.417   1.430   6.449  0.00  0.00    +0.000 A 
ATOM     15  C   UNL     1      46.739   0.915   7.545  0.00  0.00    +0.000 A 
ATOM     16  F   UNL     1      46.880  -0.382   7.853  0.00  0.00    +0.000 F 
ATOM     17  C   UNL     1      45.922   1.721   8.335  0.00  0.00    +0.000 A 
ENDBRANCH  10  11
ENDBRANCH   9  10
ENDBRANCH   8   9
ENDBRANCH   5   8
ENDBRANCH   1   2
BRANCH   1  20
ATOM     18  C   UNL     1      49.334   9.501  13.608  0.00  0.00    +0.000 C 
ATOM     19  O   UNL     1      48.944  10.473  14.252  0.00  0.00    +0.000 OA
ATOM     20  N   UNL     1      48.508   8.859  12.723  0.00  0.00    +0.000 N 
ATOM     21  H   UNL     1      48.852   8.084  12.174  0.00  0.00    +0.000 HD
BRANCH  18  29
ATOM     22  C   UNL     1      50.853   7.442  15.905  0.00  0.00    +0.000 A 
ATOM     23  N   UNL     1      51.673   6.657  16.631  0.00  0.00    +0.000 NA
ATOM     24  C   UNL     1      52.943   6.542  16.234  0.00  0.00    +0.000 A 
ATOM     25  N   UNL     1      53.511   7.125  15.183  0.00  0.00    +0.000 NA
ATOM     26  C   UNL     1      52.657   7.886  14.480  0.00  0.00    +0.000 A 
ATOM     27  S   UNL     1      53.206   8.715  13.103  0.00  0.00    +0.000 S 
ATOM     28  C   UNL     1      51.664   9.375  12.821  0.00  0.00    +0.000 A 
ATOM     29  C   UNL     1      50.708   8.988  13.754  0.00  0.00    +0.000 A 
ATOM     30  C   UNL     1      51.309   8.103  14.750  0.00  0.00    +0.000 A 
BRANCH  22  32
ATOM     31  C   UNL     1      48.693   6.555  15.740  0.00  0.00    +0.000 C 
ATOM     32  O   UNL     1      49.539   7.552  16.304  0.00  0.00    +0.000 OA
ENDBRANCH  22  32
ENDBRANCH  18  29
ENDBRANCH   1  20
TORSDOF 8
ENDMDL
MODEL 9
REMARK VINA RESULT:    -6.455      3.145      4.745
REMARK INTER + INTRA:         -10.593
REMARK INTER:                  -9.562
REMARK INTRA:                  -1.031
REMARK UNBOUND:                -1.119
REMARK  Name = 
REMARK  9 active torsions:
REMARK  status: ('A' for Active; 'I' for Inactive)
REMARK    1  A    between atoms: C_1  and  O_2
REMARK    2  A    between atoms: O_2  and  C_3
REMARK    3  A    between atoms: C_10  and  C_11
REMARK    4  A    between atoms: N_13  and  C_14
REMARK    5  A    between atoms: C_14  and  C_15
REMARK    6  A    between atoms: C_18  and  C_19
REMARK    7  A    between atoms: C_19  and  S_20
REMARK    8  A    between atoms: S_20  and  C_21
REMARK    9  A    between atoms: C_21  and  C_22
REMARK                            x       y       z     vdW  Elec       q    Type
REMARK                         _______ _______ _______ _____ _____    ______ ____
ROOT
ATOM      1  C   UNL     1      47.732   8.832  14.534  0.00  0.00    +0.000 C 
ENDROOT
BRANCH   1   2
ATOM      2  C   UNL     1      46.893   8.032  13.566  0.00  0.00    +0.000 A 
ATOM      3  C   UNL     1      47.046   6.643  13.468  0.00  0.00    +0.000 A 
ATOM      4  C   UNL     1      46.202   5.886  12.646  0.00  0.00    +0.000 A 
ATOM      5  C   UNL     1      45.179   6.495  11.903  0.00  0.00    +0.000 A 
ATOM      6  C   UNL     1      45.086   7.895  11.938  0.00  0.00    +0.000 A 
ATOM      7  C   UNL     1      45.935   8.654  12.755  0.00  0.00    +0.000 A 
BRANCH   5   8
ATOM      8  C   UNL     1      44.207   5.669  11.084  0.00  0.00    +0.000 C 
BRANCH   8   9
ATOM      9  S   UNL     1      44.869   4.007  10.687  0.00  0.00    +0.000 S 
BRANCH   9  10
ATOM     10  C   UNL     1      44.574   3.983   8.891  0.00  0.00    +0.000 C 
BRANCH  10  11
ATOM     11  C   UNL     1      45.595   3.141   8.159  0.00  0.00    +0.000 A 
ATOM     12  C   UNL     1      46.461   3.722   7.216  0.00  0.00    +0.000 A 
ATOM     13  C   UNL     1      47.424   2.949   6.553  0.00  0.00    +0.000 A 
ATOM     14  C   UNL     1      47.527   1.585   6.820  0.00  0.00    +0.000 A 
ATOM     15  C   UNL     1      46.661   1.006   7.737  0.00  0.00    +0.000 A 
ATOM     16  F   UNL     1      46.757  -0.307   7.991  0.00  0.00    +0.000 F 
ATOM     17  C   UNL     1      45.699   1.763   8.402  0.00  0.00    +0.000 A 
ENDBRANCH  10  11
ENDBRANCH   9  10
ENDBRANCH   8   9
ENDBRANCH   5   8
ENDBRANCH   1   2
BRANCH   1  20
ATOM     18  C   UNL     1      50.061   8.062  14.751  0.00  0.00    +0.000 C 
ATOM     19  O   UNL     1      49.753   7.290  15.657  0.00  0.00    +0.000 OA
ATOM     20  N   UNL     1      49.121   8.861  14.152  0.00  0.00    +0.000 N 
ATOM     21  H   UNL     1      49.392   9.517  13.435  0.00  0.00    +0.000 HD
BRANCH  18  29
ATOM     22  C   UNL     1      51.458   8.785  11.694  0.00  0.00    +0.000 A 
ATOM     23  N   UNL     1      52.251   9.059  10.640  0.00  0.00    +0.000 NA
ATOM     24  C   UNL     1      53.573   9.021  10.825  0.00  0.00    +0.000 A 
ATOM     25  N   UNL     1      54.217   8.735  11.952  0.00  0.00    +0.000 NA
ATOM     26  C   UNL     1      53.391   8.482  12.979  0.00  0.00    +0.000 A 
ATOM     27  S   UNL     1      54.036   8.091  14.502  0.00  0.00    +0.000 S 
ATOM     28  C   UNL     1      52.482   7.935  15.178  0.00  0.00    +0.000 A 
ATOM     29  C   UNL     1      51.451   8.171  14.276  0.00  0.00    +0.000 A 
ATOM     30  C   UNL     1      51.999   8.490  12.959  0.00  0.00    +0.000 A 
BRANCH  22  32
ATOM     31  C   UNL     1      49.536   7.604  11.067  0.00  0.00    +0.000 C 
ATOM     32  O   UNL     1      50.093   8.837  11.511  0.00  0.00    +0.000 OA
ENDBRANCH  22  32
ENDBRANCH  18  29
ENDBRANCH   1  20
TORSDOF 8
ENDMDL
