MODEL 1
REMARK VINA RESULT:    -8.644      0.000      0.000
REMARK INTER + INTRA:         -13.143
REMARK INTER:                 -11.929
REMARK INTRA:                  -1.214
REMARK UNBOUND:                -1.214
REMARK  Name = 
REMARK  7 active torsions:
REMARK  status: ('A' for Active; 'I' for Inactive)
REMARK    1  A    between atoms: N_1  and  C_2
REMARK    2  A    between atoms: C_2  and  C_3
REMARK    3  A    between atoms: C_2  and  C_24
REMARK    4  A    between atoms: C_3  and  C_4
REMARK    5  A    between atoms: C_7  and  C_8
REMARK    6  A    between atoms: C_8  and  N_9
REMARK    7  A    between atoms: C_10  and  C_12
REMARK                            x       y       z     vdW  Elec       q    Type
REMARK                         _______ _______ _______ _____ _____    ______ ____
ROOT
ATOM      1  C   UNL     1      44.827   5.205  10.639  0.00  0.00    +0.000 A 
ATOM      2  C   UNL     1      44.258   5.521  11.872  0.00  0.00    +0.000 A 
ATOM      3  C   UNL     1      44.886   6.429  12.725  0.00  0.00    +0.000 A 
ATOM      4  C   UNL     1      46.100   6.989  12.341  0.00  0.00    +0.000 A 
ATOM      5  N   UNL     1      46.677   6.711  11.146  0.00  0.00    +0.000 NA
ATOM      6  C   UNL     1      46.033   5.836  10.335  0.00  0.00    +0.000 A 
ENDROOT
BRANCH   1   7
ATOM      7  C   UNL     1      44.257   4.186   9.674  0.00  0.00    +0.000 C 
BRANCH   7   8
ATOM      8  C   UNL     1      44.897   2.771   9.639  0.00  0.00    +0.000 C 
BRANCH   8   9
ATOM      9  C   UNL     1      45.711   2.526   8.375  0.00  0.00    +0.000 A 
ATOM     10  C   UNL     1      45.901   3.567   7.452  0.00  0.00    +0.000 A 
ATOM     11  C   UNL     1      46.715   3.390   6.331  0.00  0.00    +0.000 A 
ATOM     12  C   UNL     1      47.356   2.172   6.118  0.00  0.00    +0.000 A 
ATOM     13  C   UNL     1      47.172   1.124   7.018  0.00  0.00    +0.000 A 
ATOM     14  C   UNL     1      46.353   1.297   8.136  0.00  0.00    +0.000 A 
ENDBRANCH   8   9
BRANCH   8  15
ATOM     15  N   UNL     1      43.911   1.694   9.794  0.00  0.00    +0.000 NA
ATOM     16  H   UNL     1      44.413   0.810   9.886  0.00  0.00    +0.000 HD
ATOM     17  H   UNL     1      43.366   1.608   8.938  0.00  0.00    +0.000 HD
ENDBRANCH   8  15
ENDBRANCH   7   8
ENDBRANCH   1   7
BRANCH   4  18
ATOM     18  C   UNL     1      46.834   7.924  13.273  0.00  0.00    +0.000 C 
BRANCH  18  19
ATOM     19  N   UNL     1      47.315   7.268  14.469  0.00  0.00    +0.000 N 
ATOM     20  C   UNL     1      48.587   6.769  14.572  0.00  0.00    +0.000 C 
ATOM     21  O   UNL     1      49.384   6.832  13.640  0.00  0.00    +0.000 OA
ATOM     22  H   UNL     1      46.613   7.038  15.166  0.00  0.00    +0.000 HD
BRANCH  20  23
ATOM     23  C   UNL     1      48.979   6.211  15.874  0.00  0.00    +0.000 A 
ATOM     24  C   UNL     1      50.011   6.812  16.587  0.00  0.00    +0.000 A 
ATOM     25  S   UNL     1      50.335   6.072  18.087  0.00  0.00    +0.000 S 
ATOM     26  C   UNL     1      49.131   4.898  17.827  0.00  0.00    +0.000 A 
ATOM     27  N   UNL     1      48.905   3.919  18.744  0.00  0.00    +0.000 NA
ATOM     28  C   UNL     1      47.989   3.075  18.405  0.00  0.00    +0.000 A 
ATOM     29  N   UNL     1      47.270   3.129  17.240  0.00  0.00    +0.000 N 
ATOM     30  C   UNL     1      47.422   4.133  16.313  0.00  0.00    +0.000 A 
ATOM     31  O   UNL     1      46.694   4.208  15.331  0.00  0.00    +0.000 OA
ATOM     32  C   UNL     1      48.474   5.086  16.623  0.00  0.00    +0.000 A 
ATOM     33  H   UNL     1      46.547   2.453  17.045  0.00  0.00    +0.000 HD
ENDBRANCH  20  23
ENDBRANCH  18  19
ENDBRANCH   4  18
TORSDOF 7
ENDMDL
MODEL 2
REMARK VINA RESULT:    -8.220      2.496      3.067
REMARK INTER + INTRA:         -12.557
REMARK INTER:                 -11.628
REMARK INTRA:                  -0.929
REMARK UNBOUND:                -1.214
REMARK  Name = 
REMARK  7 active torsions:
REMARK  status: ('A' for Active; 'I' for Inactive)
REMARK    1  A    between atoms: N_1  and  C_2
REMARK    2  A    between atoms: C_2  and  C_3
REMARK    3  A    between atoms: C_2  and  C_24
REMARK    4  A    between atoms: C_3  and  C_4
REMARK    5  A    between atoms: C_7  and  C_8
REMARK    6  A    between atoms: C_8  and  N_9
REMARK    7  A    between atoms: C_10  and  C_12
REMARK                            x       y       z     vdW  Elec       q    Type
REMARK                         _______ _______ _______ _____ _____    ______ ____
ROOT
ATOM      1  C   UNL     1      46.090   5.127  11.741  0.00  0.00    +0.000 A 
ATOM      2  C   UNL     1      46.884   6.042  12.432  0.00  0.00    +0.000 A 
ATOM      3  C   UNL     1      47.170   5.846  13.784  0.00  0.00    +0.000 A 
ATOM      4  C   UNL     1      46.627   4.745  14.437  0.00  0.00    +0.000 A 
ATOM      5  N   UNL     1      45.858   3.832  13.794  0.00  0.00    +0.000 NA
ATOM      6  C   UNL     1      45.611   4.045  12.478  0.00  0.00    +0.000 A 
ENDROOT
BRANCH   1   7
ATOM      7  C   UNL     1      45.671   5.286  10.294  0.00  0.00    +0.000 C 
BRANCH   7   8
ATOM      8  C   UNL     1      44.795   4.172   9.658  0.00  0.00    +0.000 C 
BRANCH   8   9
ATOM      9  C   UNL     1      45.567   3.313   8.665  0.00  0.00    +0.000 A 
ATOM     10  C   UNL     1      46.310   3.923   7.641  0.00  0.00    +0.000 A 
ATOM     11  C   UNL     1      47.094   3.159   6.773  0.00  0.00    +0.000 A 
ATOM     12  C   UNL     1      47.151   1.775   6.918  0.00  0.00    +0.000 A 
ATOM     13  C   UNL     1      46.414   1.151   7.922  0.00  0.00    +0.000 A 
ATOM     14  C   UNL     1      45.624   1.912   8.787  0.00  0.00    +0.000 A 
ENDBRANCH   8   9
BRANCH   8  15
ATOM     15  N   UNL     1      43.588   4.697   9.005  0.00  0.00    +0.000 NA
ATOM     16  H   UNL     1      42.817   4.056   9.196  0.00  0.00    +0.000 HD
ATOM     17  H   UNL     1      43.714   4.676   7.995  0.00  0.00    +0.000 HD
ENDBRANCH   8  15
ENDBRANCH   7   8
ENDBRANCH   1   7
BRANCH   4  18
ATOM     18  C   UNL     1      46.865   4.544  15.915  0.00  0.00    +0.000 C 
BRANCH  18  19
ATOM     19  N   UNL     1      48.252   4.291  16.234  0.00  0.00    +0.000 N 
ATOM     20  C   UNL     1      48.910   4.962  17.231  0.00  0.00    +0.000 C 
ATOM     21  O   UNL     1      48.360   5.836  17.896  0.00  0.00    +0.000 OA
ATOM     22  H   UNL     1      48.766   3.718  15.572  0.00  0.00    +0.000 HD
BRANCH  20  23
ATOM     23  C   UNL     1      50.291   4.543  17.517  0.00  0.00    +0.000 A 
ATOM     24  C   UNL     1      51.226   5.500  17.895  0.00  0.00    +0.000 A 
ATOM     25  S   UNL     1      52.773   4.863  18.219  0.00  0.00    +0.000 S 
ATOM     26  C   UNL     1      52.261   3.286  17.832  0.00  0.00    +0.000 A 
ATOM     27  N   UNL     1      53.131   2.242  17.879  0.00  0.00    +0.000 NA
ATOM     28  C   UNL     1      52.620   1.109  17.528  0.00  0.00    +0.000 A 
ATOM     29  N   UNL     1      51.316   0.924  17.148  0.00  0.00    +0.000 N 
ATOM     30  C   UNL     1      50.388   1.938  17.144  0.00  0.00    +0.000 A 
ATOM     31  O   UNL     1      49.208   1.719  16.898  0.00  0.00    +0.000 OA
ATOM     32  C   UNL     1      50.921   3.245  17.487  0.00  0.00    +0.000 A 
ATOM     33  H   UNL     1      50.971   0.006  16.911  0.00  0.00    +0.000 HD
ENDBRANCH  20  23
ENDBRANCH  18  19
ENDBRANCH   4  18
TORSDOF 7
ENDMDL
MODEL 3
REMARK VINA RESULT:    -7.917      1.651      2.132
REMARK INTER + INTRA:         -12.140
REMARK INTER:                 -11.706
REMARK INTRA:                  -0.434
REMARK UNBOUND:                -1.214
REMARK  Name = 
REMARK  7 active torsions:
REMARK  status: ('A' for Active; 'I' for Inactive)
REMARK    1  A    between atoms: N_1  and  C_2
REMARK    2  A    between atoms: C_2  and  C_3
REMARK    3  A    between atoms: C_2  and  C_24
REMARK    4  A    between atoms: C_3  and  C_4
REMARK    5  A    between atoms: C_7  and  C_8
REMARK    6  A    between atoms: C_8  and  N_9
REMARK    7  A    between atoms: C_10  and  C_12
REMARK                            x       y       z     vdW  Elec       q    Type
REMARK                         _______ _______ _______ _____ _____    ______ ____
ROOT
ATOM      1  C   UNL     1      45.482   4.479  11.788  0.00  0.00    +0.000 A 
ATOM      2  C   UNL     1      45.800   5.632  11.070  0.00  0.00    +0.000 A 
ATOM      3  C   UNL     1      46.590   6.626  11.648  0.00  0.00    +0.000 A 
ATOM      4  C   UNL     1      47.028   6.465  12.958  0.00  0.00    +0.000 A 
ATOM      5  N   UNL     1      46.745   5.354  13.682  0.00  0.00    +0.000 NA
ATOM      6  C   UNL     1      45.988   4.401  13.085  0.00  0.00    +0.000 A 
ENDROOT
BRANCH   1   7
ATOM      7  C   UNL     1      44.581   3.375  11.273  0.00  0.00    +0.000 C 
BRANCH   7   8
ATOM      8  C   UNL     1      44.134   3.428   9.787  0.00  0.00    +0.000 C 
BRANCH   8   9
ATOM      9  C   UNL     1      45.241   3.017   8.825  0.00  0.00    +0.000 A 
ATOM     10  C   UNL     1      45.648   1.674   8.759  0.00  0.00    +0.000 A 
ATOM     11  C   UNL     1      46.599   1.260   7.825  0.00  0.00    +0.000 A 
ATOM     12  C   UNL     1      47.155   2.180   6.938  0.00  0.00    +0.000 A 
ATOM     13  C   UNL     1      46.771   3.517   6.995  0.00  0.00    +0.000 A 
ATOM     14  C   UNL     1      45.824   3.935   7.933  0.00  0.00    +0.000 A 
ENDBRANCH   8   9
BRANCH   8  15
ATOM     15  N   UNL     1      43.615   4.745   9.392  0.00  0.00    +0.000 NA
ATOM     16  H   UNL     1      43.918   5.430  10.085  0.00  0.00    +0.000 HD
ATOM     17  H   UNL     1      42.598   4.736   9.445  0.00  0.00    +0.000 HD
ENDBRANCH   8  15
ENDBRANCH   7   8
ENDBRANCH   1   7
BRANCH   4  18
ATOM     18  C   UNL     1      47.828   7.555  13.631  0.00  0.00    +0.000 C 
BRANCH  18  19
ATOM     19  N   UNL     1      47.858   7.428  15.071  0.00  0.00    +0.000 N 
ATOM     20  C   UNL     1      48.967   6.990  15.746  0.00  0.00    +0.000 C 
ATOM     21  O   UNL     1      49.993   6.658  15.160  0.00  0.00    +0.000 OA
ATOM     22  H   UNL     1      46.964   7.511  15.545  0.00  0.00    +0.000 HD
BRANCH  20  23
ATOM     23  C   UNL     1      48.897   6.997  17.215  0.00  0.00    +0.000 A 
ATOM     24  C   UNL     1      48.855   8.213  17.887  0.00  0.00    +0.000 A 
ATOM     25  S   UNL     1      48.748   8.063  19.581  0.00  0.00    +0.000 S 
ATOM     26  C   UNL     1      48.791   6.364  19.484  0.00  0.00    +0.000 A 
ATOM     27  N   UNL     1      48.760   5.603  20.611  0.00  0.00    +0.000 NA
ATOM     28  C   UNL     1      48.833   4.332  20.396  0.00  0.00    +0.000 A 
ATOM     29  N   UNL     1      48.920   3.754  19.157  0.00  0.00    +0.000 N 
ATOM     30  C   UNL     1      48.893   4.479  17.989  0.00  0.00    +0.000 A 
ATOM     31  O   UNL     1      48.869   3.926  16.897  0.00  0.00    +0.000 OA
ATOM     32  C   UNL     1      48.857   5.920  18.175  0.00  0.00    +0.000 A 
ATOM     33  H   UNL     1      48.947   2.750  19.054  0.00  0.00    +0.000 HD
ENDBRANCH  20  23
ENDBRANCH  18  19
ENDBRANCH   4  18
TORSDOF 7
ENDMDL
MODEL 4
REMARK VINA RESULT:    -7.820      2.407      2.976
REMARK INTER + INTRA:         -12.005
REMARK INTER:                 -11.365
REMARK INTRA:                  -0.640
REMARK UNBOUND:                -1.214
REMARK  Name = 
REMARK  7 active torsions:
REMARK  status: ('A' for Active; 'I' for Inactive)
REMARK    1  A    between atoms: N_1  and  C_2
REMARK    2  A    between atoms: C_2  and  C_3
REMARK    3  A    between atoms: C_2  and  C_24
REMARK    4  A    between atoms: C_3  and  C_4
REMARK    5  A    between atoms: C_7  and  C_8
REMARK    6  A    between atoms: C_8  and  N_9
REMARK    7  A    between atoms: C_10  and  C_12
REMARK                            x       y       z     vdW  Elec       q    Type
REMARK                         _______ _______ _______ _____ _____    ______ ____
ROOT
ATOM      1  C   UNL     1      45.396   4.160  11.682  0.00  0.00    +0.000 A 
ATOM      2  C   UNL     1      45.622   5.466  11.246  0.00  0.00    +0.000 A 
ATOM      3  C   UNL     1      46.484   6.305  11.954  0.00  0.00    +0.000 A 
ATOM      4  C   UNL     1      47.086   5.832  13.115  0.00  0.00    +0.000 A 
ATOM      5  N   UNL     1      46.895   4.566  13.562  0.00  0.00    +0.000 NA
ATOM      6  C   UNL     1      46.064   3.772  12.843  0.00  0.00    +0.000 A 
ENDROOT
BRANCH   1   7
ATOM      7  C   UNL     1      44.432   3.197  11.021  0.00  0.00    +0.000 C 
BRANCH   7   8
ATOM      8  C   UNL     1      44.158   3.361   9.502  0.00  0.00    +0.000 C 
BRANCH   8   9
ATOM      9  C   UNL     1      45.334   2.917   8.641  0.00  0.00    +0.000 A 
ATOM     10  C   UNL     1      45.692   1.559   8.592  0.00  0.00    +0.000 A 
ATOM     11  C   UNL     1      46.709   1.117   7.745  0.00  0.00    +0.000 A 
ATOM     12  C   UNL     1      47.383   2.024   6.929  0.00  0.00    +0.000 A 
ATOM     13  C   UNL     1      47.049   3.375   6.971  0.00  0.00    +0.000 A 
ATOM     14  C   UNL     1      46.036   3.820   7.823  0.00  0.00    +0.000 A 
ENDBRANCH   8   9
BRANCH   8  15
ATOM     15  N   UNL     1      43.782   4.732   9.133  0.00  0.00    +0.000 NA
ATOM     16  H   UNL     1      43.611   5.259   9.990  0.00  0.00    +0.000 HD
ATOM     17  H   UNL     1      42.890   4.717   8.642  0.00  0.00    +0.000 HD
ENDBRANCH   8  15
ENDBRANCH   7   8
ENDBRANCH   1   7
BRANCH   4  18
ATOM     18  C   UNL     1      47.971   6.740  13.937  0.00  0.00    +0.000 C 
BRANCH  18  19
ATOM     19  N   UNL     1      47.892   6.472  15.355  0.00  0.00    +0.000 N 
ATOM     20  C   UNL     1      49.006   6.285  16.131  0.00  0.00    +0.000 C 
ATOM     21  O   UNL     1      50.137   6.312  15.655  0.00  0.00    +0.000 OA
ATOM     22  H   UNL     1      46.968   6.257  15.719  0.00  0.00    +0.000 HD
BRANCH  20  23
ATOM     23  C   UNL     1      48.791   6.117  17.575  0.00  0.00    +0.000 A 
ATOM     24  C   UNL     1      49.079   4.892  18.166  0.00  0.00    +0.000 A 
ATOM     25  S   UNL     1      48.806   4.855  19.848  0.00  0.00    +0.000 S 
ATOM     26  C   UNL     1      48.257   6.466  19.846  0.00  0.00    +0.000 A 
ATOM     27  N   UNL     1      47.832   7.057  20.995  0.00  0.00    +0.000 NA
ATOM     28  C   UNL     1      47.410   8.267  20.845  0.00  0.00    +0.000 A 
ATOM     29  N   UNL     1      47.387   8.945  19.654  0.00  0.00    +0.000 N 
ATOM     30  C   UNL     1      47.863   8.410  18.480  0.00  0.00    +0.000 A 
ATOM     31  O   UNL     1      47.923   9.077  17.455  0.00  0.00    +0.000 OA
ATOM     32  C   UNL     1      48.308   7.031  18.583  0.00  0.00    +0.000 A 
ATOM     33  H   UNL     1      47.070   9.902  19.607  0.00  0.00    +0.000 HD
ENDBRANCH  20  23
ENDBRANCH  18  19
ENDBRANCH   4  18
TORSDOF 7
ENDMDL
MODEL 5
REMARK VINA RESULT:    -7.065      2.113      2.709
REMARK INTER + INTRA:         -10.964
REMARK INTER:                 -10.178
REMARK INTRA:                  -0.786
REMARK UNBOUND:                -1.214
REMARK  Name = 
REMARK  7 active torsions:
REMARK  status: ('A' for Active; 'I' for Inactive)
REMARK    1  A    between atoms: N_1  and  C_2
REMARK    2  A    between atoms: C_2  and  C_3
REMARK    3  A    between atoms: C_2  and  C_24
REMARK    4  A    between atoms: C_3  and  C_4
REMARK    5  A    between atoms: C_7  and  C_8
REMARK    6  A    between atoms: C_8  and  N_9
REMARK    7  A    between atoms: C_10  and  C_12
REMARK                            x       y       z     vdW  Elec       q    Type
REMARK                         _______ _______ _______ _____ _____    ______ ____
ROOT
ATOM      1  C   UNL     1      45.604   4.807  12.350  0.00  0.00    +0.000 A 
ATOM      2  C   UNL     1      45.589   6.135  11.922  0.00  0.00    +0.000 A 
ATOM      3  C   UNL     1      46.549   7.035  12.388  0.00  0.00    +0.000 A 
ATOM      4  C   UNL     1      47.496   6.597  13.307  0.00  0.00    +0.000 A 
ATOM      5  N   UNL     1      47.544   5.313  13.737  0.00  0.00    +0.000 NA
ATOM      6  C   UNL     1      46.607   4.461  13.253  0.00  0.00    +0.000 A 
ENDROOT
BRANCH   1   7
ATOM      7  C   UNL     1      44.570   3.773  11.952  0.00  0.00    +0.000 C 
BRANCH   7   8
ATOM      8  C   UNL     1      43.964   3.853  10.525  0.00  0.00    +0.000 C 
BRANCH   8   9
ATOM      9  C   UNL     1      44.964   3.474   9.440  0.00  0.00    +0.000 A 
ATOM     10  C   UNL     1      45.261   2.122   9.204  0.00  0.00    +0.000 A 
ATOM     11  C   UNL     1      46.107   1.747   8.158  0.00  0.00    +0.000 A 
ATOM     12  C   UNL     1      46.667   2.718   7.330  0.00  0.00    +0.000 A 
ATOM     13  C   UNL     1      46.392   4.064   7.555  0.00  0.00    +0.000 A 
ATOM     14  C   UNL     1      45.551   4.442   8.604  0.00  0.00    +0.000 A 
ENDBRANCH   8   9
BRANCH   8  15
ATOM     15  N   UNL     1      43.396   5.172  10.218  0.00  0.00    +0.000 NA
ATOM     16  H   UNL     1      43.942   5.589   9.463  0.00  0.00    +0.000 HD
ATOM     17  H   UNL     1      43.524   5.790  11.017  0.00  0.00    +0.000 HD
ENDBRANCH   8  15
ENDBRANCH   7   8
ENDBRANCH   1   7
BRANCH   4  18
ATOM     18  C   UNL     1      48.505   7.566  13.878  0.00  0.00    +0.000 C 
BRANCH  18  19
ATOM     19  N   UNL     1      49.603   6.908  14.550  0.00  0.00    +0.000 N 
ATOM     20  C   UNL     1      50.286   7.491  15.585  0.00  0.00    +0.000 C 
ATOM     21  O   UNL     1      50.015   8.620  15.984  0.00  0.00    +0.000 OA
ATOM     22  H   UNL     1      49.958   6.067  14.106  0.00  0.00    +0.000 HD
BRANCH  20  23
ATOM     23  C   UNL     1      51.318   6.677  16.243  0.00  0.00    +0.000 A 
ATOM     24  C   UNL     1      52.645   7.087  16.185  0.00  0.00    +0.000 A 
ATOM     25  S   UNL     1      53.722   6.060  17.015  0.00  0.00    +0.000 S 
ATOM     26  C   UNL     1      52.460   5.006  17.453  0.00  0.00    +0.000 A 
ATOM     27  N   UNL     1      52.713   3.878  18.170  0.00  0.00    +0.000 NA
ATOM     28  C   UNL     1      51.672   3.152  18.405  0.00  0.00    +0.000 A 
ATOM     29  N   UNL     1      50.399   3.458  17.999  0.00  0.00    +0.000 N 
ATOM     30  C   UNL     1      50.087   4.616  17.325  0.00  0.00    +0.000 A 
ATOM     31  O   UNL     1      48.926   4.908  17.067  0.00  0.00    +0.000 OA
ATOM     32  C   UNL     1      51.231   5.448  16.996  0.00  0.00    +0.000 A 
ATOM     33  H   UNL     1      49.621   2.861  18.237  0.00  0.00    +0.000 HD
ENDBRANCH  20  23
ENDBRANCH  18  19
ENDBRANCH   4  18
TORSDOF 7
ENDMDL
MODEL 6
REMARK VINA RESULT:    -7.044      1.712      2.244
REMARK INTER + INTRA:         -10.934
REMARK INTER:                  -9.703
REMARK INTRA:                  -1.231
REMARK UNBOUND:                -1.214
REMARK  Name = 
REMARK  7 active torsions:
REMARK  status: ('A' for Active; 'I' for Inactive)
REMARK    1  A    between atoms: N_1  and  C_2
REMARK    2  A    between atoms: C_2  and  C_3
REMARK    3  A    between atoms: C_2  and  C_24
REMARK    4  A    between atoms: C_3  and  C_4
REMARK    5  A    between atoms: C_7  and  C_8
REMARK    6  A    between atoms: C_8  and  N_9
REMARK    7  A    between atoms: C_10  and  C_12
REMARK                            x       y       z     vdW  Elec       q    Type
REMARK                         _______ _______ _______ _____ _____    ______ ____
ROOT
ATOM      1  C   UNL     1      45.420   6.489  11.852  0.00  0.00    +0.000 A 
ATOM      2  C   UNL     1      46.734   6.037  11.971  0.00  0.00    +0.000 A 
ATOM      3  C   UNL     1      47.674   6.784  12.683  0.00  0.00    +0.000 A 
ATOM      4  C   UNL     1      47.290   7.997  13.243  0.00  0.00    +0.000 A 
ATOM      5  N   UNL     1      46.020   8.462  13.153  0.00  0.00    +0.000 NA
ATOM      6  C   UNL     1      45.128   7.705  12.468  0.00  0.00    +0.000 A 
ENDROOT
BRANCH   1   7
ATOM      7  C   UNL     1      44.346   5.785  11.049  0.00  0.00    +0.000 C 
BRANCH   7   8
ATOM      8  C   UNL     1      44.344   4.232  11.032  0.00  0.00    +0.000 C 
BRANCH   8   9
ATOM      9  C   UNL     1      44.968   3.657   9.766  0.00  0.00    +0.000 A 
ATOM     10  C   UNL     1      45.532   4.519   8.811  0.00  0.00    +0.000 A 
ATOM     11  C   UNL     1      46.186   4.011   7.687  0.00  0.00    +0.000 A 
ATOM     12  C   UNL     1      46.291   2.634   7.502  0.00  0.00    +0.000 A 
ATOM     13  C   UNL     1      45.729   1.764   8.433  0.00  0.00    +0.000 A 
ATOM     14  C   UNL     1      45.069   2.270   9.556  0.00  0.00    +0.000 A 
ENDBRANCH   8   9
BRANCH   8  15
ATOM     15  N   UNL     1      43.003   3.660  11.211  0.00  0.00    +0.000 NA
ATOM     16  H   UNL     1      43.076   2.644  11.143  0.00  0.00    +0.000 HD
ATOM     17  H   UNL     1      42.409   3.942  10.433  0.00  0.00    +0.000 HD
ENDBRANCH   8  15
ENDBRANCH   7   8
ENDBRANCH   1   7
BRANCH   4  18
ATOM     18  C   UNL     1      48.303   8.857  13.961  0.00  0.00    +0.000 C 
BRANCH  18  19
ATOM     19  N   UNL     1      48.887   8.202  15.110  0.00  0.00    +0.000 N 
ATOM     20  C   UNL     1      48.568   8.553  16.396  0.00  0.00    +0.000 C 
ATOM     21  O   UNL     1      47.783   9.464  16.642  0.00  0.00    +0.000 OA
ATOM     22  H   UNL     1      49.674   7.589  14.923  0.00  0.00    +0.000 HD
BRANCH  20  23
ATOM     23  C   UNL     1      49.160   7.745  17.472  0.00  0.00    +0.000 A 
ATOM     24  C   UNL     1      49.745   8.385  18.558  0.00  0.00    +0.000 A 
ATOM     25  S   UNL     1      50.363   7.321  19.736  0.00  0.00    +0.000 S 
ATOM     26  C   UNL     1      49.904   5.960  18.822  0.00  0.00    +0.000 A 
ATOM     27  N   UNL     1      50.174   4.703  19.264  0.00  0.00    +0.000 NA
ATOM     28  C   UNL     1      49.802   3.765  18.457  0.00  0.00    +0.000 A 
ATOM     29  N   UNL     1      49.175   3.971  17.257  0.00  0.00    +0.000 N 
ATOM     30  C   UNL     1      48.828   5.221  16.799  0.00  0.00    +0.000 A 
ATOM     31  O   UNL     1      48.177   5.363  15.771  0.00  0.00    +0.000 OA
ATOM     32  C   UNL     1      49.264   6.316  17.648  0.00  0.00    +0.000 A 
ATOM     33  H   UNL     1      48.885   3.193  16.683  0.00  0.00    +0.000 HD
ENDBRANCH  20  23
ENDBRANCH  18  19
ENDBRANCH   4  18
TORSDOF 7
ENDMDL
MODEL 7
REMARK VINA RESULT:    -6.934      2.790      3.869
REMARK INTER + INTRA:         -10.784
REMARK INTER:                  -9.947
REMARK INTRA:                  -0.836
REMARK UNBOUND:                -1.214
REMARK  Name = 
REMARK  7 active torsions:
REMARK  status: ('A' for Active; 'I' for Inactive)
REMARK    1  A    between atoms: N_1  and  C_2
REMARK    2  A    between atoms: C_2  and  C_3
REMARK    3  A    between atoms: C_2  and  C_24
REMARK    4  A    between atoms: C_3  and  C_4
REMARK    5  A    between atoms: C_7  and  C_8
REMARK    6  A    between atoms: C_8  and  N_9
REMARK    7  A    between atoms: C_10  and  C_12
REMARK                            x       y       z     vdW  Elec       q    Type
REMARK                         _______ _______ _______ _____ _____    ______ ____
ROOT
ATOM      1  C   UNL     1      44.912   4.174  11.311  0.00  0.00    +0.000 A 
ATOM      2  C   UNL     1      45.621   3.268  12.100  0.00  0.00    +0.000 A 
ATOM      3  C   UNL     1      46.299   3.706  13.239  0.00  0.00    +0.000 A 
ATOM      4  C   UNL     1      46.283   5.060  13.556  0.00  0.00    +0.000 A 
ATOM      5  N   UNL     1      45.597   5.966  12.816  0.00  0.00    +0.000 NA
ATOM      6  C   UNL     1      44.937   5.504  11.725  0.00  0.00    +0.000 A 
ENDROOT
BRANCH   1   7
ATOM      7  C   UNL     1      44.200   3.808  10.025  0.00  0.00    +0.000 C 
BRANCH   7   8
ATOM      8  C   UNL     1      44.846   4.240   8.681  0.00  0.00    +0.000 C 
BRANCH   8   9
ATOM      9  C   UNL     1      45.738   3.160   8.083  0.00  0.00    +0.000 A 
ATOM     10  C   UNL     1      45.664   1.844   8.568  0.00  0.00    +0.000 A 
ATOM     11  C   UNL     1      46.408   0.821   7.977  0.00  0.00    +0.000 A 
ATOM     12  C   UNL     1      47.234   1.096   6.890  0.00  0.00    +0.000 A 
ATOM     13  C   UNL     1      47.327   2.396   6.400  0.00  0.00    +0.000 A 
ATOM     14  C   UNL     1      46.588   3.423   6.994  0.00  0.00    +0.000 A 
ENDBRANCH   8   9
BRANCH   8  15
ATOM     15  N   UNL     1      45.609   5.491   8.789  0.00  0.00    +0.000 NA
ATOM     16  H   UNL     1      45.441   6.043   7.948  0.00  0.00    +0.000 HD
ATOM     17  H   UNL     1      46.605   5.280   8.781  0.00  0.00    +0.000 HD
ENDBRANCH   8  15
ENDBRANCH   7   8
ENDBRANCH   1   7
BRANCH   4  18
ATOM     18  C   UNL     1      47.063   5.571  14.745  0.00  0.00    +0.000 C 
BRANCH  18  19
ATOM     19  N   UNL     1      48.298   6.223  14.372  0.00  0.00    +0.000 N 
ATOM     20  C   UNL     1      48.412   7.585  14.282  0.00  0.00    +0.000 C 
ATOM     21  O   UNL     1      47.458   8.329  14.491  0.00  0.00    +0.000 OA
ATOM     22  H   UNL     1      49.031   5.619  14.011  0.00  0.00    +0.000 HD
BRANCH  20  23
ATOM     23  C   UNL     1      49.748   8.123  13.986  0.00  0.00    +0.000 A 
ATOM     24  C   UNL     1      49.892   9.064  12.973  0.00  0.00    +0.000 A 
ATOM     25  S   UNL     1      51.491   9.615  12.765  0.00  0.00    +0.000 S 
ATOM     26  C   UNL     1      52.060   8.589  13.998  0.00  0.00    +0.000 A 
ATOM     27  N   UNL     1      53.382   8.550  14.316  0.00  0.00    +0.000 NA
ATOM     28  C   UNL     1      53.681   7.705  15.244  0.00  0.00    +0.000 A 
ATOM     29  N   UNL     1      52.776   6.905  15.893  0.00  0.00    +0.000 N 
ATOM     30  C   UNL     1      51.424   6.954  15.648  0.00  0.00    +0.000 A 
ATOM     31  O   UNL     1      50.633   6.301  16.316  0.00  0.00    +0.000 OA
ATOM     32  C   UNL     1      51.037   7.858  14.578  0.00  0.00    +0.000 A 
ATOM     33  H   UNL     1      53.070   6.283  16.631  0.00  0.00    +0.000 HD
ENDBRANCH  20  23
ENDBRANCH  18  19
ENDBRANCH   4  18
TORSDOF 7
ENDMDL
MODEL 8
REMARK VINA RESULT:    -6.916      2.751      4.443
REMARK INTER + INTRA:         -10.758
REMARK INTER:                 -10.039
REMARK INTRA:                  -0.719
REMARK UNBOUND:                -1.214
REMARK  Name = 
REMARK  7 active torsions:
REMARK  status: ('A' for Active; 'I' for Inactive)
REMARK    1  A    between atoms: N_1  and  C_2
REMARK    2  A    between atoms: C_2  and  C_3
REMARK    3  A    between atoms: C_2  and  C_24
REMARK    4  A    between atoms: C_3  and  C_4
REMARK    5  A    between atoms: C_7  and  C_8
REMARK    6  A    between atoms: C_8  and  N_9
REMARK    7  A    between atoms: C_10  and  C_12
REMARK                            x       y       z     vdW  Elec       q    Type
REMARK                         _______ _______ _______ _____ _____    ______ ____
ROOT
ATOM      1  C   UNL     1      44.947   4.158  11.174  0.00  0.00    +0.000 A 
ATOM      2  C   UNL     1      45.533   3.201  12.002  0.00  0.00    +0.000 A 
ATOM      3  C   UNL     1      46.188   3.588  13.172  0.00  0.00    +0.000 A 
ATOM      4  C   UNL     1      46.275   4.941  13.482  0.00  0.00    +0.000 A 
ATOM      5  N   UNL     1      45.709   5.897  12.704  0.00  0.00    +0.000 NA
ATOM      6  C   UNL     1      45.068   5.485  11.583  0.00  0.00    +0.000 A 
ENDROOT
BRANCH   1   7
ATOM      7  C   UNL     1      44.271   3.843   9.855  0.00  0.00    +0.000 C 
BRANCH   7   8
ATOM      8  C   UNL     1      44.987   4.271   8.545  0.00  0.00    +0.000 C 
BRANCH   8   9
ATOM      9  C   UNL     1      45.842   3.158   7.952  0.00  0.00    +0.000 A 
ATOM     10  C   UNL     1      45.755   1.856   8.474  0.00  0.00    +0.000 A 
ATOM     11  C   UNL     1      46.463   0.803   7.890  0.00  0.00    +0.000 A 
ATOM     12  C   UNL     1      47.265   1.034   6.775  0.00  0.00    +0.000 A 
ATOM     13  C   UNL     1      47.371   2.319   6.250  0.00  0.00    +0.000 A 
ATOM     14  C   UNL     1      46.669   3.375   6.835  0.00  0.00    +0.000 A 
ENDBRANCH   8   9
BRANCH   8  15
ATOM     15  N   UNL     1      45.811   5.476   8.710  0.00  0.00    +0.000 NA
ATOM     16  H   UNL     1      45.345   6.250   8.234  0.00  0.00    +0.000 HD
ATOM     17  H   UNL     1      46.695   5.350   8.221  0.00  0.00    +0.000 HD
ENDBRANCH   8  15
ENDBRANCH   7   8
ENDBRANCH   1   7
BRANCH   4  18
ATOM     18  C   UNL     1      47.035   5.393  14.706  0.00  0.00    +0.000 C 
BRANCH  18  19
ATOM     19  N   UNL     1      48.327   5.961  14.392  0.00  0.00    +0.000 N 
ATOM     20  C   UNL     1      48.556   7.312  14.395  0.00  0.00    +0.000 C 
ATOM     21  O   UNL     1      47.665   8.119  14.644  0.00  0.00    +0.000 OA
ATOM     22  H   UNL     1      49.012   5.322  13.999  0.00  0.00    +0.000 HD
BRANCH  20  23
ATOM     23  C   UNL     1      49.938   7.753  14.151  0.00  0.00    +0.000 A 
ATOM     24  C   UNL     1      50.889   7.590  15.152  0.00  0.00    +0.000 A 
ATOM     25  S   UNL     1      52.448   8.122  14.715  0.00  0.00    +0.000 S 
ATOM     26  C   UNL     1      51.903   8.624  13.182  0.00  0.00    +0.000 A 
ATOM     27  N   UNL     1      52.756   9.208  12.299  0.00  0.00    +0.000 NA
ATOM     28  C   UNL     1      52.206   9.571  11.189  0.00  0.00    +0.000 A 
ATOM     29  N   UNL     1      50.883   9.391  10.878  0.00  0.00    +0.000 N 
ATOM     30  C   UNL     1      49.998   8.752  11.715  0.00  0.00    +0.000 A 
ATOM     31  O   UNL     1      48.849   8.517  11.364  0.00  0.00    +0.000 OA
ATOM     32  C   UNL     1      50.556   8.363  12.998  0.00  0.00    +0.000 A 
ATOM     33  H   UNL     1      50.518   9.673   9.980  0.00  0.00    +0.000 HD
ENDBRANCH  20  23
ENDBRANCH  18  19
ENDBRANCH   4  18
TORSDOF 7
ENDMDL
MODEL 9
REMARK VINA RESULT:    -6.213      4.150      5.761
REMARK INTER + INTRA:          -9.788
REMARK INTER:                  -9.234
REMARK INTRA:                  -0.554
REMARK UNBOUND:                -1.214
REMARK  Name = 
REMARK  7 active torsions:
REMARK  status: ('A' for Active; 'I' for Inactive)
REMARK    1  A    between atoms: N_1  and  C_2
REMARK    2  A    between atoms: C_2  and  C_3
REMARK    3  A    between atoms: C_2  and  C_24
REMARK    4  A    between atoms: C_3  and  C_4
REMARK    5  A    between atoms: C_7  and  C_8
REMARK    6  A    between atoms: C_8  and  N_9
REMARK    7  A    between atoms: C_10  and  C_12
REMARK                            x       y       z     vdW  Elec       q    Type
REMARK                         _______ _______ _______ _____ _____    ______ ____
ROOT
ATOM      1  C   UNL     1      46.362   5.299  12.819  0.00  0.00    +0.000 A 
ATOM      2  C   UNL     1      46.849   6.345  12.035  0.00  0.00    +0.000 A 
ATOM      3  C   UNL     1      47.928   7.112  12.477  0.00  0.00    +0.000 A 
ATOM      4  C   UNL     1      48.488   6.838  13.720  0.00  0.00    +0.000 A 
ATOM      5  N   UNL     1      48.045   5.824  14.503  0.00  0.00    +0.000 NA
ATOM      6  C   UNL     1      47.004   5.089  14.038  0.00  0.00    +0.000 A 
ENDROOT
BRANCH   1   7
ATOM      7  C   UNL     1      45.158   4.453  12.457  0.00  0.00    +0.000 C 
BRANCH   7   8
ATOM      8  C   UNL     1      44.393   4.788  11.148  0.00  0.00    +0.000 C 
BRANCH   8   9
ATOM      9  C   UNL     1      44.940   4.040   9.940  0.00  0.00    +0.000 A 
ATOM     10  C   UNL     1      45.596   4.746   8.918  0.00  0.00    +0.000 A 
ATOM     11  C   UNL     1      46.181   4.072   7.844  0.00  0.00    +0.000 A 
ATOM     12  C   UNL     1      46.123   2.682   7.776  0.00  0.00    +0.000 A 
ATOM     13  C   UNL     1      45.468   1.965   8.775  0.00  0.00    +0.000 A 
ATOM     14  C   UNL     1      44.877   2.638   9.847  0.00  0.00    +0.000 A 
ENDBRANCH   8   9
BRANCH   8  15
ATOM     15  N   UNL     1      44.367   6.227  10.854  0.00  0.00    +0.000 NA
ATOM     16  H   UNL     1      45.293   6.610  11.043  0.00  0.00    +0.000 HD
ATOM     17  H   UNL     1      43.741   6.694  11.508  0.00  0.00    +0.000 HD
ENDBRANCH   8  15
ENDBRANCH   7   8
ENDBRANCH   1   7
BRANCH   4  18
ATOM     18  C   UNL     1      49.613   7.694  14.251  0.00  0.00    +0.000 C 
BRANCH  18  19
ATOM     19  N   UNL     1      50.803   7.636  13.432  0.00  0.00    +0.000 N 
ATOM     20  C   UNL     1      51.702   8.668  13.368  0.00  0.00    +0.000 C 
ATOM     21  O   UNL     1      51.532   9.713  13.990  0.00  0.00    +0.000 OA
ATOM     22  H   UNL     1      50.854   6.867  12.771  0.00  0.00    +0.000 HD
BRANCH  20  23
ATOM     23  C   UNL     1      52.918   8.444  12.572  0.00  0.00    +0.000 A 
ATOM     24  C   UNL     1      54.154   8.777  13.113  0.00  0.00    +0.000 A 
ATOM     25  S   UNL     1      55.471   8.436  12.086  0.00  0.00    +0.000 S 
ATOM     26  C   UNL     1      54.435   7.863  10.863  0.00  0.00    +0.000 A 
ATOM     27  N   UNL     1      54.935   7.432   9.674  0.00  0.00    +0.000 NA
ATOM     28  C   UNL     1      54.038   7.057   8.825  0.00  0.00    +0.000 A 
ATOM     29  N   UNL     1      52.688   7.062   9.061  0.00  0.00    +0.000 N 
ATOM     30  C   UNL     1      52.142   7.432  10.267  0.00  0.00    +0.000 A 
ATOM     31  O   UNL     1      50.940   7.328  10.480  0.00  0.00    +0.000 OA
ATOM     32  C   UNL     1      53.105   7.906  11.246  0.00  0.00    +0.000 A 
ATOM     33  H   UNL     1      52.039   6.731   8.364  0.00  0.00    +0.000 HD
ENDBRANCH  20  23
ENDBRANCH  18  19
ENDBRANCH   4  18
TORSDOF 7
ENDMDL
