MODEL 1
REMARK VINA RESULT:    -7.453      0.000      0.000
REMARK INTER + INTRA:         -10.728
REMARK INTER:                 -10.067
REMARK INTRA:                  -0.661
REMARK UNBOUND:                -0.661
REMARK  Name = 
REMARK  7 active torsions:
REMARK  status: ('A' for Active; 'I' for Inactive)
REMARK    1  A    between atoms: N_1  and  CA_2
REMARK    2  A    between atoms: CA_2  and  C_3
REMARK    3  A    between atoms: CA_2  and  C_5
REMARK    4  A    between atoms: C_3  and  O_4
REMARK    5  A    between atoms: C_8  and  O_9
REMARK    6  A    between atoms: O_9  and  C_10
REMARK    7  A    between atoms: C_10  and  C_11
REMARK                            x       y       z     vdW  Elec       q    Type
REMARK                         _______ _______ _______ _____ _____    ______ ____
ROOT
ATOM      1  C   UNL     1      45.988   2.341   8.023  0.00  0.00    +0.000 A 
ATOM      2  C   UNL     1      45.182   1.777   9.022  0.00  0.00    +0.000 A 
ATOM      3  C   UNL     1      44.436   2.598   9.878  0.00  0.00    +0.000 A 
ATOM      4  C   UNL     1      44.496   3.986   9.762  0.00  0.00    +0.000 A 
ATOM      5  C   UNL     1      45.268   4.551   8.747  0.00  0.00    +0.000 A 
ATOM      6  C   UNL     1      46.015   3.735   7.902  0.00  0.00    +0.000 A 
ENDROOT
BRANCH   1   7
ATOM      7  CA  UNL     1      46.808   1.457   7.094  0.00  0.00    +0.000 C 
BRANCH   7   8
ATOM      8  N   UNL     1      46.996   0.117   7.682  0.00  0.00    +0.000 NA
ATOM      9  H1  UNL     1      47.063   0.229   8.693  0.00  0.00    +0.000 HD
ATOM     10  H2  UNL     1      47.905  -0.250   7.405  0.00  0.00    +0.000 HD
ENDBRANCH   7   8
BRANCH   7  11
ATOM     11  C   UNL     1      48.170   2.087   6.699  0.00  0.00    +0.000 C 
BRANCH  11  12
ATOM     12  O   UNL     1      48.603   1.714   5.390  0.00  0.00    +0.000 OA
ATOM     13  H   UNL     1      49.535   1.989   5.335  0.00  0.00    +0.000 HD
ENDBRANCH  11  12
ENDBRANCH   7  11
ENDBRANCH   1   7
BRANCH   4  14
ATOM     14  O   UNL     1      43.777   4.706  10.679  0.00  0.00    +0.000 OA
BRANCH  14  15
ATOM     15  C   UNL     1      44.385   5.940  11.067  0.00  0.00    +0.000 C 
BRANCH  15  16
ATOM     16  C   UNL     1      45.465   5.737  12.099  0.00  0.00    +0.000 A 
ATOM     17  C   UNL     1      45.324   4.836  13.154  0.00  0.00    +0.000 A 
ATOM     18  C   UNL     1      46.400   4.639  14.004  0.00  0.00    +0.000 A 
ATOM     19  N   UNL     1      47.592   5.260  13.870  0.00  0.00    +0.000 NA
ATOM     20  C   UNL     1      47.709   6.122  12.841  0.00  0.00    +0.000 A 
ATOM     21  C   UNL     1      46.693   6.391  11.939  0.00  0.00    +0.000 A 
ENDBRANCH  15  16
ENDBRANCH  14  15
ENDBRANCH   4  14
TORSDOF 7
ENDMDL
MODEL 2
REMARK VINA RESULT:    -6.870      2.024      6.306
REMARK INTER + INTRA:          -9.941
REMARK INTER:                  -9.325
REMARK INTRA:                  -0.617
REMARK UNBOUND:                -0.661
REMARK  Name = 
REMARK  7 active torsions:
REMARK  status: ('A' for Active; 'I' for Inactive)
REMARK    1  A    between atoms: N_1  and  CA_2
REMARK    2  A    between atoms: CA_2  and  C_3
REMARK    3  A    between atoms: CA_2  and  C_5
REMARK    4  A    between atoms: C_3  and  O_4
REMARK    5  A    between atoms: C_8  and  O_9
REMARK    6  A    between atoms: O_9  and  C_10
REMARK    7  A    between atoms: C_10  and  C_11
REMARK                            x       y       z     vdW  Elec       q    Type
REMARK                         _______ _______ _______ _____ _____    ______ ____
ROOT
ATOM      1  C   UNL     1      46.277   5.032  12.910  0.00  0.00    +0.000 A 
ATOM      2  C   UNL     1      45.811   3.710  12.892  0.00  0.00    +0.000 A 
ATOM      3  C   UNL     1      45.140   3.209  11.769  0.00  0.00    +0.000 A 
ATOM      4  C   UNL     1      44.911   4.020  10.658  0.00  0.00    +0.000 A 
ATOM      5  C   UNL     1      45.404   5.326  10.656  0.00  0.00    +0.000 A 
ATOM      6  C   UNL     1      46.062   5.825  11.776  0.00  0.00    +0.000 A 
ENDROOT
BRANCH   1   7
ATOM      7  CA  UNL     1      46.998   5.586  14.130  0.00  0.00    +0.000 C 
BRANCH   7   8
ATOM      8  N   UNL     1      48.342   6.072  13.765  0.00  0.00    +0.000 NA
ATOM      9  H1  UNL     1      48.989   5.768  14.493  0.00  0.00    +0.000 HD
ATOM     10  H2  UNL     1      48.360   7.089  13.817  0.00  0.00    +0.000 HD
ENDBRANCH   7   8
BRANCH   7  11
ATOM     11  C   UNL     1      47.071   4.575  15.306  0.00  0.00    +0.000 C 
BRANCH  11  12
ATOM     12  O   UNL     1      47.598   5.146  16.505  0.00  0.00    +0.000 OA
ATOM     13  H   UNL     1      46.823   5.361  17.054  0.00  0.00    +0.000 HD
ENDBRANCH  11  12
ENDBRANCH   7  11
ENDBRANCH   1   7
BRANCH   4  14
ATOM     14  O   UNL     1      44.199   3.461   9.631  0.00  0.00    +0.000 OA
BRANCH  14  15
ATOM     15  C   UNL     1      44.683   3.794   8.328  0.00  0.00    +0.000 C 
BRANCH  15  16
ATOM     16  C   UNL     1      45.833   2.913   7.911  0.00  0.00    +0.000 A 
ATOM     17  C   UNL     1      45.872   1.551   8.210  0.00  0.00    +0.000 A 
ATOM     18  C   UNL     1      46.918   0.794   7.708  0.00  0.00    +0.000 A 
ATOM     19  N   UNL     1      47.905   1.290   6.931  0.00  0.00    +0.000 NA
ATOM     20  C   UNL     1      47.845   2.606   6.649  0.00  0.00    +0.000 A 
ATOM     21  C   UNL     1      46.845   3.449   7.105  0.00  0.00    +0.000 A 
ENDBRANCH  15  16
ENDBRANCH  14  15
ENDBRANCH   4  14
TORSDOF 7
ENDMDL
MODEL 3
REMARK VINA RESULT:    -6.853      2.033      6.245
REMARK INTER + INTRA:          -9.918
REMARK INTER:                  -9.312
REMARK INTRA:                  -0.607
REMARK UNBOUND:                -0.661
REMARK  Name = 
REMARK  7 active torsions:
REMARK  status: ('A' for Active; 'I' for Inactive)
REMARK    1  A    between atoms: N_1  and  CA_2
REMARK    2  A    between atoms: CA_2  and  C_3
REMARK    3  A    between atoms: CA_2  and  C_5
REMARK    4  A    between atoms: C_3  and  O_4
REMARK    5  A    between atoms: C_8  and  O_9
REMARK    6  A    between atoms: O_9  and  C_10
REMARK    7  A    between atoms: C_10  and  C_11
REMARK                            x       y       z     vdW  Elec       q    Type
REMARK                         _______ _______ _______ _____ _____    ______ ____
ROOT
ATOM      1  C   UNL     1      46.193   6.020  12.381  0.00  0.00    +0.000 A 
ATOM      2  C   UNL     1      45.948   6.297  11.029  0.00  0.00    +0.000 A 
ATOM      3  C   UNL     1      45.312   5.350  10.215  0.00  0.00    +0.000 A 
ATOM      4  C   UNL     1      44.928   4.113  10.732  0.00  0.00    +0.000 A 
ATOM      5  C   UNL     1      45.137   3.847  12.085  0.00  0.00    +0.000 A 
ATOM      6  C   UNL     1      45.777   4.784  12.890  0.00  0.00    +0.000 A 
ENDROOT
BRANCH   1   7
ATOM      7  CA  UNL     1      46.892   7.039  13.270  0.00  0.00    +0.000 C 
BRANCH   7   8
ATOM      8  N   UNL     1      46.076   8.261  13.403  0.00  0.00    +0.000 NA
ATOM      9  H1  UNL     1      45.186   7.995  13.825  0.00  0.00    +0.000 HD
ATOM     10  H2  UNL     1      45.825   8.604  12.477  0.00  0.00    +0.000 HD
ENDBRANCH   7   8
BRANCH   7  11
ATOM     11  C   UNL     1      48.329   7.380  12.792  0.00  0.00    +0.000 C 
BRANCH  11  12
ATOM     12  O   UNL     1      49.236   6.284  12.917  0.00  0.00    +0.000 OA
ATOM     13  H   UNL     1      48.918   5.767  13.679  0.00  0.00    +0.000 HD
ENDBRANCH  11  12
ENDBRANCH   7  11
ENDBRANCH   1   7
BRANCH   4  14
ATOM     14  O   UNL     1      44.364   3.232   9.848  0.00  0.00    +0.000 OA
BRANCH  14  15
ATOM     15  C   UNL     1      44.637   3.519   8.474  0.00  0.00    +0.000 C 
BRANCH  15  16
ATOM     16  C   UNL     1      45.823   2.744   7.960  0.00  0.00    +0.000 A 
ATOM     17  C   UNL     1      45.978   1.378   8.198  0.00  0.00    +0.000 A 
ATOM     18  C   UNL     1      47.047   0.722   7.610  0.00  0.00    +0.000 A 
ATOM     19  N   UNL     1      47.951   1.321   6.805  0.00  0.00    +0.000 NA
ATOM     20  C   UNL     1      47.780   2.639   6.584  0.00  0.00    +0.000 A 
ATOM     21  C   UNL     1      46.747   3.386   7.126  0.00  0.00    +0.000 A 
ENDBRANCH  15  16
ENDBRANCH  14  15
ENDBRANCH   4  14
TORSDOF 7
ENDMDL
MODEL 4
REMARK VINA RESULT:    -6.430      1.128      1.478
REMARK INTER + INTRA:          -9.347
REMARK INTER:                  -8.766
REMARK INTRA:                  -0.581
REMARK UNBOUND:                -0.661
REMARK  Name = 
REMARK  7 active torsions:
REMARK  status: ('A' for Active; 'I' for Inactive)
REMARK    1  A    between atoms: N_1  and  CA_2
REMARK    2  A    between atoms: CA_2  and  C_3
REMARK    3  A    between atoms: CA_2  and  C_5
REMARK    4  A    between atoms: C_3  and  O_4
REMARK    5  A    between atoms: C_8  and  O_9
REMARK    6  A    between atoms: O_9  and  C_10
REMARK    7  A    between atoms: C_10  and  C_11
REMARK                            x       y       z     vdW  Elec       q    Type
REMARK                         _______ _______ _______ _____ _____    ______ ____
ROOT
ATOM      1  C   UNL     1      45.970   2.554   7.884  0.00  0.00    +0.000 A 
ATOM      2  C   UNL     1      45.251   1.917   8.905  0.00  0.00    +0.000 A 
ATOM      3  C   UNL     1      44.668   2.667   9.935  0.00  0.00    +0.000 A 
ATOM      4  C   UNL     1      44.806   4.054   9.970  0.00  0.00    +0.000 A 
ATOM      5  C   UNL     1      45.490   4.696   8.937  0.00  0.00    +0.000 A 
ATOM      6  C   UNL     1      46.076   3.949   7.919  0.00  0.00    +0.000 A 
ENDROOT
BRANCH   1   7
ATOM      7  CA  UNL     1      46.615   1.746   6.767  0.00  0.00    +0.000 C 
BRANCH   7   8
ATOM      8  N   UNL     1      47.317   0.569   7.313  0.00  0.00    +0.000 NA
ATOM      9  H1  UNL     1      46.731   0.171   8.047  0.00  0.00    +0.000 HD
ATOM     10  H2  UNL     1      48.160   0.872   7.797  0.00  0.00    +0.000 HD
ENDBRANCH   7   8
BRANCH   7  11
ATOM     11  C   UNL     1      47.560   2.591   5.871  0.00  0.00    +0.000 C 
BRANCH  11  12
ATOM     12  O   UNL     1      48.921   2.557   6.303  0.00  0.00    +0.000 OA
ATOM     13  H   UNL     1      48.955   1.885   7.007  0.00  0.00    +0.000 HD
ENDBRANCH  11  12
ENDBRANCH   7  11
ENDBRANCH   1   7
BRANCH   4  14
ATOM     14  O   UNL     1      44.249   4.696  11.045  0.00  0.00    +0.000 OA
BRANCH  14  15
ATOM     15  C   UNL     1      44.981   4.548  12.263  0.00  0.00    +0.000 C 
BRANCH  15  16
ATOM     16  C   UNL     1      45.733   5.803  12.626  0.00  0.00    +0.000 A 
ATOM     17  C   UNL     1      45.161   7.070  12.515  0.00  0.00    +0.000 A 
ATOM     18  C   UNL     1      45.886   8.164  12.959  0.00  0.00    +0.000 A 
ATOM     19  N   UNL     1      47.116   8.081  13.509  0.00  0.00    +0.000 NA
ATOM     20  C   UNL     1      47.648   6.847  13.613  0.00  0.00    +0.000 A 
ATOM     21  C   UNL     1      47.007   5.693  13.196  0.00  0.00    +0.000 A 
ENDBRANCH  15  16
ENDBRANCH  14  15
ENDBRANCH   4  14
TORSDOF 7
ENDMDL
MODEL 5
REMARK VINA RESULT:    -6.026      2.425      6.716
REMARK INTER + INTRA:          -8.801
REMARK INTER:                  -8.267
REMARK INTRA:                  -0.534
REMARK UNBOUND:                -0.661
REMARK  Name = 
REMARK  7 active torsions:
REMARK  status: ('A' for Active; 'I' for Inactive)
REMARK    1  A    between atoms: N_1  and  CA_2
REMARK    2  A    between atoms: CA_2  and  C_3
REMARK    3  A    between atoms: CA_2  and  C_5
REMARK    4  A    between atoms: C_3  and  O_4
REMARK    5  A    between atoms: C_8  and  O_9
REMARK    6  A    between atoms: O_9  and  C_10
REMARK    7  A    between atoms: C_10  and  C_11
REMARK                            x       y       z     vdW  Elec       q    Type
REMARK                         _______ _______ _______ _____ _____    ______ ____
ROOT
ATOM      1  C   UNL     1      44.922   7.395  11.515  0.00  0.00    +0.000 A 
ATOM      2  C   UNL     1      46.062   6.583  11.587  0.00  0.00    +0.000 A 
ATOM      3  C   UNL     1      45.963   5.200  11.383  0.00  0.00    +0.000 A 
ATOM      4  C   UNL     1      44.728   4.608  11.122  0.00  0.00    +0.000 A 
ATOM      5  C   UNL     1      43.595   5.416  11.013  0.00  0.00    +0.000 A 
ATOM      6  C   UNL     1      43.694   6.788  11.225  0.00  0.00    +0.000 A 
ENDROOT
BRANCH   1   7
ATOM      7  CA  UNL     1      45.020   8.896  11.745  0.00  0.00    +0.000 C 
BRANCH   7   8
ATOM      8  N   UNL     1      45.191   9.194  13.180  0.00  0.00    +0.000 NA
ATOM      9  H1  UNL     1      44.274   9.122  13.622  0.00  0.00    +0.000 HD
ATOM     10  H2  UNL     1      45.452  10.172  13.294  0.00  0.00    +0.000 HD
ENDBRANCH   7   8
BRANCH   7  11
ATOM     11  C   UNL     1      43.820   9.682  11.153  0.00  0.00    +0.000 C 
BRANCH  11  12
ATOM     12  O   UNL     1      43.175  10.526  12.108  0.00  0.00    +0.000 OA
ATOM     13  H   UNL     1      42.227  10.308  12.051  0.00  0.00    +0.000 HD
ENDBRANCH  11  12
ENDBRANCH   7  11
ENDBRANCH   1   7
BRANCH   4  14
ATOM     14  O   UNL     1      44.721   3.244  10.992  0.00  0.00    +0.000 OA
BRANCH  14  15
ATOM     15  C   UNL     1      44.247   2.775   9.728  0.00  0.00    +0.000 C 
BRANCH  15  16
ATOM     16  C   UNL     1      45.363   2.633   8.725  0.00  0.00    +0.000 A 
ATOM     17  C   UNL     1      45.961   1.404   8.448  0.00  0.00    +0.000 A 
ATOM     18  C   UNL     1      46.913   1.343   7.444  0.00  0.00    +0.000 A 
ATOM     19  N   UNL     1      47.296   2.403   6.700  0.00  0.00    +0.000 NA
ATOM     20  C   UNL     1      46.701   3.580   6.979  0.00  0.00    +0.000 A 
ATOM     21  C   UNL     1      45.742   3.746   7.964  0.00  0.00    +0.000 A 
ENDBRANCH  15  16
ENDBRANCH  14  15
ENDBRANCH   4  14
TORSDOF 7
ENDMDL
MODEL 6
REMARK VINA RESULT:    -5.299      3.313      4.991
REMARK INTER + INTRA:          -7.819
REMARK INTER:                  -7.408
REMARK INTRA:                  -0.411
REMARK UNBOUND:                -0.661
REMARK  Name = 
REMARK  7 active torsions:
REMARK  status: ('A' for Active; 'I' for Inactive)
REMARK    1  A    between atoms: N_1  and  CA_2
REMARK    2  A    between atoms: CA_2  and  C_3
REMARK    3  A    between atoms: CA_2  and  C_5
REMARK    4  A    between atoms: C_3  and  O_4
REMARK    5  A    between atoms: C_8  and  O_9
REMARK    6  A    between atoms: O_9  and  C_10
REMARK    7  A    between atoms: C_10  and  C_11
REMARK                            x       y       z     vdW  Elec       q    Type
REMARK                         _______ _______ _______ _____ _____    ______ ____
ROOT
ATOM      1  C   UNL     1      45.020   4.359  11.558  0.00  0.00    +0.000 A 
ATOM      2  C   UNL     1      45.557   3.494  12.521  0.00  0.00    +0.000 A 
ATOM      3  C   UNL     1      46.618   3.910  13.336  0.00  0.00    +0.000 A 
ATOM      4  C   UNL     1      47.168   5.183  13.191  0.00  0.00    +0.000 A 
ATOM      5  C   UNL     1      46.614   6.061  12.258  0.00  0.00    +0.000 A 
ATOM      6  C   UNL     1      45.565   5.644  11.444  0.00  0.00    +0.000 A 
ENDROOT
BRANCH   1   7
ATOM      7  CA  UNL     1      43.873   3.912  10.663  0.00  0.00    +0.000 C 
BRANCH   7   8
ATOM      8  N   UNL     1      42.889   3.126  11.431  0.00  0.00    +0.000 NA
ATOM      9  H1  UNL     1      43.299   2.922  12.343  0.00  0.00    +0.000 HD
ATOM     10  H2  UNL     1      42.771   2.213  10.996  0.00  0.00    +0.000 HD
ENDBRANCH   7   8
BRANCH   7  11
ATOM     11  C   UNL     1      44.348   3.134   9.407  0.00  0.00    +0.000 C 
BRANCH  11  12
ATOM     12  O   UNL     1      44.409   1.722   9.611  0.00  0.00    +0.000 OA
ATOM     13  H   UNL     1      44.081   1.575  10.517  0.00  0.00    +0.000 HD
ENDBRANCH  11  12
ENDBRANCH   7  11
ENDBRANCH   1   7
BRANCH   4  14
ATOM     14  O   UNL     1      48.239   5.480  13.992  0.00  0.00    +0.000 OA
BRANCH  14  15
ATOM     15  C   UNL     1      47.891   6.083  15.240  0.00  0.00    +0.000 C 
BRANCH  15  16
ATOM     16  C   UNL     1      48.157   5.163  16.404  0.00  0.00    +0.000 A 
ATOM     17  C   UNL     1      47.326   4.084  16.704  0.00  0.00    +0.000 A 
ATOM     18  C   UNL     1      47.693   3.231  17.732  0.00  0.00    +0.000 A 
ATOM     19  N   UNL     1      48.820   3.370  18.462  0.00  0.00    +0.000 NA
ATOM     20  C   UNL     1      49.613   4.415  18.153  0.00  0.00    +0.000 A 
ATOM     21  C   UNL     1      49.333   5.325  17.147  0.00  0.00    +0.000 A 
ENDBRANCH  15  16
ENDBRANCH  14  15
ENDBRANCH   4  14
TORSDOF 7
ENDMDL
MODEL 7
REMARK VINA RESULT:    -5.285      3.268      4.967
REMARK INTER + INTRA:          -7.800
REMARK INTER:                  -7.294
REMARK INTRA:                  -0.506
REMARK UNBOUND:                -0.661
REMARK  Name = 
REMARK  7 active torsions:
REMARK  status: ('A' for Active; 'I' for Inactive)
REMARK    1  A    between atoms: N_1  and  CA_2
REMARK    2  A    between atoms: CA_2  and  C_3
REMARK    3  A    between atoms: CA_2  and  C_5
REMARK    4  A    between atoms: C_3  and  O_4
REMARK    5  A    between atoms: C_8  and  O_9
REMARK    6  A    between atoms: O_9  and  C_10
REMARK    7  A    between atoms: C_10  and  C_11
REMARK                            x       y       z     vdW  Elec       q    Type
REMARK                         _______ _______ _______ _____ _____    ______ ____
ROOT
ATOM      1  C   UNL     1      44.819   4.167  11.352  0.00  0.00    +0.000 A 
ATOM      2  C   UNL     1      45.268   5.333  10.714  0.00  0.00    +0.000 A 
ATOM      3  C   UNL     1      46.149   6.205  11.368  0.00  0.00    +0.000 A 
ATOM      4  C   UNL     1      46.581   5.937  12.666  0.00  0.00    +0.000 A 
ATOM      5  C   UNL     1      46.166   4.760  13.292  0.00  0.00    +0.000 A 
ATOM      6  C   UNL     1      45.284   3.900  12.646  0.00  0.00    +0.000 A 
ENDROOT
BRANCH   1   7
ATOM      7  CA  UNL     1      43.855   3.220  10.653  0.00  0.00    +0.000 C 
BRANCH   7   8
ATOM      8  N   UNL     1      43.219   2.312  11.626  0.00  0.00    +0.000 NA
ATOM      9  H1  UNL     1      42.239   2.211  11.361  0.00  0.00    +0.000 HD
ATOM     10  H2  UNL     1      43.190   2.762  12.540  0.00  0.00    +0.000 HD
ENDBRANCH   7   8
BRANCH   7  11
ATOM     11  C   UNL     1      44.516   2.422   9.498  0.00  0.00    +0.000 C 
BRANCH  11  12
ATOM     12  O   UNL     1      44.287   3.001   8.212  0.00  0.00    +0.000 OA
ATOM     13  H   UNL     1      44.107   2.252   7.617  0.00  0.00    +0.000 HD
ENDBRANCH  11  12
ENDBRANCH   7  11
ENDBRANCH   1   7
BRANCH   4  14
ATOM     14  O   UNL     1      47.396   6.874  13.244  0.00  0.00    +0.000 OA
BRANCH  14  15
ATOM     15  C   UNL     1      48.772   6.766  12.874  0.00  0.00    +0.000 C 
BRANCH  15  16
ATOM     16  C   UNL     1      49.259   7.994  12.148  0.00  0.00    +0.000 A 
ATOM     17  C   UNL     1      48.469   9.135  12.004  0.00  0.00    +0.000 A 
ATOM     18  C   UNL     1      49.026  10.254  11.407  0.00  0.00    +0.000 A 
ATOM     19  N   UNL     1      50.299  10.318  10.962  0.00  0.00    +0.000 NA
ATOM     20  C   UNL     1      51.047   9.208  11.116  0.00  0.00    +0.000 A 
ATOM     21  C   UNL     1      50.584   8.038  11.695  0.00  0.00    +0.000 A 
ENDBRANCH  15  16
ENDBRANCH  14  15
ENDBRANCH   4  14
TORSDOF 7
ENDMDL
MODEL 8
REMARK VINA RESULT:    -5.222      3.514      6.832
REMARK INTER + INTRA:          -7.715
REMARK INTER:                  -7.389
REMARK INTRA:                  -0.325
REMARK UNBOUND:                -0.661
REMARK  Name = 
REMARK  7 active torsions:
REMARK  status: ('A' for Active; 'I' for Inactive)
REMARK    1  A    between atoms: N_1  and  CA_2
REMARK    2  A    between atoms: CA_2  and  C_3
REMARK    3  A    between atoms: CA_2  and  C_5
REMARK    4  A    between atoms: C_3  and  O_4
REMARK    5  A    between atoms: C_8  and  O_9
REMARK    6  A    between atoms: O_9  and  C_10
REMARK    7  A    between atoms: C_10  and  C_11
REMARK                            x       y       z     vdW  Elec       q    Type
REMARK                         _______ _______ _______ _____ _____    ______ ____
ROOT
ATOM      1  C   UNL     1      47.496   4.137  15.651  0.00  0.00    +0.000 A 
ATOM      2  C   UNL     1      47.980   5.452  15.686  0.00  0.00    +0.000 A 
ATOM      3  C   UNL     1      47.930   6.257  14.540  0.00  0.00    +0.000 A 
ATOM      4  C   UNL     1      47.415   5.759  13.344  0.00  0.00    +0.000 A 
ATOM      5  C   UNL     1      46.899   4.463  13.313  0.00  0.00    +0.000 A 
ATOM      6  C   UNL     1      46.957   3.661  14.450  0.00  0.00    +0.000 A 
ENDROOT
BRANCH   1   7
ATOM      7  CA  UNL     1      47.554   3.253  16.889  0.00  0.00    +0.000 C 
BRANCH   7   8
ATOM      8  N   UNL     1      47.018   3.966  18.064  0.00  0.00    +0.000 NA
ATOM      9  H1  UNL     1      47.808   4.372  18.567  0.00  0.00    +0.000 HD
ATOM     10  H2  UNL     1      46.620   3.292  18.716  0.00  0.00    +0.000 HD
ENDBRANCH   7   8
BRANCH   7  11
ATOM     11  C   UNL     1      48.975   2.699  17.175  0.00  0.00    +0.000 C 
BRANCH  11  12
ATOM     12  O   UNL     1      49.454   1.827  16.150  0.00  0.00    +0.000 OA
ATOM     13  H   UNL     1      50.426   1.878  16.197  0.00  0.00    +0.000 HD
ENDBRANCH  11  12
ENDBRANCH   7  11
ENDBRANCH   1   7
BRANCH   4  14
ATOM     14  O   UNL     1      47.460   6.600  12.264  0.00  0.00    +0.000 OA
BRANCH  14  15
ATOM     15  C   UNL     1      46.203   7.187  11.922  0.00  0.00    +0.000 C 
BRANCH  15  16
ATOM     16  C   UNL     1      45.311   6.221  11.183  0.00  0.00    +0.000 A 
ATOM     17  C   UNL     1      45.749   5.514  10.064  0.00  0.00    +0.000 A 
ATOM     18  C   UNL     1      44.899   4.576   9.500  0.00  0.00    +0.000 A 
ATOM     19  N   UNL     1      43.668   4.290   9.976  0.00  0.00    +0.000 NA
ATOM     20  C   UNL     1      43.267   4.980  11.062  0.00  0.00    +0.000 A 
ATOM     21  C   UNL     1      44.039   5.940  11.695  0.00  0.00    +0.000 A 
ENDBRANCH  15  16
ENDBRANCH  14  15
ENDBRANCH   4  14
TORSDOF 7
ENDMDL
MODEL 9
REMARK VINA RESULT:    -5.152      3.574      7.748
REMARK INTER + INTRA:          -7.620
REMARK INTER:                  -7.179
REMARK INTRA:                  -0.441
REMARK UNBOUND:                -0.661
REMARK  Name = 
REMARK  7 active torsions:
REMARK  status: ('A' for Active; 'I' for Inactive)
REMARK    1  A    between atoms: N_1  and  CA_2
REMARK    2  A    between atoms: CA_2  and  C_3
REMARK    3  A    between atoms: CA_2  and  C_5
REMARK    4  A    between atoms: C_3  and  O_4
REMARK    5  A    between atoms: C_8  and  O_9
REMARK    6  A    between atoms: O_9  and  C_10
REMARK    7  A    between atoms: C_10  and  C_11
REMARK                            x       y       z     vdW  Elec       q    Type
REMARK                         _______ _______ _______ _____ _____    ______ ____
ROOT
ATOM      1  C   UNL     1      48.200   5.100  16.610  0.00  0.00    +0.000 A 
ATOM      2  C   UNL     1      47.360   4.209  15.927  0.00  0.00    +0.000 A 
ATOM      3  C   UNL     1      46.960   4.478  14.612  0.00  0.00    +0.000 A 
ATOM      4  C   UNL     1      47.375   5.642  13.967  0.00  0.00    +0.000 A 
ATOM      5  C   UNL     1      48.239   6.515  14.629  0.00  0.00    +0.000 A 
ATOM      6  C   UNL     1      48.629   6.251  15.939  0.00  0.00    +0.000 A 
ENDROOT
BRANCH   1   7
ATOM      7  CA  UNL     1      48.632   4.820  18.042  0.00  0.00    +0.000 C 
BRANCH   7   8
ATOM      8  N   UNL     1      48.698   3.368  18.292  0.00  0.00    +0.000 NA
ATOM      9  H1  UNL     1      48.831   3.231  19.294  0.00  0.00    +0.000 HD
ATOM     10  H2  UNL     1      49.544   2.989  17.869  0.00  0.00    +0.000 HD
ENDBRANCH   7   8
BRANCH   7  11
ATOM     11  C   UNL     1      47.738   5.526  19.097  0.00  0.00    +0.000 C 
BRANCH  11  12
ATOM     12  O   UNL     1      46.346   5.462  18.786  0.00  0.00    +0.000 OA
ATOM     13  H   UNL     1      46.107   6.354  18.474  0.00  0.00    +0.000 HD
ENDBRANCH  11  12
ENDBRANCH   7  11
ENDBRANCH   1   7
BRANCH   4  14
ATOM     14  O   UNL     1      46.887   5.846  12.703  0.00  0.00    +0.000 OA
BRANCH  14  15
ATOM     15  C   UNL     1      45.469   6.011  12.638  0.00  0.00    +0.000 C 
BRANCH  15  16
ATOM     16  C   UNL     1      44.811   4.922  11.830  0.00  0.00    +0.000 A 
ATOM     17  C   UNL     1      45.147   4.680  10.498  0.00  0.00    +0.000 A 
ATOM     18  C   UNL     1      44.564   3.600   9.855  0.00  0.00    +0.000 A 
ATOM     19  N   UNL     1      43.694   2.751  10.443  0.00  0.00    +0.000 NA
ATOM     20  C   UNL     1      43.388   2.999  11.731  0.00  0.00    +0.000 A 
ATOM     21  C   UNL     1      43.912   4.053  12.461  0.00  0.00    +0.000 A 
ENDBRANCH  15  16
ENDBRANCH  14  15
ENDBRANCH   4  14
TORSDOF 7
ENDMDL
