MODEL 1
REMARK VINA RESULT:    -7.208      0.000      0.000
REMARK INTER + INTRA:         -10.039
REMARK INTER:                  -9.526
REMARK INTRA:                  -0.513
REMARK UNBOUND:                -0.513
REMARK  Name = 
REMARK  6 active torsions:
REMARK  status: ('A' for Active; 'I' for Inactive)
REMARK    1  A    between atoms: N_1  and  C_2
REMARK    2  A    between atoms: C_2  and  C_3
REMARK    3  A    between atoms: C_7  and  O_8
REMARK    4  A    between atoms: O_8  and  C_9
REMARK    5  A    between atoms: C_9  and  C_10
REMARK    6  A    between atoms: C_10  and  C_11
REMARK                            x       y       z     vdW  Elec       q    Type
REMARK                         _______ _______ _______ _____ _____    ______ ____
ROOT
ATOM      1  C   UNL     1      46.439   2.152   7.797  0.00  0.00    +0.000 A 
ATOM      2  C   UNL     1      46.567   3.502   7.455  0.00  0.00    +0.000 A 
ATOM      3  C   UNL     1      45.750   4.428   8.075  0.00  0.00    +0.000 A 
ATOM      4  N   UNL     1      44.822   4.107   8.996  0.00  0.00    +0.000 NA
ATOM      5  C   UNL     1      44.708   2.802   9.325  0.00  0.00    +0.000 A 
ATOM      6  C   UNL     1      45.482   1.797   8.757  0.00  0.00    +0.000 A 
ENDROOT
BRANCH   1   7
ATOM      7  C   UNL     1      47.318   1.127   7.136  0.00  0.00    +0.000 C 
BRANCH   7   8
ATOM      8  N   UNL     1      48.323   1.759   6.288  0.00  0.00    +0.000 NA
ATOM      9  H   UNL     1      48.243   2.772   6.365  0.00  0.00    +0.000 HD
ATOM     10  H   UNL     1      48.125   1.529   5.314  0.00  0.00    +0.000 HD
ENDBRANCH   7   8
ENDBRANCH   1   7
BRANCH   5  11
ATOM     11  O   UNL     1      43.772   2.428  10.279  0.00  0.00    +0.000 OA
BRANCH  11  12
ATOM     12  C   UNL     1      43.364   3.546  11.085  0.00  0.00    +0.000 C 
BRANCH  12  13
ATOM     13  C   UNL     1      43.764   3.325  12.542  0.00  0.00    +0.000 C 
BRANCH  13  14
ATOM     14  C   UNL     1      44.893   4.250  12.927  0.00  0.00    +0.000 A 
ATOM     15  C   UNL     1      44.791   5.622  12.727  0.00  0.00    +0.000 A 
ATOM     16  C   UNL     1      45.882   6.419  13.057  0.00  0.00    +0.000 A 
ATOM     17 CL   UNL     1      45.800   8.122  12.824  0.00  0.00    +0.000 Cl
ATOM     18  C   UNL     1      47.042   5.852  13.569  0.00  0.00    +0.000 A 
ATOM     19  C   UNL     1      47.058   4.482  13.729  0.00  0.00    +0.000 A 
ATOM     20  N   UNL     1      46.016   3.676  13.422  0.00  0.00    +0.000 NA
ENDBRANCH  13  14
ENDBRANCH  12  13
ENDBRANCH  11  12
ENDBRANCH   5  11
TORSDOF 6
ENDMDL
MODEL 2
REMARK VINA RESULT:    -6.904      1.525      1.935
REMARK INTER + INTRA:          -9.637
REMARK INTER:                  -9.158
REMARK INTRA:                  -0.479
REMARK UNBOUND:                -0.513
REMARK  Name = 
REMARK  6 active torsions:
REMARK  status: ('A' for Active; 'I' for Inactive)
REMARK    1  A    between atoms: N_1  and  C_2
REMARK    2  A    between atoms: C_2  and  C_3
REMARK    3  A    between atoms: C_7  and  O_8
REMARK    4  A    between atoms: O_8  and  C_9
REMARK    5  A    between atoms: C_9  and  C_10
REMARK    6  A    between atoms: C_10  and  C_11
REMARK                            x       y       z     vdW  Elec       q    Type
REMARK                         _______ _______ _______ _____ _____    ______ ____
ROOT
ATOM      1  C   UNL     1      46.671   2.619   6.858  0.00  0.00    +0.000 A 
ATOM      2  C   UNL     1      46.620   1.370   7.484  0.00  0.00    +0.000 A 
ATOM      3  C   UNL     1      45.796   1.207   8.581  0.00  0.00    +0.000 A 
ATOM      4  N   UNL     1      45.032   2.190   9.095  0.00  0.00    +0.000 NA
ATOM      5  C   UNL     1      45.083   3.392   8.481  0.00  0.00    +0.000 A 
ATOM      6  C   UNL     1      45.880   3.655   7.374  0.00  0.00    +0.000 A 
ENDROOT
BRANCH   1   7
ATOM      7  C   UNL     1      47.559   2.820   5.661  0.00  0.00    +0.000 C 
BRANCH   7   8
ATOM      8  N   UNL     1      48.586   1.786   5.585  0.00  0.00    +0.000 NA
ATOM      9  H   UNL     1      48.163   0.911   5.278  0.00  0.00    +0.000 HD
ATOM     10  H   UNL     1      48.952   1.614   6.521  0.00  0.00    +0.000 HD
ENDBRANCH   7   8
ENDBRANCH   1   7
BRANCH   5  11
ATOM     11  O   UNL     1      44.303   4.431   8.970  0.00  0.00    +0.000 OA
BRANCH  11  12
ATOM     12  C   UNL     1      43.788   4.132  10.278  0.00  0.00    +0.000 C 
BRANCH  12  13
ATOM     13  C   UNL     1      43.727   5.399  11.128  0.00  0.00    +0.000 C 
BRANCH  13  14
ATOM     14  C   UNL     1      45.017   5.590  11.888  0.00  0.00    +0.000 A 
ATOM     15  C   UNL     1      46.008   6.440  11.410  0.00  0.00    +0.000 A 
ATOM     16  C   UNL     1      47.194   6.538  12.129  0.00  0.00    +0.000 A 
ATOM     17 CL   UNL     1      48.449   7.577  11.572  0.00  0.00    +0.000 Cl
ATOM     18  C   UNL     1      47.380   5.801  13.290  0.00  0.00    +0.000 A 
ATOM     19  C   UNL     1      46.347   4.978  13.689  0.00  0.00    +0.000 A 
ATOM     20  N   UNL     1      45.179   4.859  13.017  0.00  0.00    +0.000 NA
ENDBRANCH  13  14
ENDBRANCH  12  13
ENDBRANCH  11  12
ENDBRANCH   5  11
TORSDOF 6
ENDMDL
MODEL 3
REMARK VINA RESULT:    -6.775      1.854      2.288
REMARK INTER + INTRA:          -9.466
REMARK INTER:                  -9.027
REMARK INTRA:                  -0.440
REMARK UNBOUND:                -0.513
REMARK  Name = 
REMARK  6 active torsions:
REMARK  status: ('A' for Active; 'I' for Inactive)
REMARK    1  A    between atoms: N_1  and  C_2
REMARK    2  A    between atoms: C_2  and  C_3
REMARK    3  A    between atoms: C_7  and  O_8
REMARK    4  A    between atoms: O_8  and  C_9
REMARK    5  A    between atoms: C_9  and  C_10
REMARK    6  A    between atoms: C_10  and  C_11
REMARK                            x       y       z     vdW  Elec       q    Type
REMARK                         _______ _______ _______ _____ _____    ______ ____
ROOT
ATOM      1  C   UNL     1      46.689   2.627   6.791  0.00  0.00    +0.000 A 
ATOM      2  C   UNL     1      46.657   1.378   7.419  0.00  0.00    +0.000 A 
ATOM      3  C   UNL     1      45.869   1.215   8.542  0.00  0.00    +0.000 A 
ATOM      4  N   UNL     1      45.124   2.199   9.080  0.00  0.00    +0.000 NA
ATOM      5  C   UNL     1      45.156   3.402   8.466  0.00  0.00    +0.000 A 
ATOM      6  C   UNL     1      45.918   3.664   7.333  0.00  0.00    +0.000 A 
ENDROOT
BRANCH   1   7
ATOM      7  C   UNL     1      47.539   2.827   5.566  0.00  0.00    +0.000 C 
BRANCH   7   8
ATOM      8  N   UNL     1      48.541   1.774   5.439  0.00  0.00    +0.000 NA
ATOM      9  H   UNL     1      48.760   1.402   6.362  0.00  0.00    +0.000 HD
ATOM     10  H   UNL     1      49.404   2.181   5.082  0.00  0.00    +0.000 HD
ENDBRANCH   7   8
ENDBRANCH   1   7
BRANCH   5  11
ATOM     11  O   UNL     1      44.395   4.441   8.980  0.00  0.00    +0.000 OA
BRANCH  11  12
ATOM     12  C   UNL     1      43.795   4.084  10.236  0.00  0.00    +0.000 C 
BRANCH  12  13
ATOM     13  C   UNL     1      43.716   5.301  11.154  0.00  0.00    +0.000 C 
BRANCH  13  14
ATOM     14  C   UNL     1      45.041   5.535  11.839  0.00  0.00    +0.000 A 
ATOM     15  C   UNL     1      45.356   4.882  13.025  0.00  0.00    +0.000 A 
ATOM     16  C   UNL     1      46.571   5.174  13.635  0.00  0.00    +0.000 A 
ATOM     17 CL   UNL     1      47.000   4.390  15.107  0.00  0.00    +0.000 Cl
ATOM     18  C   UNL     1      47.441   6.096  13.071  0.00  0.00    +0.000 A 
ATOM     19  C   UNL     1      47.046   6.701  11.895  0.00  0.00    +0.000 A 
ATOM     20  N   UNL     1      45.874   6.441  11.273  0.00  0.00    +0.000 NA
ENDBRANCH  13  14
ENDBRANCH  12  13
ENDBRANCH  11  12
ENDBRANCH   5  11
TORSDOF 6
ENDMDL
MODEL 4
REMARK VINA RESULT:    -6.773      2.757      6.142
REMARK INTER + INTRA:          -9.464
REMARK INTER:                  -9.074
REMARK INTRA:                  -0.390
REMARK UNBOUND:                -0.513
REMARK  Name = 
REMARK  6 active torsions:
REMARK  status: ('A' for Active; 'I' for Inactive)
REMARK    1  A    between atoms: N_1  and  C_2
REMARK    2  A    between atoms: C_2  and  C_3
REMARK    3  A    between atoms: C_7  and  O_8
REMARK    4  A    between atoms: O_8  and  C_9
REMARK    5  A    between atoms: C_9  and  C_10
REMARK    6  A    between atoms: C_10  and  C_11
REMARK                            x       y       z     vdW  Elec       q    Type
REMARK                         _______ _______ _______ _____ _____    ______ ____
ROOT
ATOM      1  C   UNL     1      46.088   5.343  13.245  0.00  0.00    +0.000 A 
ATOM      2  C   UNL     1      46.020   6.729  13.076  0.00  0.00    +0.000 A 
ATOM      3  C   UNL     1      45.086   7.250  12.201  0.00  0.00    +0.000 A 
ATOM      4  N   UNL     1      44.229   6.495  11.487  0.00  0.00    +0.000 NA
ATOM      5  C   UNL     1      44.298   5.157  11.659  0.00  0.00    +0.000 A 
ATOM      6  C   UNL     1      45.202   4.539  12.514  0.00  0.00    +0.000 A 
ENDROOT
BRANCH   1   7
ATOM      7  C   UNL     1      47.095   4.754  14.193  0.00  0.00    +0.000 C 
BRANCH   7   8
ATOM      8  N   UNL     1      47.173   3.303  14.050  0.00  0.00    +0.000 NA
ATOM      9  H   UNL     1      46.785   2.860  14.881  0.00  0.00    +0.000 HD
ATOM     10  H   UNL     1      48.154   3.028  14.009  0.00  0.00    +0.000 HD
ENDBRANCH   7   8
ENDBRANCH   1   7
BRANCH   5  11
ATOM     11  O   UNL     1      43.426   4.342  10.951  0.00  0.00    +0.000 OA
BRANCH  11  12
ATOM     12  C   UNL     1      44.129   3.490  10.032  0.00  0.00    +0.000 C 
BRANCH  12  13
ATOM     13  C   UNL     1      44.827   4.324   8.960  0.00  0.00    +0.000 C 
BRANCH  13  14
ATOM     14  C   UNL     1      45.665   3.443   8.067  0.00  0.00    +0.000 A 
ATOM     15  C   UNL     1      45.770   2.077   8.306  0.00  0.00    +0.000 A 
ATOM     16  C   UNL     1      46.596   1.325   7.477  0.00  0.00    +0.000 A 
ATOM     17 CL   UNL     1      46.756  -0.369   7.739  0.00  0.00    +0.000 Cl
ATOM     18  C   UNL     1      47.297   1.928   6.442  0.00  0.00    +0.000 A 
ATOM     19  C   UNL     1      47.140   3.289   6.281  0.00  0.00    +0.000 A 
ATOM     20  N   UNL     1      46.344   4.053   7.065  0.00  0.00    +0.000 NA
ENDBRANCH  13  14
ENDBRANCH  12  13
ENDBRANCH  11  12
ENDBRANCH   5  11
TORSDOF 6
ENDMDL
MODEL 5
REMARK VINA RESULT:    -6.361      2.906      6.532
REMARK INTER + INTRA:          -8.920
REMARK INTER:                  -8.655
REMARK INTRA:                  -0.265
REMARK UNBOUND:                -0.513
REMARK  Name = 
REMARK  6 active torsions:
REMARK  status: ('A' for Active; 'I' for Inactive)
REMARK    1  A    between atoms: N_1  and  C_2
REMARK    2  A    between atoms: C_2  and  C_3
REMARK    3  A    between atoms: C_7  and  O_8
REMARK    4  A    between atoms: O_8  and  C_9
REMARK    5  A    between atoms: C_9  and  C_10
REMARK    6  A    between atoms: C_10  and  C_11
REMARK                            x       y       z     vdW  Elec       q    Type
REMARK                         _______ _______ _______ _____ _____    ______ ____
ROOT
ATOM      1  C   UNL     1      46.373   6.612  12.753  0.00  0.00    +0.000 A 
ATOM      2  C   UNL     1      46.928   5.654  13.607  0.00  0.00    +0.000 A 
ATOM      3  C   UNL     1      46.415   4.372  13.595  0.00  0.00    +0.000 A 
ATOM      4  N   UNL     1      45.395   3.983  12.805  0.00  0.00    +0.000 NA
ATOM      5  C   UNL     1      44.867   4.913  11.980  0.00  0.00    +0.000 A 
ATOM      6  C   UNL     1      45.314   6.228  11.920  0.00  0.00    +0.000 A 
ENDROOT
BRANCH   1   7
ATOM      7  C   UNL     1      46.917   8.014  12.748  0.00  0.00    +0.000 C 
BRANCH   7   8
ATOM      8  N   UNL     1      46.763   8.647  14.054  0.00  0.00    +0.000 NA
ATOM      9  H   UNL     1      47.517   9.317  14.197  0.00  0.00    +0.000 HD
ATOM     10  H   UNL     1      46.868   7.937  14.779  0.00  0.00    +0.000 HD
ENDBRANCH   7   8
ENDBRANCH   1   7
BRANCH   5  11
ATOM     11  O   UNL     1      43.823   4.553  11.141  0.00  0.00    +0.000 OA
BRANCH  11  12
ATOM     12  C   UNL     1      44.271   3.693  10.080  0.00  0.00    +0.000 C 
BRANCH  12  13
ATOM     13  C   UNL     1      45.203   4.452   9.138  0.00  0.00    +0.000 C 
BRANCH  13  14
ATOM     14  C   UNL     1      45.822   3.511   8.134  0.00  0.00    +0.000 A 
ATOM     15  C   UNL     1      45.905   2.147   8.391  0.00  0.00    +0.000 A 
ATOM     16  C   UNL     1      46.529   1.336   7.449  0.00  0.00    +0.000 A 
ATOM     17 CL   UNL     1      46.656  -0.358   7.728  0.00  0.00    +0.000 Cl
ATOM     18  C   UNL     1      47.056   1.880   6.286  0.00  0.00    +0.000 A 
ATOM     19  C   UNL     1      46.934   3.243   6.114  0.00  0.00    +0.000 A 
ATOM     20  N   UNL     1      46.332   4.063   7.006  0.00  0.00    +0.000 NA
ENDBRANCH  13  14
ENDBRANCH  12  13
ENDBRANCH  11  12
ENDBRANCH   5  11
TORSDOF 6
ENDMDL
MODEL 6
REMARK VINA RESULT:    -6.347      2.781      6.159
REMARK INTER + INTRA:          -8.902
REMARK INTER:                  -8.445
REMARK INTRA:                  -0.457
REMARK UNBOUND:                -0.513
REMARK  Name = 
REMARK  6 active torsions:
REMARK  status: ('A' for Active; 'I' for Inactive)
REMARK    1  A    between atoms: N_1  and  C_2
REMARK    2  A    between atoms: C_2  and  C_3
REMARK    3  A    between atoms: C_7  and  O_8
REMARK    4  A    between atoms: O_8  and  C_9
REMARK    5  A    between atoms: C_9  and  C_10
REMARK    6  A    between atoms: C_10  and  C_11
REMARK                            x       y       z     vdW  Elec       q    Type
REMARK                         _______ _______ _______ _____ _____    ______ ____
ROOT
ATOM      1  C   UNL     1      46.096   4.906  13.261  0.00  0.00    +0.000 A 
ATOM      2  C   UNL     1      46.030   6.303  13.248  0.00  0.00    +0.000 A 
ATOM      3  C   UNL     1      45.072   6.918  12.465  0.00  0.00    +0.000 A 
ATOM      4  N   UNL     1      44.191   6.248  11.699  0.00  0.00    +0.000 NA
ATOM      5  C   UNL     1      44.258   4.899  11.720  0.00  0.00    +0.000 A 
ATOM      6  C   UNL     1      45.185   4.189  12.474  0.00  0.00    +0.000 A 
ENDROOT
BRANCH   1   7
ATOM      7  C   UNL     1      47.129   4.215  14.108  0.00  0.00    +0.000 C 
BRANCH   7   8
ATOM      8  N   UNL     1      46.770   4.257  15.522  0.00  0.00    +0.000 NA
ATOM      9  H   UNL     1      47.389   4.903  16.009  0.00  0.00    +0.000 HD
ATOM     10  H   UNL     1      46.934   3.338  15.932  0.00  0.00    +0.000 HD
ENDBRANCH   7   8
ENDBRANCH   1   7
BRANCH   5  11
ATOM     11  O   UNL     1      43.362   4.168  10.954  0.00  0.00    +0.000 OA
BRANCH  11  12
ATOM     12  C   UNL     1      44.031   3.164  10.174  0.00  0.00    +0.000 C 
BRANCH  12  13
ATOM     13  C   UNL     1      44.530   3.757   8.858  0.00  0.00    +0.000 C 
BRANCH  13  14
ATOM     14  C   UNL     1      45.488   2.809   8.179  0.00  0.00    +0.000 A 
ATOM     15  C   UNL     1      46.186   3.194   7.040  0.00  0.00    +0.000 A 
ATOM     16  C   UNL     1      47.018   2.260   6.431  0.00  0.00    +0.000 A 
ATOM     17 CL   UNL     1      47.900   2.694   5.018  0.00  0.00    +0.000 Cl
ATOM     18  C   UNL     1      47.141   0.978   6.949  0.00  0.00    +0.000 A 
ATOM     19  C   UNL     1      46.407   0.680   8.079  0.00  0.00    +0.000 A 
ATOM     20  N   UNL     1      45.590   1.562   8.699  0.00  0.00    +0.000 NA
ENDBRANCH  13  14
ENDBRANCH  12  13
ENDBRANCH  11  12
ENDBRANCH   5  11
TORSDOF 6
ENDMDL
MODEL 7
REMARK VINA RESULT:    -6.190      2.825      6.194
REMARK INTER + INTRA:          -8.693
REMARK INTER:                  -8.137
REMARK INTRA:                  -0.556
REMARK UNBOUND:                -0.513
REMARK  Name = 
REMARK  6 active torsions:
REMARK  status: ('A' for Active; 'I' for Inactive)
REMARK    1  A    between atoms: N_1  and  C_2
REMARK    2  A    between atoms: C_2  and  C_3
REMARK    3  A    between atoms: C_7  and  O_8
REMARK    4  A    between atoms: O_8  and  C_9
REMARK    5  A    between atoms: C_9  and  C_10
REMARK    6  A    between atoms: C_10  and  C_11
REMARK                            x       y       z     vdW  Elec       q    Type
REMARK                         _______ _______ _______ _____ _____    ______ ____
ROOT
ATOM      1  C   UNL     1      46.061   7.441  12.860  0.00  0.00    +0.000 A 
ATOM      2  C   UNL     1      47.333   7.399  13.440  0.00  0.00    +0.000 A 
ATOM      3  C   UNL     1      47.923   6.170  13.666  0.00  0.00    +0.000 A 
ATOM      4  N   UNL     1      47.339   4.995  13.364  0.00  0.00    +0.000 NA
ATOM      5  C   UNL     1      46.113   5.044  12.799  0.00  0.00    +0.000 A 
ATOM      6  C   UNL     1      45.438   6.229  12.534  0.00  0.00    +0.000 A 
ENDROOT
BRANCH   1   7
ATOM      7  C   UNL     1      45.401   8.767  12.602  0.00  0.00    +0.000 C 
BRANCH   7   8
ATOM      8  N   UNL     1      44.283   8.631  11.674  0.00  0.00    +0.000 NA
ATOM      9  H   UNL     1      44.486   7.888  11.007  0.00  0.00    +0.000 HD
ATOM     10  H   UNL     1      44.200   9.489  11.130  0.00  0.00    +0.000 HD
ENDBRANCH   7   8
ENDBRANCH   1   7
BRANCH   5  11
ATOM     11  O   UNL     1      45.480   3.856  12.461  0.00  0.00    +0.000 OA
BRANCH  11  12
ATOM     12  C   UNL     1      44.206   4.096  11.842  0.00  0.00    +0.000 C 
BRANCH  12  13
ATOM     13  C   UNL     1      43.871   2.975  10.861  0.00  0.00    +0.000 C 
BRANCH  13  14
ATOM     14  C   UNL     1      44.757   3.056   9.642  0.00  0.00    +0.000 A 
ATOM     15  C   UNL     1      45.347   1.915   9.111  0.00  0.00    +0.000 A 
ATOM     16  C   UNL     1      46.192   2.058   8.016  0.00  0.00    +0.000 A 
ATOM     17 CL   UNL     1      46.946   0.672   7.329  0.00  0.00    +0.000 Cl
ATOM     18  C   UNL     1      46.438   3.312   7.473  0.00  0.00    +0.000 A 
ATOM     19  C   UNL     1      45.815   4.391   8.066  0.00  0.00    +0.000 A 
ATOM     20  N   UNL     1      44.986   4.290   9.129  0.00  0.00    +0.000 NA
ENDBRANCH  13  14
ENDBRANCH  12  13
ENDBRANCH  11  12
ENDBRANCH   5  11
TORSDOF 6
ENDMDL
MODEL 8
REMARK VINA RESULT:    -6.016      3.010      6.733
REMARK INTER + INTRA:          -8.464
REMARK INTER:                  -8.115
REMARK INTRA:                  -0.350
REMARK UNBOUND:                -0.513
REMARK  Name = 
REMARK  6 active torsions:
REMARK  status: ('A' for Active; 'I' for Inactive)
REMARK    1  A    between atoms: N_1  and  C_2
REMARK    2  A    between atoms: C_2  and  C_3
REMARK    3  A    between atoms: C_7  and  O_8
REMARK    4  A    between atoms: O_8  and  C_9
REMARK    5  A    between atoms: C_9  and  C_10
REMARK    6  A    between atoms: C_10  and  C_11
REMARK                            x       y       z     vdW  Elec       q    Type
REMARK                         _______ _______ _______ _____ _____    ______ ____
ROOT
ATOM      1  C   UNL     1      47.794   4.734  16.253  0.00  0.00    +0.000 A 
ATOM      2  C   UNL     1      48.580   5.889  16.211  0.00  0.00    +0.000 A 
ATOM      3  C   UNL     1      48.602   6.640  15.051  0.00  0.00    +0.000 A 
ATOM      4  N   UNL     1      47.908   6.320  13.942  0.00  0.00    +0.000 NA
ATOM      5  C   UNL     1      47.148   5.205  13.992  0.00  0.00    +0.000 A 
ATOM      6  C   UNL     1      47.061   4.385  15.111  0.00  0.00    +0.000 A 
ENDROOT
BRANCH   1   7
ATOM      7  C   UNL     1      47.754   3.902  17.506  0.00  0.00    +0.000 C 
BRANCH   7   8
ATOM      8  N   UNL     1      46.560   3.064  17.547  0.00  0.00    +0.000 NA
ATOM      9  H   UNL     1      45.751   3.638  17.783  0.00  0.00    +0.000 HD
ATOM     10  H   UNL     1      46.659   2.385  18.301  0.00  0.00    +0.000 HD
ENDBRANCH   7   8
ENDBRANCH   1   7
BRANCH   5  11
ATOM     11  O   UNL     1      46.408   4.845  12.875  0.00  0.00    +0.000 OA
BRANCH  11  12
ATOM     12  C   UNL     1      45.194   5.609  12.778  0.00  0.00    +0.000 C 
BRANCH  12  13
ATOM     13  C   UNL     1      44.951   6.039  11.333  0.00  0.00    +0.000 C 
BRANCH  13  14
ATOM     14  C   UNL     1      44.947   4.841  10.416  0.00  0.00    +0.000 A 
ATOM     15  C   UNL     1      45.640   4.862   9.211  0.00  0.00    +0.000 A 
ATOM     16  C   UNL     1      45.561   3.745   8.386  0.00  0.00    +0.000 A 
ATOM     17 CL   UNL     1      46.401   3.729   6.884  0.00  0.00    +0.000 Cl
ATOM     18  C   UNL     1      44.805   2.642   8.760  0.00  0.00    +0.000 A 
ATOM     19  C   UNL     1      44.145   2.709   9.970  0.00  0.00    +0.000 A 
ATOM     20  N   UNL     1      44.201   3.776  10.799  0.00  0.00    +0.000 NA
ENDBRANCH  13  14
ENDBRANCH  12  13
ENDBRANCH  11  12
ENDBRANCH   5  11
TORSDOF 6
ENDMDL
MODEL 9
REMARK VINA RESULT:    -5.940      2.195      2.823
REMARK INTER + INTRA:          -8.363
REMARK INTER:                  -7.714
REMARK INTRA:                  -0.649
REMARK UNBOUND:                -0.513
REMARK  Name = 
REMARK  6 active torsions:
REMARK  status: ('A' for Active; 'I' for Inactive)
REMARK    1  A    between atoms: N_1  and  C_2
REMARK    2  A    between atoms: C_2  and  C_3
REMARK    3  A    between atoms: C_7  and  O_8
REMARK    4  A    between atoms: O_8  and  C_9
REMARK    5  A    between atoms: C_9  and  C_10
REMARK    6  A    between atoms: C_10  and  C_11
REMARK                            x       y       z     vdW  Elec       q    Type
REMARK                         _______ _______ _______ _____ _____    ______ ____
ROOT
ATOM      1  C   UNL     1      45.240   3.246   8.299  0.00  0.00    +0.000 A 
ATOM      2  C   UNL     1      45.153   2.090   9.081  0.00  0.00    +0.000 A 
ATOM      3  C   UNL     1      44.371   2.111  10.219  0.00  0.00    +0.000 A 
ATOM      4  N   UNL     1      43.683   3.193  10.632  0.00  0.00    +0.000 NA
ATOM      5  C   UNL     1      43.768   4.304   9.870  0.00  0.00    +0.000 A 
ATOM      6  C   UNL     1      44.528   4.381   8.709  0.00  0.00    +0.000 A 
ENDROOT
BRANCH   1   7
ATOM      7  C   UNL     1      46.084   3.245   7.054  0.00  0.00    +0.000 C 
BRANCH   7   8
ATOM      8  N   UNL     1      47.069   4.321   7.082  0.00  0.00    +0.000 NA
ATOM      9  H   UNL     1      47.188   4.647   8.040  0.00  0.00    +0.000 HD
ATOM     10  H   UNL     1      46.707   5.114   6.552  0.00  0.00    +0.000 HD
ENDBRANCH   7   8
ENDBRANCH   1   7
BRANCH   5  11
ATOM     11  O   UNL     1      43.066   5.438  10.252  0.00  0.00    +0.000 OA
BRANCH  11  12
ATOM     12  C   UNL     1      43.354   5.804  11.612  0.00  0.00    +0.000 C 
BRANCH  12  13
ATOM     13  C   UNL     1      44.305   6.998  11.652  0.00  0.00    +0.000 C 
BRANCH  13  14
ATOM     14  C   UNL     1      45.623   6.605  12.273  0.00  0.00    +0.000 A 
ATOM     15  C   UNL     1      45.770   5.385  12.922  0.00  0.00    +0.000 A 
ATOM     16  C   UNL     1      46.994   5.099  13.517  0.00  0.00    +0.000 A 
ATOM     17 CL   UNL     1      47.220   3.600  14.333  0.00  0.00    +0.000 Cl
ATOM     18  C   UNL     1      48.037   6.014  13.464  0.00  0.00    +0.000 A 
ATOM     19  C   UNL     1      47.802   7.203  12.805  0.00  0.00    +0.000 A 
ATOM     20  N   UNL     1      46.626   7.514  12.213  0.00  0.00    +0.000 NA
ENDBRANCH  13  14
ENDBRANCH  12  13
ENDBRANCH  11  12
ENDBRANCH   5  11
TORSDOF 6
ENDMDL
