MODEL 1
REMARK VINA RESULT:    -8.118      0.000      0.000
REMARK INTER + INTRA:         -10.062
REMARK INTER:                 -10.017
REMARK INTRA:                  -0.046
REMARK UNBOUND:                -0.046
REMARK  Name = 
REMARK  4 active torsions:
REMARK  status: ('A' for Active; 'I' for Inactive)
REMARK    1  A    between atoms: C_2  and  C_4
REMARK    2  A    between atoms: C_7  and  O_8
REMARK    3  A    between atoms: O_8  and  C_9
REMARK    4  A    between atoms: C_9  and  C_10
REMARK                            x       y       z     vdW  Elec       q    Type
REMARK                         _______ _______ _______ _____ _____    ______ ____
ROOT
ATOM      1  C   UNL     1      46.372   2.378   7.794  0.00  0.00    +0.000 A 
ATOM      2  C   UNL     1      46.140   3.745   7.649  0.00  0.00    +0.000 A 
ATOM      3  C   UNL     1      45.198   4.364   8.474  0.00  0.00    +0.000 A 
ATOM      4  C   UNL     1      44.520   3.603   9.416  0.00  0.00    +0.000 A 
ATOM      5  C   UNL     1      44.836   2.246   9.501  0.00  0.00    +0.000 A 
ATOM      6  N   UNL     1      45.738   1.604   8.717  0.00  0.00    +0.000 NA
ENDROOT
BRANCH   1   8
ATOM      7  N   UNL     1      48.434   2.418   6.504  0.00  0.00    +0.000 N 
ATOM      8  C   UNL     1      47.344   1.685   6.891  0.00  0.00    +0.000 C 
ATOM      9  O   UNL     1      47.194   0.526   6.531  0.00  0.00    +0.000 OA
ATOM     10  H   UNL     1      49.133   1.992   5.917  0.00  0.00    +0.000 HD
ATOM     11  H   UNL     1      48.548   3.366   6.845  0.00  0.00    +0.000 HD
ENDBRANCH   1   8
BRANCH   4  12
ATOM     12  O   UNL     1      43.554   4.034  10.277  0.00  0.00    +0.000 OA
BRANCH  12  13
ATOM     13  C   UNL     1      43.806   5.087  11.239  0.00  0.00    +0.000 C 
ATOM     14  C   UNL     1      42.682   5.112  12.267  0.00  0.00    +0.000 C 
ATOM     15  C   UNL     1      42.862   6.269  11.336  0.00  0.00    +0.000 C 
BRANCH  13  16
ATOM     16  C   UNL     1      45.264   5.159  11.705  0.00  0.00    +0.000 C 
ATOM     17  C   UNL     1      45.396   4.611  13.140  0.00  0.00    +0.000 C 
ATOM     18  C   UNL     1      46.836   4.650  13.644  0.00  0.00    +0.000 C 
ATOM     19  C   UNL     1      47.422   6.054  13.554  0.00  0.00    +0.000 C 
ATOM     20  C   UNL     1      47.337   6.591  12.132  0.00  0.00    +0.000 C 
ATOM     21  C   UNL     1      45.904   6.557  11.602  0.00  0.00    +0.000 C 
ENDBRANCH  13  16
ENDBRANCH  12  13
ENDBRANCH   4  12
TORSDOF 4
ENDMDL
MODEL 2
REMARK VINA RESULT:    -7.125      3.202      5.855
REMARK INTER + INTRA:          -8.837
REMARK INTER:                  -8.538
REMARK INTRA:                  -0.299
REMARK UNBOUND:                -0.046
REMARK  Name = 
REMARK  4 active torsions:
REMARK  status: ('A' for Active; 'I' for Inactive)
REMARK    1  A    between atoms: C_2  and  C_4
REMARK    2  A    between atoms: C_7  and  O_8
REMARK    3  A    between atoms: O_8  and  C_9
REMARK    4  A    between atoms: C_9  and  C_10
REMARK                            x       y       z     vdW  Elec       q    Type
REMARK                         _______ _______ _______ _____ _____    ______ ____
ROOT
ATOM      1  C   UNL     1      47.204   3.846  14.830  0.00  0.00    +0.000 A 
ATOM      2  C   UNL     1      47.170   5.239  14.789  0.00  0.00    +0.000 A 
ATOM      3  C   UNL     1      46.599   5.872  13.683  0.00  0.00    +0.000 A 
ATOM      4  C   UNL     1      46.078   5.098  12.655  0.00  0.00    +0.000 A 
ATOM      5  C   UNL     1      46.140   3.710  12.795  0.00  0.00    +0.000 A 
ATOM      6  N   UNL     1      46.691   3.056  13.848  0.00  0.00    +0.000 NA
ENDROOT
BRANCH   1   8
ATOM      7  N   UNL     1      47.214   3.260  17.191  0.00  0.00    +0.000 N 
ATOM      8  C   UNL     1      47.851   3.148  15.984  0.00  0.00    +0.000 C 
ATOM      9  O   UNL     1      48.879   2.495  15.864  0.00  0.00    +0.000 OA
ATOM     10  H   UNL     1      47.592   2.789  17.996  0.00  0.00    +0.000 HD
ATOM     11  H   UNL     1      46.346   3.781  17.253  0.00  0.00    +0.000 HD
ENDBRANCH   1   8
BRANCH   4  12
ATOM     12  O   UNL     1      45.515   5.545  11.496  0.00  0.00    +0.000 OA
BRANCH  12  13
ATOM     13  C   UNL     1      44.303   4.959  10.964  0.00  0.00    +0.000 C 
ATOM     14  C   UNL     1      43.177   5.984  11.022  0.00  0.00    +0.000 C 
ATOM     15  C   UNL     1      43.100   4.751  11.864  0.00  0.00    +0.000 C 
BRANCH  13  16
ATOM     16  C   UNL     1      44.523   4.143   9.687  0.00  0.00    +0.000 C 
ATOM     17  C   UNL     1      44.601   2.640  10.017  0.00  0.00    +0.000 C 
ATOM     18  C   UNL     1      44.806   1.783   8.771  0.00  0.00    +0.000 C 
ATOM     19  C   UNL     1      46.039   2.220   7.988  0.00  0.00    +0.000 C 
ATOM     20  C   UNL     1      45.955   3.695   7.618  0.00  0.00    +0.000 C 
ATOM     21  C   UNL     1      45.744   4.574   8.849  0.00  0.00    +0.000 C 
ENDBRANCH  13  16
ENDBRANCH  12  13
ENDBRANCH   4  12
TORSDOF 4
ENDMDL
MODEL 3
REMARK VINA RESULT:    -7.012      3.582      6.245
REMARK INTER + INTRA:          -8.698
REMARK INTER:                  -8.217
REMARK INTRA:                  -0.481
REMARK UNBOUND:                -0.046
REMARK  Name = 
REMARK  4 active torsions:
REMARK  status: ('A' for Active; 'I' for Inactive)
REMARK    1  A    between atoms: C_2  and  C_4
REMARK    2  A    between atoms: C_7  and  O_8
REMARK    3  A    between atoms: O_8  and  C_9
REMARK    4  A    between atoms: C_9  and  C_10
REMARK                            x       y       z     vdW  Elec       q    Type
REMARK                         _______ _______ _______ _____ _____    ______ ____
ROOT
ATOM      1  C   UNL     1      47.559   5.491  14.792  0.00  0.00    +0.000 A 
ATOM      2  C   UNL     1      46.894   4.337  14.378  0.00  0.00    +0.000 A 
ATOM      3  C   UNL     1      46.139   4.374  13.204  0.00  0.00    +0.000 A 
ATOM      4  C   UNL     1      46.072   5.555  12.479  0.00  0.00    +0.000 A 
ATOM      5  C   UNL     1      46.788   6.652  12.962  0.00  0.00    +0.000 A 
ATOM      6  N   UNL     1      47.528   6.662  14.099  0.00  0.00    +0.000 NA
ENDROOT
BRANCH   1   8
ATOM      7  N   UNL     1      47.604   5.387  17.222  0.00  0.00    +0.000 N 
ATOM      8  C   UNL     1      48.337   5.487  16.069  0.00  0.00    +0.000 C 
ATOM      9  O   UNL     1      49.559   5.549  16.095  0.00  0.00    +0.000 OA
ATOM     10  H   UNL     1      48.079   5.354  18.109  0.00  0.00    +0.000 HD
ATOM     11  H   UNL     1      46.595   5.305  17.168  0.00  0.00    +0.000 HD
ENDBRANCH   1   8
BRANCH   4  12
ATOM     12  O   UNL     1      45.363   5.777  11.336  0.00  0.00    +0.000 OA
BRANCH  12  13
ATOM     13  C   UNL     1      44.229   4.953  10.972  0.00  0.00    +0.000 C 
ATOM     14  C   UNL     1      42.949   5.771  11.096  0.00  0.00    +0.000 C 
ATOM     15  C   UNL     1      43.177   4.608  12.008  0.00  0.00    +0.000 C 
BRANCH  13  16
ATOM     16  C   UNL     1      44.465   4.096   9.725  0.00  0.00    +0.000 C 
ATOM     17  C   UNL     1      44.694   2.624  10.121  0.00  0.00    +0.000 C 
ATOM     18  C   UNL     1      44.922   1.726   8.908  0.00  0.00    +0.000 C 
ATOM     19  C   UNL     1      46.074   2.230   8.047  0.00  0.00    +0.000 C 
ATOM     20  C   UNL     1      45.840   3.671   7.612  0.00  0.00    +0.000 C 
ATOM     21  C   UNL     1      45.604   4.590   8.810  0.00  0.00    +0.000 C 
ENDBRANCH  13  16
ENDBRANCH  12  13
ENDBRANCH   4  12
TORSDOF 4
ENDMDL
MODEL 4
REMARK VINA RESULT:    -6.223      3.379      6.137
REMARK INTER + INTRA:          -7.724
REMARK INTER:                  -7.677
REMARK INTRA:                  -0.047
REMARK UNBOUND:                -0.046
REMARK  Name = 
REMARK  4 active torsions:
REMARK  status: ('A' for Active; 'I' for Inactive)
REMARK    1  A    between atoms: C_2  and  C_4
REMARK    2  A    between atoms: C_7  and  O_8
REMARK    3  A    between atoms: O_8  and  C_9
REMARK    4  A    between atoms: C_9  and  C_10
REMARK                            x       y       z     vdW  Elec       q    Type
REMARK                         _______ _______ _______ _____ _____    ______ ____
ROOT
ATOM      1  C   UNL     1      46.499   7.863  12.412  0.00  0.00    +0.000 A 
ATOM      2  C   UNL     1      45.113   7.982  12.509  0.00  0.00    +0.000 A 
ATOM      3  C   UNL     1      44.304   7.119  11.767  0.00  0.00    +0.000 A 
ATOM      4  C   UNL     1      44.899   6.164  10.955  0.00  0.00    +0.000 A 
ATOM      5  C   UNL     1      46.295   6.107  10.939  0.00  0.00    +0.000 A 
ATOM      6  N   UNL     1      47.117   6.929  11.638  0.00  0.00    +0.000 NA
ENDROOT
BRANCH   1   8
ATOM      7  N   UNL     1      47.173   8.885  14.513  0.00  0.00    +0.000 N 
ATOM      8  C   UNL     1      47.385   8.805  13.163  0.00  0.00    +0.000 C 
ATOM      9  O   UNL     1      48.264   9.457  12.616  0.00  0.00    +0.000 OA
ATOM     10  H   UNL     1      47.758   9.485  15.071  0.00  0.00    +0.000 HD
ATOM     11  H   UNL     1      46.458   8.309  14.944  0.00  0.00    +0.000 HD
ENDBRANCH   1   8
BRANCH   4  12
ATOM     12  O   UNL     1      44.268   5.267  10.146  0.00  0.00    +0.000 OA
BRANCH  12  13
ATOM     13  C   UNL     1      44.540   3.846  10.226  0.00  0.00    +0.000 C 
ATOM     14  C   UNL     1      43.437   3.165  11.026  0.00  0.00    +0.000 C 
ATOM     15  C   UNL     1      44.830   3.203  11.568  0.00  0.00    +0.000 C 
BRANCH  13  16
ATOM     16  C   UNL     1      45.010   3.234   8.903  0.00  0.00    +0.000 C 
ATOM     17  C   UNL     1      45.745   1.904   9.159  0.00  0.00    +0.000 C 
ATOM     18  C   UNL     1      46.222   1.247   7.866  0.00  0.00    +0.000 C 
ATOM     19  C   UNL     1      47.097   2.190   7.049  0.00  0.00    +0.000 C 
ATOM     20  C   UNL     1      46.366   3.493   6.753  0.00  0.00    +0.000 C 
ATOM     21  C   UNL     1      45.874   4.168   8.032  0.00  0.00    +0.000 C 
ENDBRANCH  13  16
ENDBRANCH  12  13
ENDBRANCH   4  12
TORSDOF 4
ENDMDL
MODEL 5
REMARK VINA RESULT:    -6.164      4.288      7.029
REMARK INTER + INTRA:          -7.651
REMARK INTER:                  -7.002
REMARK INTRA:                  -0.649
REMARK UNBOUND:                -0.046
REMARK  Name = 
REMARK  4 active torsions:
REMARK  status: ('A' for Active; 'I' for Inactive)
REMARK    1  A    between atoms: C_2  and  C_4
REMARK    2  A    between atoms: C_7  and  O_8
REMARK    3  A    between atoms: O_8  and  C_9
REMARK    4  A    between atoms: C_9  and  C_10
REMARK                            x       y       z     vdW  Elec       q    Type
REMARK                         _______ _______ _______ _____ _____    ______ ____
ROOT
ATOM      1  C   UNL     1      47.831   4.626  16.628  0.00  0.00    +0.000 A 
ATOM      2  C   UNL     1      48.506   5.797  16.289  0.00  0.00    +0.000 A 
ATOM      3  C   UNL     1      48.340   6.330  15.009  0.00  0.00    +0.000 A 
ATOM      4  C   UNL     1      47.505   5.682  14.110  0.00  0.00    +0.000 A 
ATOM      5  C   UNL     1      46.855   4.526  14.547  0.00  0.00    +0.000 A 
ATOM      6  N   UNL     1      46.993   3.972  15.777  0.00  0.00    +0.000 NA
ENDROOT
BRANCH   1   8
ATOM      7  N   UNL     1      47.683   4.791  19.050  0.00  0.00    +0.000 N 
ATOM      8  C   UNL     1      48.029   4.013  17.978  0.00  0.00    +0.000 C 
ATOM      9  O   UNL     1      48.455   2.875  18.127  0.00  0.00    +0.000 OA
ATOM     10  H   UNL     1      47.773   4.419  19.982  0.00  0.00    +0.000 HD
ATOM     11  H   UNL     1      47.303   5.718  18.895  0.00  0.00    +0.000 HD
ENDBRANCH   1   8
BRANCH   4  12
ATOM     12  O   UNL     1      47.252   6.043  12.819  0.00  0.00    +0.000 OA
BRANCH  12  13
ATOM     13  C   UNL     1      46.168   6.940  12.478  0.00  0.00    +0.000 C 
ATOM     14  C   UNL     1      46.739   8.217  11.873  0.00  0.00    +0.000 C 
ATOM     15  C   UNL     1      46.032   8.272  13.190  0.00  0.00    +0.000 C 
BRANCH  13  16
ATOM     16  C   UNL     1      44.981   6.244  11.805  0.00  0.00    +0.000 C 
ATOM     17  C   UNL     1      43.936   5.827  12.858  0.00  0.00    +0.000 C 
ATOM     18  C   UNL     1      42.725   5.140  12.232  0.00  0.00    +0.000 C 
ATOM     19  C   UNL     1      43.137   3.940  11.388  0.00  0.00    +0.000 C 
ATOM     20  C   UNL     1      44.139   4.347  10.315  0.00  0.00    +0.000 C 
ATOM     21  C   UNL     1      45.359   5.042  10.916  0.00  0.00    +0.000 C 
ENDBRANCH  13  16
ENDBRANCH  12  13
ENDBRANCH   4  12
TORSDOF 4
ENDMDL
MODEL 6
REMARK VINA RESULT:    -6.094      4.303      6.440
REMARK INTER + INTRA:          -7.565
REMARK INTER:                  -6.697
REMARK INTRA:                  -0.868
REMARK UNBOUND:                -0.046
REMARK  Name = 
REMARK  4 active torsions:
REMARK  status: ('A' for Active; 'I' for Inactive)
REMARK    1  A    between atoms: C_2  and  C_4
REMARK    2  A    between atoms: C_7  and  O_8
REMARK    3  A    between atoms: O_8  and  C_9
REMARK    4  A    between atoms: C_9  and  C_10
REMARK                            x       y       z     vdW  Elec       q    Type
REMARK                         _______ _______ _______ _____ _____    ______ ____
ROOT
ATOM      1  C   UNL     1      45.087   4.959  13.092  0.00  0.00    +0.000 A 
ATOM      2  C   UNL     1      45.456   6.050  12.307  0.00  0.00    +0.000 A 
ATOM      3  C   UNL     1      46.759   6.544  12.402  0.00  0.00    +0.000 A 
ATOM      4  C   UNL     1      47.652   5.934  13.272  0.00  0.00    +0.000 A 
ATOM      5  C   UNL     1      47.196   4.834  14.001  0.00  0.00    +0.000 A 
ATOM      6  N   UNL     1      45.940   4.327  13.944  0.00  0.00    +0.000 NA
ENDROOT
BRANCH   1   8
ATOM      7  N   UNL     1      42.693   5.386  13.045  0.00  0.00    +0.000 N 
ATOM      8  C   UNL     1      43.684   4.441  13.040  0.00  0.00    +0.000 C 
ATOM      9  O   UNL     1      43.426   3.247  12.976  0.00  0.00    +0.000 OA
ATOM     10  H   UNL     1      41.731   5.094  12.986  0.00  0.00    +0.000 HD
ATOM     11  H   UNL     1      42.938   6.370  13.067  0.00  0.00    +0.000 HD
ENDBRANCH   1   8
BRANCH   4  12
ATOM     12  O   UNL     1      48.944   6.300  13.511  0.00  0.00    +0.000 OA
BRANCH  12  13
ATOM     13  C   UNL     1      49.269   7.473  14.296  0.00  0.00    +0.000 C 
ATOM     14  C   UNL     1      50.208   7.079  15.429  0.00  0.00    +0.000 C 
ATOM     15  C   UNL     1      48.830   7.564  15.744  0.00  0.00    +0.000 C 
BRANCH  13  16
ATOM     16  C   UNL     1      49.576   8.713  13.451  0.00  0.00    +0.000 C 
ATOM     17  C   UNL     1      48.355   9.654  13.417  0.00  0.00    +0.000 C 
ATOM     18  C   UNL     1      48.617  10.914  12.596  0.00  0.00    +0.000 C 
ATOM     19  C   UNL     1      49.067  10.575  11.180  0.00  0.00    +0.000 C 
ATOM     20  C   UNL     1      50.299   9.680  11.199  0.00  0.00    +0.000 C 
ATOM     21  C   UNL     1      50.063   8.413  12.019  0.00  0.00    +0.000 C 
ENDBRANCH  13  16
ENDBRANCH  12  13
ENDBRANCH   4  12
TORSDOF 4
ENDMDL
MODEL 7
REMARK VINA RESULT:    -6.052      3.887      6.649
REMARK INTER + INTRA:          -7.513
REMARK INTER:                  -7.686
REMARK INTRA:                   0.173
REMARK UNBOUND:                -0.046
REMARK  Name = 
REMARK  4 active torsions:
REMARK  status: ('A' for Active; 'I' for Inactive)
REMARK    1  A    between atoms: C_2  and  C_4
REMARK    2  A    between atoms: C_7  and  O_8
REMARK    3  A    between atoms: O_8  and  C_9
REMARK    4  A    between atoms: C_9  and  C_10
REMARK                            x       y       z     vdW  Elec       q    Type
REMARK                         _______ _______ _______ _____ _____    ______ ____
ROOT
ATOM      1  C   UNL     1      47.855   3.968  16.010  0.00  0.00    +0.000 A 
ATOM      2  C   UNL     1      48.072   5.344  15.956  0.00  0.00    +0.000 A 
ATOM      3  C   UNL     1      47.749   6.037  14.788  0.00  0.00    +0.000 A 
ATOM      4  C   UNL     1      47.217   5.339  13.712  0.00  0.00    +0.000 A 
ATOM      5  C   UNL     1      47.017   3.966  13.868  0.00  0.00    +0.000 A 
ATOM      6  N   UNL     1      47.322   3.254  14.980  0.00  0.00    +0.000 NA
ENDROOT
BRANCH   1   8
ATOM      7  N   UNL     1      47.213   2.877  18.087  0.00  0.00    +0.000 N 
ATOM      8  C   UNL     1      48.235   3.198  17.235  0.00  0.00    +0.000 C 
ATOM      9  O   UNL     1      49.387   2.853  17.462  0.00  0.00    +0.000 OA
ATOM     10  H   UNL     1      47.409   2.338  18.914  0.00  0.00    +0.000 HD
ATOM     11  H   UNL     1      46.263   3.150  17.856  0.00  0.00    +0.000 HD
ENDBRANCH   1   8
BRANCH   4  12
ATOM     12  O   UNL     1      46.875   5.847  12.494  0.00  0.00    +0.000 OA
BRANCH  12  13
ATOM     13  C   UNL     1      45.583   5.584  11.896  0.00  0.00    +0.000 C 
ATOM     14  C   UNL     1      44.840   6.899  11.696  0.00  0.00    +0.000 C 
ATOM     15  C   UNL     1      44.312   5.890  12.665  0.00  0.00    +0.000 C 
BRANCH  13  16
ATOM     16  C   UNL     1      45.627   4.556  10.761  0.00  0.00    +0.000 C 
ATOM     17  C   UNL     1      45.747   5.266   9.398  0.00  0.00    +0.000 C 
ATOM     18  C   UNL     1      45.809   4.280   8.235  0.00  0.00    +0.000 C 
ATOM     19  C   UNL     1      44.614   3.334   8.238  0.00  0.00    +0.000 C 
ATOM     20  C   UNL     1      44.508   2.594   9.565  0.00  0.00    +0.000 C 
ATOM     21  C   UNL     1      44.450   3.560  10.747  0.00  0.00    +0.000 C 
ENDBRANCH  13  16
ENDBRANCH  12  13
ENDBRANCH   4  12
TORSDOF 4
ENDMDL
MODEL 8
REMARK VINA RESULT:    -5.769      3.045      5.312
REMARK INTER + INTRA:          -7.164
REMARK INTER:                  -6.399
REMARK INTRA:                  -0.765
REMARK UNBOUND:                -0.046
REMARK  Name = 
REMARK  4 active torsions:
REMARK  status: ('A' for Active; 'I' for Inactive)
REMARK    1  A    between atoms: C_2  and  C_4
REMARK    2  A    between atoms: C_7  and  O_8
REMARK    3  A    between atoms: O_8  and  C_9
REMARK    4  A    between atoms: C_9  and  C_10
REMARK                            x       y       z     vdW  Elec       q    Type
REMARK                         _______ _______ _______ _____ _____    ______ ____
ROOT
ATOM      1  C   UNL     1      44.834   4.412  11.676  0.00  0.00    +0.000 A 
ATOM      2  C   UNL     1      45.589   4.306  12.843  0.00  0.00    +0.000 A 
ATOM      3  C   UNL     1      46.216   5.446  13.351  0.00  0.00    +0.000 A 
ATOM      4  C   UNL     1      46.069   6.653  12.683  0.00  0.00    +0.000 A 
ATOM      5  C   UNL     1      45.276   6.664  11.534  0.00  0.00    +0.000 A 
ATOM      6  N   UNL     1      44.655   5.582  11.004  0.00  0.00    +0.000 NA
ENDROOT
BRANCH   1   8
ATOM      7  N   UNL     1      44.954   2.473  10.212  0.00  0.00    +0.000 N 
ATOM      8  C   UNL     1      44.190   3.195  11.090  0.00  0.00    +0.000 C 
ATOM      9  O   UNL     1      43.056   2.845  11.386  0.00  0.00    +0.000 OA
ATOM     10  H   UNL     1      44.579   1.631   9.807  0.00  0.00    +0.000 HD
ATOM     11  H   UNL     1      45.902   2.770  10.011  0.00  0.00    +0.000 HD
ENDBRANCH   1   8
BRANCH   4  12
ATOM     12  O   UNL     1      46.631   7.850  13.018  0.00  0.00    +0.000 OA
BRANCH  12  13
ATOM     13  C   UNL     1      48.061   8.066  12.944  0.00  0.00    +0.000 C 
ATOM     14  C   UNL     1      48.366   9.049  11.820  0.00  0.00    +0.000 C 
ATOM     15  C   UNL     1      48.832   7.632  11.713  0.00  0.00    +0.000 C 
BRANCH  13  16
ATOM     16  C   UNL     1      48.729   8.244  14.311  0.00  0.00    +0.000 C 
ATOM     17  C   UNL     1      49.238   6.888  14.839  0.00  0.00    +0.000 C 
ATOM     18  C   UNL     1      49.925   7.016  16.196  0.00  0.00    +0.000 C 
ATOM     19  C   UNL     1      49.015   7.679  17.223  0.00  0.00    +0.000 C 
ATOM     20  C   UNL     1      48.538   9.040  16.732  0.00  0.00    +0.000 C 
ATOM     21  C   UNL     1      47.851   8.939  15.371  0.00  0.00    +0.000 C 
ENDBRANCH  13  16
ENDBRANCH  12  13
ENDBRANCH   4  12
TORSDOF 4
ENDMDL
MODEL 9
REMARK VINA RESULT:    -5.502      3.556      5.700
REMARK INTER + INTRA:          -6.834
REMARK INTER:                  -6.698
REMARK INTRA:                  -0.136
REMARK UNBOUND:                -0.046
REMARK  Name = 
REMARK  4 active torsions:
REMARK  status: ('A' for Active; 'I' for Inactive)
REMARK    1  A    between atoms: C_2  and  C_4
REMARK    2  A    between atoms: C_7  and  O_8
REMARK    3  A    between atoms: O_8  and  C_9
REMARK    4  A    between atoms: C_9  and  C_10
REMARK                            x       y       z     vdW  Elec       q    Type
REMARK                         _______ _______ _______ _____ _____    ______ ____
ROOT
ATOM      1  C   UNL     1      44.875   4.290  12.124  0.00  0.00    +0.000 A 
ATOM      2  C   UNL     1      45.314   5.194  11.157  0.00  0.00    +0.000 A 
ATOM      3  C   UNL     1      46.411   6.011  11.440  0.00  0.00    +0.000 A 
ATOM      4  C   UNL     1      47.037   5.900  12.674  0.00  0.00    +0.000 A 
ATOM      5  C   UNL     1      46.538   4.951  13.569  0.00  0.00    +0.000 A 
ATOM      6  N   UNL     1      45.474   4.144  13.338  0.00  0.00    +0.000 NA
ENDROOT
BRANCH   1   8
ATOM      7  N   UNL     1      43.695   2.182  12.409  0.00  0.00    +0.000 N 
ATOM      8  C   UNL     1      43.675   3.437  11.860  0.00  0.00    +0.000 C 
ATOM      9  O   UNL     1      42.717   3.834  11.211  0.00  0.00    +0.000 OA
ATOM     10  H   UNL     1      42.902   1.575  12.284  0.00  0.00    +0.000 HD
ATOM     11  H   UNL     1      44.489   1.892  12.969  0.00  0.00    +0.000 HD
ENDBRANCH   1   8
BRANCH   4  12
ATOM     12  O   UNL     1      48.094   6.633  13.126  0.00  0.00    +0.000 OA
BRANCH  12  13
ATOM     13  C   UNL     1      48.117   8.078  13.022  0.00  0.00    +0.000 C 
ATOM     14  C   UNL     1      48.206   8.684  14.417  0.00  0.00    +0.000 C 
ATOM     15  C   UNL     1      46.978   8.899  13.592  0.00  0.00    +0.000 C 
BRANCH  13  16
ATOM     16  C   UNL     1      49.029   8.600  11.907  0.00  0.00    +0.000 C 
ATOM     17  C   UNL     1      50.394   7.886  11.952  0.00  0.00    +0.000 C 
ATOM     18  C   UNL     1      51.334   8.364  10.849  0.00  0.00    +0.000 C 
ATOM     19  C   UNL     1      51.523   9.876  10.891  0.00  0.00    +0.000 C 
ATOM     20  C   UNL     1      50.184  10.595  10.804  0.00  0.00    +0.000 C 
ATOM     21  C   UNL     1      49.222  10.129  11.896  0.00  0.00    +0.000 C 
ENDBRANCH  13  16
ENDBRANCH  12  13
ENDBRANCH   4  12
TORSDOF 4
ENDMDL
