MODEL 1
REMARK VINA RESULT:    -8.303      0.000      0.000
REMARK INTER + INTRA:         -12.776
REMARK INTER:                 -11.458
REMARK INTRA:                  -1.318
REMARK UNBOUND:                -1.318
REMARK  Name = 
REMARK  8 active torsions:
REMARK  status: ('A' for Active; 'I' for Inactive)
REMARK    1  A    between atoms: C_1  and  N_2
REMARK    2  A    between atoms: N_2  and  C_3
REMARK    3  A    between atoms: C_3  and  C_4
REMARK    4  A    between atoms: C_7  and  C_8
REMARK    5  A    between atoms: C_8  and  N_9
REMARK    6  A    between atoms: N_9  and  C_10
REMARK    7  A    between atoms: C_13  and  N_14
REMARK    8  A    between atoms: C_19  and  C_21
REMARK                            x       y       z     vdW  Elec       q    Type
REMARK                         _______ _______ _______ _____ _____    ______ ____
ROOT
ATOM      1  C   UNL     1      46.622   6.257  12.907  0.00  0.00    +0.000 A 
ATOM      2  C   UNL     1      46.546   4.961  13.433  0.00  0.00    +0.000 A 
ATOM      3  C   UNL     1      45.866   3.950  12.740  0.00  0.00    +0.000 A 
ATOM      4  C   UNL     1      45.263   4.223  11.506  0.00  0.00    +0.000 A 
ATOM      5  C   UNL     1      45.323   5.530  10.998  0.00  0.00    +0.000 A 
ATOM      6  C   UNL     1      45.999   6.538  11.691  0.00  0.00    +0.000 A 
ENDROOT
BRANCH   1   7
ATOM      7  C   UNL     1      47.332   7.343  13.676  0.00  0.00    +0.000 C 
BRANCH   7   9
ATOM      8  C   UNL     1      49.443   7.089  12.302  0.00  0.00    +0.000 C 
ATOM      9  N   UNL     1      48.782   7.491  13.540  0.00  0.00    +0.000 N 
ATOM     10  C   UNL     1      49.636   7.803  14.621  0.00  0.00    +0.000 C 
ATOM     11  O   UNL     1      50.858   7.753  14.496  0.00  0.00    +0.000 OA
BRANCH  10  12
ATOM     12  C   UNL     1      49.062   8.180  15.932  0.00  0.00    +0.000 A 
ATOM     13  C   UNL     1      48.704   9.461  16.317  0.00  0.00    +0.000 A 
ATOM     14  S   UNL     1      48.045   9.564  17.888  0.00  0.00    +0.000 S 
ATOM     15  C   UNL     1      48.037   7.872  18.041  0.00  0.00    +0.000 A 
ATOM     16  N   UNL     1      47.477   7.282  19.127  0.00  0.00    +0.000 NA
ATOM     17  C   UNL     1      47.477   5.989  19.081  0.00  0.00    +0.000 A 
ATOM     18  N   UNL     1      48.013   5.245  18.061  0.00  0.00    +0.000 N 
ATOM     19  C   UNL     1      48.711   5.803  17.008  0.00  0.00    +0.000 A 
ATOM     20  O   UNL     1      49.367   5.099  16.254  0.00  0.00    +0.000 OA
ATOM     21  C   UNL     1      48.632   7.252  16.956  0.00  0.00    +0.000 A 
ATOM     22  H   UNL     1      48.035   4.240  18.120  0.00  0.00    +0.000 HD
ENDBRANCH  10  12
ENDBRANCH   7   9
ENDBRANCH   1   7
BRANCH   4  23
ATOM     23  C   UNL     1      44.694   3.106  10.659  0.00  0.00    +0.000 C 
BRANCH  23  24
ATOM     24  N   UNL     1      44.162   3.565   9.376  0.00  0.00    +0.000 NA
ATOM     25  H   UNL     1      44.198   4.587   9.364  0.00  0.00    +0.000 HD
BRANCH  24  26
ATOM     26  C   UNL     1      44.903   3.034   8.218  0.00  0.00    +0.000 C 
ATOM     27  C   UNL     1      45.880   4.066   7.620  0.00  0.00    +0.000 C 
ATOM     28  C   UNL     1      46.781   3.468   6.541  0.00  0.00    +0.000 C 
ATOM     29  C   UNL     1      47.550   2.259   7.073  0.00  0.00    +0.000 C 
ATOM     30  C   UNL     1      46.573   1.200   7.591  0.00  0.00    +0.000 C 
ATOM     31  C   UNL     1      45.660   1.774   8.677  0.00  0.00    +0.000 C 
BRANCH  29  32
ATOM     32  N   UNL     1      48.409   1.716   6.024  0.00  0.00    +0.000 NA
ATOM     33  H   UNL     1      49.128   1.116   6.428  0.00  0.00    +0.000 HD
ATOM     34  H   UNL     1      48.901   2.473   5.551  0.00  0.00    +0.000 HD
ENDBRANCH  29  32
ENDBRANCH  24  26
ENDBRANCH  23  24
ENDBRANCH   4  23
TORSDOF 7
ENDMDL
MODEL 2
REMARK VINA RESULT:    -7.922      1.276      2.037
REMARK INTER + INTRA:         -12.250
REMARK INTER:                 -10.786
REMARK INTRA:                  -1.464
REMARK UNBOUND:                -1.318
REMARK  Name = 
REMARK  8 active torsions:
REMARK  status: ('A' for Active; 'I' for Inactive)
REMARK    1  A    between atoms: C_1  and  N_2
REMARK    2  A    between atoms: N_2  and  C_3
REMARK    3  A    between atoms: C_3  and  C_4
REMARK    4  A    between atoms: C_7  and  C_8
REMARK    5  A    between atoms: C_8  and  N_9
REMARK    6  A    between atoms: N_9  and  C_10
REMARK    7  A    between atoms: C_13  and  N_14
REMARK    8  A    between atoms: C_19  and  C_21
REMARK                            x       y       z     vdW  Elec       q    Type
REMARK                         _______ _______ _______ _____ _____    ______ ____
ROOT
ATOM      1  C   UNL     1      46.479   6.158  13.028  0.00  0.00    +0.000 A 
ATOM      2  C   UNL     1      45.868   6.480  11.809  0.00  0.00    +0.000 A 
ATOM      3  C   UNL     1      45.309   5.477  11.006  0.00  0.00    +0.000 A 
ATOM      4  C   UNL     1      45.345   4.140  11.420  0.00  0.00    +0.000 A 
ATOM      5  C   UNL     1      45.980   3.823  12.630  0.00  0.00    +0.000 A 
ATOM      6  C   UNL     1      46.540   4.823  13.429  0.00  0.00    +0.000 A 
ENDROOT
BRANCH   1   7
ATOM      7  C   UNL     1      47.102   7.244  13.870  0.00  0.00    +0.000 C 
BRANCH   7   9
ATOM      8  C   UNL     1      49.276   7.756  12.680  0.00  0.00    +0.000 C 
ATOM      9  N   UNL     1      48.558   7.388  13.896  0.00  0.00    +0.000 N 
ATOM     10  C   UNL     1      49.360   6.981  14.985  0.00  0.00    +0.000 C 
ATOM     11  O   UNL     1      50.586   6.967  14.898  0.00  0.00    +0.000 OA
BRANCH  10  12
ATOM     12  C   UNL     1      48.724   6.548  16.249  0.00  0.00    +0.000 A 
ATOM     13  C   UNL     1      48.525   5.235  16.643  0.00  0.00    +0.000 A 
ATOM     14  S   UNL     1      47.785   5.065  18.172  0.00  0.00    +0.000 S 
ATOM     15  C   UNL     1      47.876   6.738  18.449  0.00  0.00    +0.000 A 
ATOM     16  N   UNL     1      47.511   7.258  19.648  0.00  0.00    +0.000 NA
ATOM     17  C   UNL     1      47.698   8.534  19.747  0.00  0.00    +0.000 A 
ATOM     18  N   UNL     1      48.187   9.330  18.742  0.00  0.00    +0.000 N 
ATOM     19  C   UNL     1      48.440   8.864  17.467  0.00  0.00    +0.000 A 
ATOM     20  O   UNL     1      48.647   9.644  16.549  0.00  0.00    +0.000 OA
ATOM     21  C   UNL     1      48.359   7.420  17.346  0.00  0.00    +0.000 A 
ATOM     22  H   UNL     1      48.247  10.328  18.866  0.00  0.00    +0.000 HD
ENDBRANCH  10  12
ENDBRANCH   7   9
ENDBRANCH   1   7
BRANCH   4  23
ATOM     23  C   UNL     1      44.583   3.075  10.662  0.00  0.00    +0.000 C 
BRANCH  23  24
ATOM     24  N   UNL     1      44.095   3.529   9.360  0.00  0.00    +0.000 NA
ATOM     25  H   UNL     1      44.139   4.550   9.342  0.00  0.00    +0.000 HD
BRANCH  24  26
ATOM     26  C   UNL     1      44.868   2.985   8.228  0.00  0.00    +0.000 C 
ATOM     27  C   UNL     1      45.824   4.025   7.613  0.00  0.00    +0.000 C 
ATOM     28  C   UNL     1      46.758   3.421   6.565  0.00  0.00    +0.000 C 
ATOM     29  C   UNL     1      47.552   2.252   7.145  0.00  0.00    +0.000 C 
ATOM     30  C   UNL     1      46.598   1.181   7.682  0.00  0.00    +0.000 C 
ATOM     31  C   UNL     1      45.653   1.761   8.736  0.00  0.00    +0.000 C 
BRANCH  29  32
ATOM     32  N   UNL     1      48.442   1.701   6.125  0.00  0.00    +0.000 NA
ATOM     33  H   UNL     1      48.599   0.708   6.289  0.00  0.00    +0.000 HD
ATOM     34  H   UNL     1      49.355   2.149   6.183  0.00  0.00    +0.000 HD
ENDBRANCH  29  32
ENDBRANCH  24  26
ENDBRANCH  23  24
ENDBRANCH   4  23
TORSDOF 7
ENDMDL
MODEL 3
REMARK VINA RESULT:    -7.701      2.160      3.041
REMARK INTER + INTRA:         -11.945
REMARK INTER:                 -11.056
REMARK INTRA:                  -0.888
REMARK UNBOUND:                -1.318
REMARK  Name = 
REMARK  8 active torsions:
REMARK  status: ('A' for Active; 'I' for Inactive)
REMARK    1  A    between atoms: C_1  and  N_2
REMARK    2  A    between atoms: N_2  and  C_3
REMARK    3  A    between atoms: C_3  and  C_4
REMARK    4  A    between atoms: C_7  and  C_8
REMARK    5  A    between atoms: C_8  and  N_9
REMARK    6  A    between atoms: N_9  and  C_10
REMARK    7  A    between atoms: C_13  and  N_14
REMARK    8  A    between atoms: C_19  and  C_21
REMARK                            x       y       z     vdW  Elec       q    Type
REMARK                         _______ _______ _______ _____ _____    ______ ____
ROOT
ATOM      1  C   UNL     1      47.229   5.899  12.940  0.00  0.00    +0.000 A 
ATOM      2  C   UNL     1      46.885   6.656  11.813  0.00  0.00    +0.000 A 
ATOM      3  C   UNL     1      45.766   6.316  11.041  0.00  0.00    +0.000 A 
ATOM      4  C   UNL     1      44.972   5.219  11.396  0.00  0.00    +0.000 A 
ATOM      5  C   UNL     1      45.337   4.451  12.513  0.00  0.00    +0.000 A 
ATOM      6  C   UNL     1      46.454   4.790  13.280  0.00  0.00    +0.000 A 
ENDROOT
BRANCH   1   7
ATOM      7  C   UNL     1      48.452   6.259  13.746  0.00  0.00    +0.000 C 
BRANCH   7   9
ATOM      8  C   UNL     1      48.353   8.708  14.382  0.00  0.00    +0.000 C 
ATOM      9  N   UNL     1      48.358   7.301  14.771  0.00  0.00    +0.000 N 
ATOM     10  C   UNL     1      48.489   7.044  16.153  0.00  0.00    +0.000 C 
ATOM     11  O   UNL     1      48.570   7.966  16.962  0.00  0.00    +0.000 OA
BRANCH  10  12
ATOM     12  C   UNL     1      48.548   5.650  16.644  0.00  0.00    +0.000 A 
ATOM     13  C   UNL     1      47.503   4.741  16.618  0.00  0.00    +0.000 A 
ATOM     14  S   UNL     1      47.897   3.200  17.238  0.00  0.00    +0.000 S 
ATOM     15  C   UNL     1      49.532   3.632  17.389  0.00  0.00    +0.000 A 
ATOM     16  N   UNL     1      50.456   2.711  17.763  0.00  0.00    +0.000 NA
ATOM     17  C   UNL     1      51.670   3.157  17.769  0.00  0.00    +0.000 A 
ATOM     18  N   UNL     1      52.029   4.445  17.464  0.00  0.00    +0.000 N 
ATOM     19  C   UNL     1      51.110   5.444  17.213  0.00  0.00    +0.000 A 
ATOM     20  O   UNL     1      51.458   6.615  17.179  0.00  0.00    +0.000 OA
ATOM     21  C   UNL     1      49.746   4.964  17.078  0.00  0.00    +0.000 A 
ATOM     22  H   UNL     1      52.988   4.741  17.551  0.00  0.00    +0.000 HD
ENDBRANCH  10  12
ENDBRANCH   7   9
ENDBRANCH   1   7
BRANCH   4  23
ATOM     23  C   UNL     1      43.660   4.954  10.690  0.00  0.00    +0.000 C 
BRANCH  23  24
ATOM     24  N   UNL     1      43.825   4.565   9.289  0.00  0.00    +0.000 NA
ATOM     25  H   UNL     1      43.853   5.416   8.724  0.00  0.00    +0.000 HD
BRANCH  24  26
ATOM     26  C   UNL     1      45.046   3.774   9.047  0.00  0.00    +0.000 C 
ATOM     27  C   UNL     1      44.745   2.278   8.832  0.00  0.00    +0.000 C 
ATOM     28  C   UNL     1      45.978   1.485   8.400  0.00  0.00    +0.000 C 
ATOM     29  C   UNL     1      46.603   2.083   7.141  0.00  0.00    +0.000 C 
ATOM     30  C   UNL     1      46.977   3.548   7.383  0.00  0.00    +0.000 C 
ATOM     31  C   UNL     1      45.757   4.365   7.815  0.00  0.00    +0.000 C 
BRANCH  29  32
ATOM     32  N   UNL     1      47.771   1.299   6.747  0.00  0.00    +0.000 NA
ATOM     33  H   UNL     1      47.907   1.347   5.737  0.00  0.00    +0.000 HD
ATOM     34  H   UNL     1      47.621   0.316   6.969  0.00  0.00    +0.000 HD
ENDBRANCH  29  32
ENDBRANCH  24  26
ENDBRANCH  23  24
ENDBRANCH   4  23
TORSDOF 7
ENDMDL
MODEL 4
REMARK VINA RESULT:    -7.406      3.802      8.601
REMARK INTER + INTRA:         -11.538
REMARK INTER:                 -10.377
REMARK INTRA:                  -1.161
REMARK UNBOUND:                -1.318
REMARK  Name = 
REMARK  8 active torsions:
REMARK  status: ('A' for Active; 'I' for Inactive)
REMARK    1  A    between atoms: C_1  and  N_2
REMARK    2  A    between atoms: N_2  and  C_3
REMARK    3  A    between atoms: C_3  and  C_4
REMARK    4  A    between atoms: C_7  and  C_8
REMARK    5  A    between atoms: C_8  and  N_9
REMARK    6  A    between atoms: N_9  and  C_10
REMARK    7  A    between atoms: C_13  and  N_14
REMARK    8  A    between atoms: C_19  and  C_21
REMARK                            x       y       z     vdW  Elec       q    Type
REMARK                         _______ _______ _______ _____ _____    ______ ____
ROOT
ATOM      1  C   UNL     1      47.484   5.744  13.696  0.00  0.00    +0.000 A 
ATOM      2  C   UNL     1      48.328   6.577  14.441  0.00  0.00    +0.000 A 
ATOM      3  C   UNL     1      48.588   6.304  15.791  0.00  0.00    +0.000 A 
ATOM      4  C   UNL     1      48.014   5.186  16.408  0.00  0.00    +0.000 A 
ATOM      5  C   UNL     1      47.150   4.370  15.661  0.00  0.00    +0.000 A 
ATOM      6  C   UNL     1      46.890   4.644  14.316  0.00  0.00    +0.000 A 
ENDROOT
BRANCH   1   7
ATOM      7  C   UNL     1      47.190   6.064  12.252  0.00  0.00    +0.000 C 
BRANCH   7   9
ATOM      8  C   UNL     1      46.369   8.454  12.096  0.00  0.00    +0.000 C 
ATOM      9  N   UNL     1      46.132   7.023  11.929  0.00  0.00    +0.000 N 
ATOM     10  C   UNL     1      44.797   6.647  11.663  0.00  0.00    +0.000 C 
ATOM     11  O   UNL     1      43.910   7.492  11.560  0.00  0.00    +0.000 OA
BRANCH  10  12
ATOM     12  C   UNL     1      44.447   5.217  11.519  0.00  0.00    +0.000 A 
ATOM     13  C   UNL     1      43.680   4.481  12.406  0.00  0.00    +0.000 A 
ATOM     14  S   UNL     1      43.434   2.857  11.943  0.00  0.00    +0.000 S 
ATOM     15  C   UNL     1      44.185   3.126  10.444  0.00  0.00    +0.000 A 
ATOM     16  N   UNL     1      44.207   2.151   9.500  0.00  0.00    +0.000 NA
ATOM     17  C   UNL     1      44.747   2.514   8.382  0.00  0.00    +0.000 A 
ATOM     18  N   UNL     1      45.290   3.751   8.144  0.00  0.00    +0.000 N 
ATOM     19  C   UNL     1      45.410   4.722   9.119  0.00  0.00    +0.000 A 
ATOM     20  O   UNL     1      46.103   5.710   8.930  0.00  0.00    +0.000 OA
ATOM     21  C   UNL     1      44.711   4.403  10.351  0.00  0.00    +0.000 A 
ATOM     22  H   UNL     1      45.751   3.946   7.270  0.00  0.00    +0.000 HD
ENDBRANCH  10  12
ENDBRANCH   7   9
ENDBRANCH   1   7
BRANCH   4  23
ATOM     23  C   UNL     1      48.433   4.772  17.802  0.00  0.00    +0.000 C 
BRANCH  23  24
ATOM     24  N   UNL     1      49.844   5.034  18.083  0.00  0.00    +0.000 NA
ATOM     25  H   UNL     1      49.966   5.067  19.098  0.00  0.00    +0.000 HD
BRANCH  24  26
ATOM     26  C   UNL     1      50.748   4.017  17.513  0.00  0.00    +0.000 C 
ATOM     27  C   UNL     1      52.055   3.874  18.316  0.00  0.00    +0.000 C 
ATOM     28  C   UNL     1      52.912   2.700  17.843  0.00  0.00    +0.000 C 
ATOM     29  C   UNL     1      52.123   1.393  17.882  0.00  0.00    +0.000 C 
ATOM     30  C   UNL     1      50.865   1.510  17.016  0.00  0.00    +0.000 C 
ATOM     31  C   UNL     1      49.988   2.678  17.472  0.00  0.00    +0.000 C 
BRANCH  29  32
ATOM     32  N   UNL     1      52.969   0.289  17.435  0.00  0.00    +0.000 NA
ATOM     33  H   UNL     1      53.906   0.626  17.215  0.00  0.00    +0.000 HD
ATOM     34  H   UNL     1      52.598  -0.106  16.572  0.00  0.00    +0.000 HD
ENDBRANCH  29  32
ENDBRANCH  24  26
ENDBRANCH  23  24
ENDBRANCH   4  23
TORSDOF 7
ENDMDL
MODEL 5
REMARK VINA RESULT:    -7.069      3.804      8.241
REMARK INTER + INTRA:         -11.073
REMARK INTER:                 -10.244
REMARK INTRA:                  -0.829
REMARK UNBOUND:                -1.318
REMARK  Name = 
REMARK  8 active torsions:
REMARK  status: ('A' for Active; 'I' for Inactive)
REMARK    1  A    between atoms: C_1  and  N_2
REMARK    2  A    between atoms: N_2  and  C_3
REMARK    3  A    between atoms: C_3  and  C_4
REMARK    4  A    between atoms: C_7  and  C_8
REMARK    5  A    between atoms: C_8  and  N_9
REMARK    6  A    between atoms: N_9  and  C_10
REMARK    7  A    between atoms: C_13  and  N_14
REMARK    8  A    between atoms: C_19  and  C_21
REMARK                            x       y       z     vdW  Elec       q    Type
REMARK                         _______ _______ _______ _____ _____    ______ ____
ROOT
ATOM      1  C   UNL     1      47.698   5.924  13.987  0.00  0.00    +0.000 A 
ATOM      2  C   UNL     1      47.090   4.776  14.512  0.00  0.00    +0.000 A 
ATOM      3  C   UNL     1      47.339   4.379  15.832  0.00  0.00    +0.000 A 
ATOM      4  C   UNL     1      48.193   5.133  16.646  0.00  0.00    +0.000 A 
ATOM      5  C   UNL     1      48.817   6.268  16.105  0.00  0.00    +0.000 A 
ATOM      6  C   UNL     1      48.570   6.662  14.788  0.00  0.00    +0.000 A 
ENDROOT
BRANCH   1   7
ATOM      7  C   UNL     1      47.443   6.325  12.555  0.00  0.00    +0.000 C 
BRANCH   7   9
ATOM      8  C   UNL     1      46.649   8.692  12.974  0.00  0.00    +0.000 C 
ATOM      9  N   UNL     1      46.516   7.421  12.268  0.00  0.00    +0.000 N 
ATOM     10  C   UNL     1      45.345   7.266  11.495  0.00  0.00    +0.000 C 
ATOM     11  O   UNL     1      44.513   8.168  11.419  0.00  0.00    +0.000 OA
BRANCH  10  12
ATOM     12  C   UNL     1      45.097   5.997  10.776  0.00  0.00    +0.000 A 
ATOM     13  C   UNL     1      45.608   5.662   9.533  0.00  0.00    +0.000 A 
ATOM     14  S   UNL     1      45.156   4.110   8.983  0.00  0.00    +0.000 S 
ATOM     15  C   UNL     1      44.415   3.753  10.469  0.00  0.00    +0.000 A 
ATOM     16  N   UNL     1      43.919   2.513  10.710  0.00  0.00    +0.000 NA
ATOM     17  C   UNL     1      43.448   2.359  11.905  0.00  0.00    +0.000 A 
ATOM     18  N   UNL     1      43.404   3.344  12.859  0.00  0.00    +0.000 N 
ATOM     19  C   UNL     1      43.772   4.652  12.610  0.00  0.00    +0.000 A 
ATOM     20  O   UNL     1      43.499   5.537  13.407  0.00  0.00    +0.000 OA
ATOM     21  C   UNL     1      44.418   4.842  11.323  0.00  0.00    +0.000 A 
ATOM     22  H   UNL     1      42.965   3.173  13.749  0.00  0.00    +0.000 HD
ENDBRANCH  10  12
ENDBRANCH   7   9
ENDBRANCH   1   7
BRANCH   4  23
ATOM     23  C   UNL     1      48.322   4.828  18.123  0.00  0.00    +0.000 C 
BRANCH  23  24
ATOM     24  N   UNL     1      49.703   4.869  18.603  0.00  0.00    +0.000 NA
ATOM     25  H   UNL     1      49.704   4.608  19.591  0.00  0.00    +0.000 HD
BRANCH  24  26
ATOM     26  C   UNL     1      50.604   3.971  17.857  0.00  0.00    +0.000 C 
ATOM     27  C   UNL     1      51.962   3.781  18.560  0.00  0.00    +0.000 C 
ATOM     28  C   UNL     1      52.827   2.713  17.892  0.00  0.00    +0.000 C 
ATOM     29  C   UNL     1      52.086   1.380  17.805  0.00  0.00    +0.000 C 
ATOM     30  C   UNL     1      50.775   1.555  17.033  0.00  0.00    +0.000 C 
ATOM     31  C   UNL     1      49.888   2.618  17.685  0.00  0.00    +0.000 C 
BRANCH  29  32
ATOM     32  N   UNL     1      52.941   0.378  17.172  0.00  0.00    +0.000 NA
ATOM     33  H   UNL     1      52.427  -0.492  17.037  0.00  0.00    +0.000 HD
ATOM     34  H   UNL     1      53.726   0.155  17.783  0.00  0.00    +0.000 HD
ENDBRANCH  29  32
ENDBRANCH  24  26
ENDBRANCH  23  24
ENDBRANCH   4  23
TORSDOF 7
ENDMDL
MODEL 6
REMARK VINA RESULT:    -7.051      3.294      9.319
REMARK INTER + INTRA:         -11.048
REMARK INTER:                  -9.769
REMARK INTRA:                  -1.279
REMARK UNBOUND:                -1.318
REMARK  Name = 
REMARK  8 active torsions:
REMARK  status: ('A' for Active; 'I' for Inactive)
REMARK    1  A    between atoms: C_1  and  N_2
REMARK    2  A    between atoms: N_2  and  C_3
REMARK    3  A    between atoms: C_3  and  C_4
REMARK    4  A    between atoms: C_7  and  C_8
REMARK    5  A    between atoms: C_8  and  N_9
REMARK    6  A    between atoms: N_9  and  C_10
REMARK    7  A    between atoms: C_13  and  N_14
REMARK    8  A    between atoms: C_19  and  C_21
REMARK                            x       y       z     vdW  Elec       q    Type
REMARK                         _______ _______ _______ _____ _____    ______ ____
ROOT
ATOM      1  C   UNL     1      47.322   5.674  13.585  0.00  0.00    +0.000 A 
ATOM      2  C   UNL     1      46.688   4.491  13.989  0.00  0.00    +0.000 A 
ATOM      3  C   UNL     1      46.827   4.022  15.302  0.00  0.00    +0.000 A 
ATOM      4  C   UNL     1      47.593   4.738  16.230  0.00  0.00    +0.000 A 
ATOM      5  C   UNL     1      48.244   5.908  15.810  0.00  0.00    +0.000 A 
ATOM      6  C   UNL     1      48.108   6.374  14.500  0.00  0.00    +0.000 A 
ENDROOT
BRANCH   1   7
ATOM      7  C   UNL     1      47.188   6.153  12.161  0.00  0.00    +0.000 C 
BRANCH   7   9
ATOM      8  C   UNL     1      46.326   8.526  11.975  0.00  0.00    +0.000 C 
ATOM      9  N   UNL     1      46.118   7.090  11.815  0.00  0.00    +0.000 N 
ATOM     10  C   UNL     1      44.795   6.688  11.530  0.00  0.00    +0.000 C 
ATOM     11  O   UNL     1      43.895   7.516  11.408  0.00  0.00    +0.000 OA
BRANCH  10  12
ATOM     12  C   UNL     1      44.473   5.251  11.391  0.00  0.00    +0.000 A 
ATOM     13  C   UNL     1      43.661   4.520  12.243  0.00  0.00    +0.000 A 
ATOM     14  S   UNL     1      43.466   2.884  11.795  0.00  0.00    +0.000 S 
ATOM     15  C   UNL     1      44.305   3.138  10.341  0.00  0.00    +0.000 A 
ATOM     16  N   UNL     1      44.398   2.147   9.418  0.00  0.00    +0.000 NA
ATOM     17  C   UNL     1      45.002   2.498   8.329  0.00  0.00    +0.000 A 
ATOM     18  N   UNL     1      45.543   3.738   8.103  0.00  0.00    +0.000 N 
ATOM     19  C   UNL     1      45.590   4.727   9.065  0.00  0.00    +0.000 A 
ATOM     20  O   UNL     1      46.281   5.722   8.902  0.00  0.00    +0.000 OA
ATOM     21  C   UNL     1      44.819   4.420  10.257  0.00  0.00    +0.000 A 
ATOM     22  H   UNL     1      46.056   3.924   7.256  0.00  0.00    +0.000 HD
ENDBRANCH  10  12
ENDBRANCH   7   9
ENDBRANCH   1   7
BRANCH   4  23
ATOM     23  C   UNL     1      47.597   4.350  17.692  0.00  0.00    +0.000 C 
BRANCH  23  24
ATOM     24  N   UNL     1      46.721   5.185  18.515  0.00  0.00    +0.000 NA
ATOM     25  H   UNL     1      46.022   4.580  18.951  0.00  0.00    +0.000 HD
BRANCH  24  26
ATOM     26  C   UNL     1      47.445   5.932  19.560  0.00  0.00    +0.000 C 
ATOM     27  C   UNL     1      48.892   5.434  19.744  0.00  0.00    +0.000 C 
ATOM     28  C   UNL     1      49.703   6.318  20.691  0.00  0.00    +0.000 C 
ATOM     29  C   UNL     1      49.701   7.772  20.222  0.00  0.00    +0.000 C 
ATOM     30  C   UNL     1      48.264   8.291  20.119  0.00  0.00    +0.000 C 
ATOM     31  C   UNL     1      47.431   7.423  19.173  0.00  0.00    +0.000 C 
BRANCH  29  32
ATOM     32  N   UNL     1      50.492   8.590  21.139  0.00  0.00    +0.000 NA
ATOM     33  H   UNL     1      50.237   9.573  21.048  0.00  0.00    +0.000 HD
ATOM     34  H   UNL     1      51.480   8.527  20.896  0.00  0.00    +0.000 HD
ENDBRANCH  29  32
ENDBRANCH  24  26
ENDBRANCH  23  24
ENDBRANCH   4  23
TORSDOF 7
ENDMDL
MODEL 7
REMARK VINA RESULT:    -7.045      3.208      4.872
REMARK INTER + INTRA:         -11.040
REMARK INTER:                  -9.379
REMARK INTRA:                  -1.661
REMARK UNBOUND:                -1.318
REMARK  Name = 
REMARK  8 active torsions:
REMARK  status: ('A' for Active; 'I' for Inactive)
REMARK    1  A    between atoms: C_1  and  N_2
REMARK    2  A    between atoms: N_2  and  C_3
REMARK    3  A    between atoms: C_3  and  C_4
REMARK    4  A    between atoms: C_7  and  C_8
REMARK    5  A    between atoms: C_8  and  N_9
REMARK    6  A    between atoms: N_9  and  C_10
REMARK    7  A    between atoms: C_13  and  N_14
REMARK    8  A    between atoms: C_19  and  C_21
REMARK                            x       y       z     vdW  Elec       q    Type
REMARK                         _______ _______ _______ _____ _____    ______ ____
ROOT
ATOM      1  C   UNL     1      48.606   7.919  15.477  0.00  0.00    +0.000 A 
ATOM      2  C   UNL     1      47.875   8.884  14.772  0.00  0.00    +0.000 A 
ATOM      3  C   UNL     1      47.312   8.581  13.525  0.00  0.00    +0.000 A 
ATOM      4  C   UNL     1      47.466   7.303  12.974  0.00  0.00    +0.000 A 
ATOM      5  C   UNL     1      48.220   6.350  13.675  0.00  0.00    +0.000 A 
ATOM      6  C   UNL     1      48.782   6.653  14.917  0.00  0.00    +0.000 A 
ENDROOT
BRANCH   1   7
ATOM      7  C   UNL     1      49.230   8.266  16.805  0.00  0.00    +0.000 C 
BRANCH   7   9
ATOM      8  C   UNL     1      47.582   8.917  18.613  0.00  0.00    +0.000 C 
ATOM      9  N   UNL     1      48.514   7.950  18.042  0.00  0.00    +0.000 N 
ATOM     10  C   UNL     1      48.823   6.838  18.857  0.00  0.00    +0.000 C 
ATOM     11  O   UNL     1      48.310   6.705  19.966  0.00  0.00    +0.000 OA
BRANCH  10  12
ATOM     12  C   UNL     1      49.790   5.822  18.385  0.00  0.00    +0.000 A 
ATOM     13  C   UNL     1      51.157   5.844  18.610  0.00  0.00    +0.000 A 
ATOM     14  S   UNL     1      51.998   4.511  17.955  0.00  0.00    +0.000 S 
ATOM     15  C   UNL     1      50.542   3.758  17.509  0.00  0.00    +0.000 A 
ATOM     16  N   UNL     1      50.547   2.504  16.991  0.00  0.00    +0.000 NA
ATOM     17  C   UNL     1      49.367   2.025  16.763  0.00  0.00    +0.000 A 
ATOM     18  N   UNL     1      48.195   2.705  16.979  0.00  0.00    +0.000 N 
ATOM     19  C   UNL     1      48.152   4.027  17.373  0.00  0.00    +0.000 A 
ATOM     20  O   UNL     1      47.106   4.657  17.327  0.00  0.00    +0.000 OA
ATOM     21  C   UNL     1      49.445   4.565  17.756  0.00  0.00    +0.000 A 
ATOM     22  H   UNL     1      47.312   2.294  16.719  0.00  0.00    +0.000 HD
ENDBRANCH  10  12
ENDBRANCH   7   9
ENDBRANCH   1   7
BRANCH   4  23
ATOM     23  C   UNL     1      46.709   6.904  11.726  0.00  0.00    +0.000 C 
BRANCH  23  24
ATOM     24  N   UNL     1      45.308   7.326  11.739  0.00  0.00    +0.000 NA
ATOM     25  H   UNL     1      45.175   8.011  10.993  0.00  0.00    +0.000 HD
BRANCH  24  26
ATOM     26  C   UNL     1      44.364   6.208  11.554  0.00  0.00    +0.000 C 
ATOM     27  C   UNL     1      44.863   5.181  10.519  0.00  0.00    +0.000 C 
ATOM     28  C   UNL     1      43.985   3.932  10.456  0.00  0.00    +0.000 C 
ATOM     29  C   UNL     1      43.860   3.278  11.831  0.00  0.00    +0.000 C 
ATOM     30  C   UNL     1      43.286   4.277  12.840  0.00  0.00    +0.000 C 
ATOM     31  C   UNL     1      44.151   5.536  12.924  0.00  0.00    +0.000 C 
BRANCH  29  32
ATOM     32  N   UNL     1      43.024   2.083  11.738  0.00  0.00    +0.000 NA
ATOM     33  H   UNL     1      42.356   2.056  12.508  0.00  0.00    +0.000 HD
ATOM     34  H   UNL     1      43.601   1.248  11.831  0.00  0.00    +0.000 HD
ENDBRANCH  29  32
ENDBRANCH  24  26
ENDBRANCH  23  24
ENDBRANCH   4  23
TORSDOF 7
ENDMDL
MODEL 8
REMARK VINA RESULT:    -6.746      3.520      8.983
REMARK INTER + INTRA:         -10.627
REMARK INTER:                  -9.159
REMARK INTRA:                  -1.468
REMARK UNBOUND:                -1.318
REMARK  Name = 
REMARK  8 active torsions:
REMARK  status: ('A' for Active; 'I' for Inactive)
REMARK    1  A    between atoms: C_1  and  N_2
REMARK    2  A    between atoms: N_2  and  C_3
REMARK    3  A    between atoms: C_3  and  C_4
REMARK    4  A    between atoms: C_7  and  C_8
REMARK    5  A    between atoms: C_8  and  N_9
REMARK    6  A    between atoms: N_9  and  C_10
REMARK    7  A    between atoms: C_13  and  N_14
REMARK    8  A    between atoms: C_19  and  C_21
REMARK                            x       y       z     vdW  Elec       q    Type
REMARK                         _______ _______ _______ _____ _____    ______ ____
ROOT
ATOM      1  C   UNL     1      47.525   5.808  13.803  0.00  0.00    +0.000 A 
ATOM      2  C   UNL     1      46.908   4.701  14.401  0.00  0.00    +0.000 A 
ATOM      3  C   UNL     1      47.147   4.394  15.747  0.00  0.00    +0.000 A 
ATOM      4  C   UNL     1      47.998   5.198  16.514  0.00  0.00    +0.000 A 
ATOM      5  C   UNL     1      48.631   6.291  15.901  0.00  0.00    +0.000 A 
ATOM      6  C   UNL     1      48.395   6.595  14.558  0.00  0.00    +0.000 A 
ENDROOT
BRANCH   1   7
ATOM      7  C   UNL     1      47.282   6.111  12.346  0.00  0.00    +0.000 C 
BRANCH   7   9
ATOM      8  C   UNL     1      46.459   8.496  12.136  0.00  0.00    +0.000 C 
ATOM      9  N   UNL     1      46.234   7.063  11.974  0.00  0.00    +0.000 N 
ATOM     10  C   UNL     1      44.911   6.679  11.661  0.00  0.00    +0.000 C 
ATOM     11  O   UNL     1      44.026   7.520  11.518  0.00  0.00    +0.000 OA
BRANCH  10  12
ATOM     12  C   UNL     1      44.572   5.246  11.518  0.00  0.00    +0.000 A 
ATOM     13  C   UNL     1      43.798   4.508  12.399  0.00  0.00    +0.000 A 
ATOM     14  S   UNL     1      43.569   2.881  11.938  0.00  0.00    +0.000 S 
ATOM     15  C   UNL     1      44.337   3.150  10.448  0.00  0.00    +0.000 A 
ATOM     16  N   UNL     1      44.376   2.172   9.507  0.00  0.00    +0.000 NA
ATOM     17  C   UNL     1      44.928   2.535   8.395  0.00  0.00    +0.000 A 
ATOM     18  N   UNL     1      45.466   3.775   8.159  0.00  0.00    +0.000 N 
ATOM     19  C   UNL     1      45.568   4.749   9.132  0.00  0.00    +0.000 A 
ATOM     20  O   UNL     1      46.258   5.741   8.949  0.00  0.00    +0.000 OA
ATOM     21  C   UNL     1      44.856   4.430  10.357  0.00  0.00    +0.000 A 
ATOM     22  H   UNL     1      45.937   3.969   7.290  0.00  0.00    +0.000 HD
ENDBRANCH  10  12
ENDBRANCH   7   9
ENDBRANCH   1   7
BRANCH   4  23
ATOM     23  C   UNL     1      48.116   4.994  18.009  0.00  0.00    +0.000 C 
BRANCH  23  24
ATOM     24  N   UNL     1      49.004   3.890  18.373  0.00  0.00    +0.000 NA
ATOM     25  H   UNL     1      49.055   3.247  17.580  0.00  0.00    +0.000 HD
BRANCH  24  26
ATOM     26  C   UNL     1      50.364   4.334  18.733  0.00  0.00    +0.000 C 
ATOM     27  C   UNL     1      51.342   4.257  17.546  0.00  0.00    +0.000 C 
ATOM     28  C   UNL     1      52.700   4.885  17.858  0.00  0.00    +0.000 C 
ATOM     29  C   UNL     1      52.542   6.333  18.320  0.00  0.00    +0.000 C 
ATOM     30  C   UNL     1      51.634   6.398  19.551  0.00  0.00    +0.000 C 
ATOM     31  C   UNL     1      50.266   5.777  19.262  0.00  0.00    +0.000 C 
BRANCH  29  32
ATOM     32  N   UNL     1      53.855   6.910  18.601  0.00  0.00    +0.000 NA
ATOM     33  H   UNL     1      53.790   7.925  18.668  0.00  0.00    +0.000 HD
ATOM     34  H   UNL     1      54.492   6.714  17.831  0.00  0.00    +0.000 HD
ENDBRANCH  29  32
ENDBRANCH  24  26
ENDBRANCH  23  24
ENDBRANCH   4  23
TORSDOF 7
ENDMDL
MODEL 9
REMARK VINA RESULT:    -6.562      4.171      7.996
REMARK INTER + INTRA:         -10.373
REMARK INTER:                  -9.020
REMARK INTRA:                  -1.354
REMARK UNBOUND:                -1.318
REMARK  Name = 
REMARK  8 active torsions:
REMARK  status: ('A' for Active; 'I' for Inactive)
REMARK    1  A    between atoms: C_1  and  N_2
REMARK    2  A    between atoms: N_2  and  C_3
REMARK    3  A    between atoms: C_3  and  C_4
REMARK    4  A    between atoms: C_7  and  C_8
REMARK    5  A    between atoms: C_8  and  N_9
REMARK    6  A    between atoms: N_9  and  C_10
REMARK    7  A    between atoms: C_13  and  N_14
REMARK    8  A    between atoms: C_19  and  C_21
REMARK                            x       y       z     vdW  Elec       q    Type
REMARK                         _______ _______ _______ _____ _____    ______ ____
ROOT
ATOM      1  C   UNL     1      47.757   7.039  12.625  0.00  0.00    +0.000 A 
ATOM      2  C   UNL     1      48.485   7.202  13.811  0.00  0.00    +0.000 A 
ATOM      3  C   UNL     1      49.804   7.674  13.777  0.00  0.00    +0.000 A 
ATOM      4  C   UNL     1      50.406   7.999  12.555  0.00  0.00    +0.000 A 
ATOM      5  C   UNL     1      49.678   7.810  11.371  0.00  0.00    +0.000 A 
ATOM      6  C   UNL     1      48.364   7.336  11.405  0.00  0.00    +0.000 A 
ENDROOT
BRANCH   1   7
ATOM      7  C   UNL     1      46.348   6.503  12.673  0.00  0.00    +0.000 C 
BRANCH   7   9
ATOM      8  C   UNL     1      45.230   8.708  12.130  0.00  0.00    +0.000 C 
ATOM      9  N   UNL     1      45.270   7.253  12.026  0.00  0.00    +0.000 N 
ATOM     10  C   UNL     1      44.122   6.644  11.474  0.00  0.00    +0.000 C 
ATOM     11  O   UNL     1      43.169   7.320  11.092  0.00  0.00    +0.000 OA
BRANCH  10  12
ATOM     12  C   UNL     1      44.047   5.170  11.365  0.00  0.00    +0.000 A 
ATOM     13  C   UNL     1      43.278   4.340  12.163  0.00  0.00    +0.000 A 
ATOM     14  S   UNL     1      43.391   2.683  11.768  0.00  0.00    +0.000 S 
ATOM     15  C   UNL     1      44.325   3.031  10.393  0.00  0.00    +0.000 A 
ATOM     16  N   UNL     1      44.668   2.045   9.526  0.00  0.00    +0.000 NA
ATOM     17  C   UNL     1      45.318   2.461   8.488  0.00  0.00    +0.000 A 
ATOM     18  N   UNL     1      45.676   3.766   8.263  0.00  0.00    +0.000 N 
ATOM     19  C   UNL     1      45.467   4.774   9.183  0.00  0.00    +0.000 A 
ATOM     20  O   UNL     1      46.005   5.863   9.046  0.00  0.00    +0.000 OA
ATOM     21  C   UNL     1      44.636   4.377  10.306  0.00  0.00    +0.000 A 
ATOM     22  H   UNL     1      46.238   4.010   7.463  0.00  0.00    +0.000 HD
ENDBRANCH  10  12
ENDBRANCH   7   9
ENDBRANCH   1   7
BRANCH   4  23
ATOM     23  C   UNL     1      51.753   8.687  12.516  0.00  0.00    +0.000 C 
BRANCH  23  24
ATOM     24  N   UNL     1      52.868   7.763  12.307  0.00  0.00    +0.000 NA
ATOM     25  H   UNL     1      52.544   6.818  12.521  0.00  0.00    +0.000 HD
BRANCH  24  26
ATOM     26  C   UNL     1      53.400   7.799  10.932  0.00  0.00    +0.000 C 
ATOM     27  C   UNL     1      52.899   6.620  10.075  0.00  0.00    +0.000 C 
ATOM     28  C   UNL     1      53.295   6.749   8.605  0.00  0.00    +0.000 C 
ATOM     29  C   UNL     1      52.806   8.073   8.018  0.00  0.00    +0.000 C 
ATOM     30  C   UNL     1      53.373   9.247   8.822  0.00  0.00    +0.000 C 
ATOM     31  C   UNL     1      52.987   9.141  10.299  0.00  0.00    +0.000 C 
BRANCH  29  32
ATOM     32  N   UNL     1      53.190   8.163   6.611  0.00  0.00    +0.000 NA
ATOM     33  H   UNL     1      52.394   7.949   6.011  0.00  0.00    +0.000 HD
ATOM     34  H   UNL     1      53.903   7.466   6.400  0.00  0.00    +0.000 HD
ENDBRANCH  29  32
ENDBRANCH  24  26
ENDBRANCH  23  24
ENDBRANCH   4  23
TORSDOF 7
ENDMDL
