MODEL 1
REMARK VINA RESULT:    -9.500      0.000      0.000
REMARK INTER + INTRA:         -12.764
REMARK INTER:                 -12.277
REMARK INTRA:                  -0.487
REMARK UNBOUND:                -0.487
REMARK  Name = 
REMARK  6 active torsions:
REMARK  status: ('A' for Active; 'I' for Inactive)
REMARK    1  A    between atoms: C_1  and  C_2
REMARK    2  A    between atoms: C_2  and  N_3
REMARK    3  A    between atoms: C_2  and  C_16
REMARK    4  A    between atoms: C_4  and  C_6
REMARK    5  A    between atoms: C_19  and  O_20
REMARK    6  A    between atoms: O_20  and  C_21
REMARK                            x       y       z     vdW  Elec       q    Type
REMARK                         _______ _______ _______ _____ _____    ______ ____
ROOT
ATOM      1  C   UNL     1      43.173   5.407  13.257  0.00  0.00    +0.000 C 
ATOM      2  C   UNL     1      44.437   4.581  12.996  0.00  0.00    +0.000 C 
ENDROOT
BRANCH   2   3
ATOM      3  C   UNL     1      44.763   4.405  11.523  0.00  0.00    +0.000 A 
ATOM      4  C   UNL     1      44.361   3.227  10.876  0.00  0.00    +0.000 A 
ATOM      5  C   UNL     1      44.587   3.051   9.510  0.00  0.00    +0.000 A 
ATOM      6  C   UNL     1      45.163   4.077   8.760  0.00  0.00    +0.000 A 
ATOM      7  C   UNL     1      45.666   5.202   9.409  0.00  0.00    +0.000 A 
ATOM      8  C   UNL     1      45.481   5.358  10.785  0.00  0.00    +0.000 A 
BRANCH   6   9
ATOM      9  O   UNL     1      45.315   4.042   7.394  0.00  0.00    +0.000 OA
BRANCH   9  10
ATOM     10  C   UNL     1      46.305   3.260   6.841  0.00  0.00    +0.000 A 
ATOM     11  C   UNL     1      46.833   3.428   5.561  0.00  0.00    +0.000 A 
ATOM     12  C   UNL     1      47.770   2.511   5.119  0.00  0.00    +0.000 A 
ATOM     13  N   UNL     1      48.248   1.503   5.877  0.00  0.00    +0.000 NA
ATOM     14  C   UNL     1      47.775   1.414   7.138  0.00  0.00    +0.000 A 
ATOM     15  C   UNL     1      46.815   2.262   7.662  0.00  0.00    +0.000 A 
ENDBRANCH   9  10
ENDBRANCH   6   9
ENDBRANCH   2   3
BRANCH   2  16
ATOM     16  N   UNL     1      45.571   5.178  13.665  0.00  0.00    +0.000 N 
ATOM     17  C   UNL     1      46.588   4.429  14.192  0.00  0.00    +0.000 C 
ATOM     18  O   UNL     1      46.742   3.242  13.936  0.00  0.00    +0.000 OA
ATOM     19  H   UNL     1      45.423   6.125  14.008  0.00  0.00    +0.000 HD
BRANCH  17  20
ATOM     20  C   UNL     1      47.506   5.146  15.085  0.00  0.00    +0.000 A 
ATOM     21  C   UNL     1      48.235   6.229  14.617  0.00  0.00    +0.000 A 
ATOM     22  S   UNL     1      49.305   6.875  15.780  0.00  0.00    +0.000 S 
ATOM     23  C   UNL     1      48.865   5.694  16.924  0.00  0.00    +0.000 A 
ATOM     24  N   UNL     1      49.483   5.621  18.134  0.00  0.00    +0.000 NA
ATOM     25  C   UNL     1      49.079   4.648  18.881  0.00  0.00    +0.000 A 
ATOM     26  N   UNL     1      48.090   3.761  18.544  0.00  0.00    +0.000 N 
ATOM     27  C   UNL     1      47.384   3.846  17.369  0.00  0.00    +0.000 A 
ATOM     28  O   UNL     1      46.414   3.126  17.160  0.00  0.00    +0.000 OA
ATOM     29  C   UNL     1      47.859   4.868  16.455  0.00  0.00    +0.000 A 
ATOM     30  H   UNL     1      47.787   3.054  19.197  0.00  0.00    +0.000 HD
ENDBRANCH  17  20
ENDBRANCH   2  16
TORSDOF 5
ENDMDL
MODEL 2
REMARK VINA RESULT:    -8.939      1.598      2.497
REMARK INTER + INTRA:         -12.039
REMARK INTER:                 -11.165
REMARK INTRA:                  -0.874
REMARK UNBOUND:                -0.487
REMARK  Name = 
REMARK  6 active torsions:
REMARK  status: ('A' for Active; 'I' for Inactive)
REMARK    1  A    between atoms: C_1  and  C_2
REMARK    2  A    between atoms: C_2  and  N_3
REMARK    3  A    between atoms: C_2  and  C_16
REMARK    4  A    between atoms: C_4  and  C_6
REMARK    5  A    between atoms: C_19  and  O_20
REMARK    6  A    between atoms: O_20  and  C_21
REMARK                            x       y       z     vdW  Elec       q    Type
REMARK                         _______ _______ _______ _____ _____    ______ ____
ROOT
ATOM      1  C   UNL     1      42.920   5.510  13.005  0.00  0.00    +0.000 C 
ATOM      2  C   UNL     1      44.113   4.566  12.822  0.00  0.00    +0.000 C 
ENDROOT
BRANCH   2   3
ATOM      3  C   UNL     1      44.428   4.246  11.371  0.00  0.00    +0.000 A 
ATOM      4  C   UNL     1      44.055   2.995  10.856  0.00  0.00    +0.000 A 
ATOM      5  C   UNL     1      44.271   2.684   9.513  0.00  0.00    +0.000 A 
ATOM      6  C   UNL     1      44.808   3.641   8.653  0.00  0.00    +0.000 A 
ATOM      7  C   UNL     1      45.283   4.842   9.173  0.00  0.00    +0.000 A 
ATOM      8  C   UNL     1      45.109   5.137  10.527  0.00  0.00    +0.000 A 
BRANCH   6   9
ATOM      9  O   UNL     1      44.945   3.469   7.295  0.00  0.00    +0.000 OA
BRANCH   9  10
ATOM     10  C   UNL     1      46.096   2.898   6.797  0.00  0.00    +0.000 A 
ATOM     11  C   UNL     1      46.699   3.243   5.588  0.00  0.00    +0.000 A 
ATOM     12  C   UNL     1      47.810   2.523   5.187  0.00  0.00    +0.000 A 
ATOM     13  N   UNL     1      48.380   1.549   5.927  0.00  0.00    +0.000 NA
ATOM     14  C   UNL     1      47.819   1.292   7.128  0.00  0.00    +0.000 A 
ATOM     15  C   UNL     1      46.690   1.934   7.604  0.00  0.00    +0.000 A 
ENDBRANCH   9  10
ENDBRANCH   6   9
ENDBRANCH   2   3
BRANCH   2  16
ATOM     16  N   UNL     1      45.290   5.119  13.452  0.00  0.00    +0.000 N 
ATOM     17  C   UNL     1      46.336   4.340  13.867  0.00  0.00    +0.000 C 
ATOM     18  O   UNL     1      46.468   3.171  13.530  0.00  0.00    +0.000 OA
ATOM     19  H   UNL     1      45.169   6.044  13.861  0.00  0.00    +0.000 HD
BRANCH  17  20
ATOM     20  C   UNL     1      47.312   5.001  14.741  0.00  0.00    +0.000 A 
ATOM     21  C   UNL     1      47.520   4.541  16.032  0.00  0.00    +0.000 A 
ATOM     22  S   UNL     1      48.631   5.489  16.916  0.00  0.00    +0.000 S 
ATOM     23  C   UNL     1      48.824   6.574  15.618  0.00  0.00    +0.000 A 
ATOM     24  N   UNL     1      49.590   7.690  15.742  0.00  0.00    +0.000 NA
ATOM     25  C   UNL     1      49.609   8.444  14.693  0.00  0.00    +0.000 A 
ATOM     26  N   UNL     1      48.958   8.167  13.519  0.00  0.00    +0.000 N 
ATOM     27  C   UNL     1      48.240   7.013  13.321  0.00  0.00    +0.000 A 
ATOM     28  O   UNL     1      47.788   6.730  12.217  0.00  0.00    +0.000 OA
ATOM     29  C   UNL     1      48.114   6.174  14.499  0.00  0.00    +0.000 A 
ATOM     30  H   UNL     1      49.056   8.774  12.719  0.00  0.00    +0.000 HD
ENDBRANCH  17  20
ENDBRANCH   2  16
TORSDOF 5
ENDMDL
MODEL 3
REMARK VINA RESULT:    -7.821      2.318      3.497
REMARK INTER + INTRA:         -10.593
REMARK INTER:                  -9.323
REMARK INTRA:                  -1.270
REMARK UNBOUND:                -0.487
REMARK  Name = 
REMARK  6 active torsions:
REMARK  status: ('A' for Active; 'I' for Inactive)
REMARK    1  A    between atoms: C_1  and  C_2
REMARK    2  A    between atoms: C_2  and  N_3
REMARK    3  A    between atoms: C_2  and  C_16
REMARK    4  A    between atoms: C_4  and  C_6
REMARK    5  A    between atoms: C_19  and  O_20
REMARK    6  A    between atoms: O_20  and  C_21
REMARK                            x       y       z     vdW  Elec       q    Type
REMARK                         _______ _______ _______ _____ _____    ______ ____
ROOT
ATOM      1  C   UNL     1      48.537   8.508  12.794  0.00  0.00    +0.000 C 
ATOM      2  C   UNL     1      47.521   7.758  13.664  0.00  0.00    +0.000 C 
ENDROOT
BRANCH   2   3
ATOM      3  C   UNL     1      46.529   6.925  12.871  0.00  0.00    +0.000 A 
ATOM      4  C   UNL     1      45.611   7.579  12.035  0.00  0.00    +0.000 A 
ATOM      5  C   UNL     1      44.723   6.849  11.243  0.00  0.00    +0.000 A 
ATOM      6  C   UNL     1      44.782   5.455  11.232  0.00  0.00    +0.000 A 
ATOM      7  C   UNL     1      45.610   4.796  12.137  0.00  0.00    +0.000 A 
ATOM      8  C   UNL     1      46.467   5.526  12.963  0.00  0.00    +0.000 A 
BRANCH   6   9
ATOM      9  O   UNL     1      44.033   4.658  10.399  0.00  0.00    +0.000 OA
BRANCH   9  10
ATOM     10  C   UNL     1      44.668   3.782   9.547  0.00  0.00    +0.000 A 
ATOM     11  C   UNL     1      44.595   2.392   9.631  0.00  0.00    +0.000 A 
ATOM     12  C   UNL     1      45.354   1.645   8.748  0.00  0.00    +0.000 A 
ATOM     13  N   UNL     1      46.111   2.184   7.769  0.00  0.00    +0.000 NA
ATOM     14  C   UNL     1      46.099   3.530   7.663  0.00  0.00    +0.000 A 
ATOM     15  C   UNL     1      45.399   4.363   8.517  0.00  0.00    +0.000 A 
ENDBRANCH   9  10
ENDBRANCH   6   9
ENDBRANCH   2   3
BRANCH   2  16
ATOM     16  N   UNL     1      48.206   6.907  14.611  0.00  0.00    +0.000 N 
ATOM     17  C   UNL     1      48.694   7.377  15.800  0.00  0.00    +0.000 C 
ATOM     18  O   UNL     1      48.388   8.470  16.258  0.00  0.00    +0.000 OA
ATOM     19  H   UNL     1      48.589   6.047  14.223  0.00  0.00    +0.000 HD
BRANCH  17  20
ATOM     20  C   UNL     1      49.608   6.476  16.510  0.00  0.00    +0.000 A 
ATOM     21  C   UNL     1      50.864   6.916  16.899  0.00  0.00    +0.000 A 
ATOM     22  S   UNL     1      51.807   5.699  17.637  0.00  0.00    +0.000 S 
ATOM     23  C   UNL     1      50.586   4.535  17.409  0.00  0.00    +0.000 A 
ATOM     24  N   UNL     1      50.783   3.232  17.745  0.00  0.00    +0.000 NA
ATOM     25  C   UNL     1      49.788   2.454  17.474  0.00  0.00    +0.000 A 
ATOM     26  N   UNL     1      48.600   2.865  16.928  0.00  0.00    +0.000 N 
ATOM     27  C   UNL     1      48.326   4.181  16.648  0.00  0.00    +0.000 A 
ATOM     28  O   UNL     1      47.207   4.533  16.293  0.00  0.00    +0.000 OA
ATOM     29  C   UNL     1      49.445   5.084  16.851  0.00  0.00    +0.000 A 
ATOM     30  H   UNL     1      47.843   2.213  16.789  0.00  0.00    +0.000 HD
ENDBRANCH  17  20
ENDBRANCH   2  16
TORSDOF 5
ENDMDL
MODEL 4
REMARK VINA RESULT:    -7.395      2.541      3.885
REMARK INTER + INTRA:         -10.043
REMARK INTER:                  -9.086
REMARK INTRA:                  -0.957
REMARK UNBOUND:                -0.487
REMARK  Name = 
REMARK  6 active torsions:
REMARK  status: ('A' for Active; 'I' for Inactive)
REMARK    1  A    between atoms: C_1  and  C_2
REMARK    2  A    between atoms: C_2  and  N_3
REMARK    3  A    between atoms: C_2  and  C_16
REMARK    4  A    between atoms: C_4  and  C_6
REMARK    5  A    between atoms: C_19  and  O_20
REMARK    6  A    between atoms: O_20  and  C_21
REMARK                            x       y       z     vdW  Elec       q    Type
REMARK                         _______ _______ _______ _____ _____    ______ ____
ROOT
ATOM      1  C   UNL     1      49.417   7.526  13.196  0.00  0.00    +0.000 C 
ATOM      2  C   UNL     1      48.089   7.379  13.947  0.00  0.00    +0.000 C 
ENDROOT
BRANCH   2   3
ATOM      3  C   UNL     1      47.005   6.679  13.147  0.00  0.00    +0.000 A 
ATOM      4  C   UNL     1      46.251   7.425  12.229  0.00  0.00    +0.000 A 
ATOM      5  C   UNL     1      45.286   6.810  11.430  0.00  0.00    +0.000 A 
ATOM      6  C   UNL     1      45.105   5.428  11.496  0.00  0.00    +0.000 A 
ATOM      7  C   UNL     1      45.766   4.695  12.478  0.00  0.00    +0.000 A 
ATOM      8  C   UNL     1      46.699   5.319  13.309  0.00  0.00    +0.000 A 
BRANCH   6   9
ATOM      9  O   UNL     1      44.267   4.719  10.666  0.00  0.00    +0.000 OA
BRANCH   9  10
ATOM     10  C   UNL     1      44.805   3.866   9.728  0.00  0.00    +0.000 A 
ATOM     11  C   UNL     1      44.676   2.477   9.745  0.00  0.00    +0.000 A 
ATOM     12  C   UNL     1      45.341   1.751   8.773  0.00  0.00    +0.000 A 
ATOM     13  N   UNL     1      46.054   2.311   7.774  0.00  0.00    +0.000 NA
ATOM     14  C   UNL     1      46.094   3.660   7.740  0.00  0.00    +0.000 A 
ATOM     15  C   UNL     1      45.491   4.473   8.682  0.00  0.00    +0.000 A 
ENDBRANCH   9  10
ENDBRANCH   6   9
ENDBRANCH   2   3
BRANCH   2  16
ATOM     16  N   UNL     1      48.294   6.670  15.190  0.00  0.00    +0.000 N 
ATOM     17  C   UNL     1      48.886   7.253  16.277  0.00  0.00    +0.000 C 
ATOM     18  O   UNL     1      49.066   8.460  16.369  0.00  0.00    +0.000 OA
ATOM     19  H   UNL     1      48.282   5.655  15.118  0.00  0.00    +0.000 HD
BRANCH  17  20
ATOM     20  C   UNL     1      49.286   6.335  17.349  0.00  0.00    +0.000 A 
ATOM     21  C   UNL     1      50.270   5.384  17.127  0.00  0.00    +0.000 A 
ATOM     22  S   UNL     1      50.535   4.359  18.467  0.00  0.00    +0.000 S 
ATOM     23  C   UNL     1      49.305   5.122  19.364  0.00  0.00    +0.000 A 
ATOM     24  N   UNL     1      48.948   4.667  20.595  0.00  0.00    +0.000 NA
ATOM     25  C   UNL     1      47.970   5.313  21.139  0.00  0.00    +0.000 A 
ATOM     26  N   UNL     1      47.339   6.394  20.580  0.00  0.00    +0.000 N 
ATOM     27  C   UNL     1      47.720   6.937  19.377  0.00  0.00    +0.000 A 
ATOM     28  O   UNL     1      47.229   7.984  18.972  0.00  0.00    +0.000 OA
ATOM     29  C   UNL     1      48.755   6.193  18.683  0.00  0.00    +0.000 A 
ATOM     30  H   UNL     1      46.615   6.885  21.082  0.00  0.00    +0.000 HD
ENDBRANCH  17  20
ENDBRANCH   2  16
TORSDOF 5
ENDMDL
MODEL 5
REMARK VINA RESULT:    -7.271      2.617      3.908
REMARK INTER + INTRA:          -9.883
REMARK INTER:                  -8.903
REMARK INTRA:                  -0.980
REMARK UNBOUND:                -0.487
REMARK  Name = 
REMARK  6 active torsions:
REMARK  status: ('A' for Active; 'I' for Inactive)
REMARK    1  A    between atoms: C_1  and  C_2
REMARK    2  A    between atoms: C_2  and  N_3
REMARK    3  A    between atoms: C_2  and  C_16
REMARK    4  A    between atoms: C_4  and  C_6
REMARK    5  A    between atoms: C_19  and  O_20
REMARK    6  A    between atoms: O_20  and  C_21
REMARK                            x       y       z     vdW  Elec       q    Type
REMARK                         _______ _______ _______ _____ _____    ______ ____
ROOT
ATOM      1  C   UNL     1      49.414   7.546  13.131  0.00  0.00    +0.000 C 
ATOM      2  C   UNL     1      48.000   7.955  13.556  0.00  0.00    +0.000 C 
ENDROOT
BRANCH   2   3
ATOM      3  C   UNL     1      46.898   7.181  12.853  0.00  0.00    +0.000 A 
ATOM      4  C   UNL     1      45.961   7.886  12.082  0.00  0.00    +0.000 A 
ATOM      5  C   UNL     1      44.970   7.209  11.370  0.00  0.00    +0.000 A 
ATOM      6  C   UNL     1      44.940   5.814  11.371  0.00  0.00    +0.000 A 
ATOM      7  C   UNL     1      45.793   5.110  12.216  0.00  0.00    +0.000 A 
ATOM      8  C   UNL     1      46.756   5.790  12.965  0.00  0.00    +0.000 A 
BRANCH   6   9
ATOM      9  O   UNL     1      44.079   5.060  10.607  0.00  0.00    +0.000 OA
BRANCH   9  10
ATOM     10  C   UNL     1      44.587   4.090   9.771  0.00  0.00    +0.000 A 
ATOM     11  C   UNL     1      44.334   2.724   9.887  0.00  0.00    +0.000 A 
ATOM     12  C   UNL     1      44.981   1.866   9.016  0.00  0.00    +0.000 A 
ATOM     13  N   UNL     1      45.793   2.280   8.020  0.00  0.00    +0.000 NA
ATOM     14  C   UNL     1      45.955   3.614   7.884  0.00  0.00    +0.000 A 
ATOM     15  C   UNL     1      45.378   4.549   8.724  0.00  0.00    +0.000 A 
ENDBRANCH   9  10
ENDBRANCH   6   9
ENDBRANCH   2   3
BRANCH   2  16
ATOM     16  N   UNL     1      47.845   7.806  14.986  0.00  0.00    +0.000 N 
ATOM     17  C   UNL     1      48.617   8.494  15.882  0.00  0.00    +0.000 C 
ATOM     18  O   UNL     1      49.317   9.446  15.564  0.00  0.00    +0.000 OA
ATOM     19  H   UNL     1      47.380   6.952  15.285  0.00  0.00    +0.000 HD
BRANCH  17  20
ATOM     20  C   UNL     1      48.545   8.026  17.270  0.00  0.00    +0.000 A 
ATOM     21  C   UNL     1      48.422   8.934  18.311  0.00  0.00    +0.000 A 
ATOM     22  S   UNL     1      48.438   8.201  19.853  0.00  0.00    +0.000 S 
ATOM     23  C   UNL     1      48.666   6.655  19.178  0.00  0.00    +0.000 A 
ATOM     24  N   UNL     1      48.851   5.563  19.967  0.00  0.00    +0.000 NA
ATOM     25  C   UNL     1      49.057   4.465  19.318  0.00  0.00    +0.000 A 
ATOM     26  N   UNL     1      49.061   4.352  17.952  0.00  0.00    +0.000 N 
ATOM     27  C   UNL     1      48.799   5.411  17.118  0.00  0.00    +0.000 A 
ATOM     28  O   UNL     1      48.672   5.248  15.910  0.00  0.00    +0.000 OA
ATOM     29  C   UNL     1      48.649   6.686  17.795  0.00  0.00    +0.000 A 
ATOM     30  H   UNL     1      49.178   3.453  17.509  0.00  0.00    +0.000 HD
ENDBRANCH  17  20
ENDBRANCH   2  16
TORSDOF 5
ENDMDL
MODEL 6
REMARK VINA RESULT:    -7.255      3.422      5.294
REMARK INTER + INTRA:          -9.862
REMARK INTER:                  -8.840
REMARK INTRA:                  -1.023
REMARK UNBOUND:                -0.487
REMARK  Name = 
REMARK  6 active torsions:
REMARK  status: ('A' for Active; 'I' for Inactive)
REMARK    1  A    between atoms: C_1  and  C_2
REMARK    2  A    between atoms: C_2  and  N_3
REMARK    3  A    between atoms: C_2  and  C_16
REMARK    4  A    between atoms: C_4  and  C_6
REMARK    5  A    between atoms: C_19  and  O_20
REMARK    6  A    between atoms: O_20  and  C_21
REMARK                            x       y       z     vdW  Elec       q    Type
REMARK                         _______ _______ _______ _____ _____    ______ ____
ROOT
ATOM      1  C   UNL     1      50.186   8.843  15.277  0.00  0.00    +0.000 C 
ATOM      2  C   UNL     1      49.286   7.621  15.493  0.00  0.00    +0.000 C 
ENDROOT
BRANCH   2   3
ATOM      3  C   UNL     1      48.546   7.173  14.245  0.00  0.00    +0.000 A 
ATOM      4  C   UNL     1      47.747   6.021  14.307  0.00  0.00    +0.000 A 
ATOM      5  C   UNL     1      47.003   5.609  13.201  0.00  0.00    +0.000 A 
ATOM      6  C   UNL     1      46.999   6.378  12.037  0.00  0.00    +0.000 A 
ATOM      7  C   UNL     1      47.870   7.458  11.926  0.00  0.00    +0.000 A 
ATOM      8  C   UNL     1      48.651   7.844  13.017  0.00  0.00    +0.000 A 
BRANCH   6   9
ATOM      9  O   UNL     1      46.207   6.118  10.943  0.00  0.00    +0.000 OA
BRANCH   9  10
ATOM     10  C   UNL     1      45.082   5.336  11.091  0.00  0.00    +0.000 A 
ATOM     11  C   UNL     1      43.884   5.761  11.663  0.00  0.00    +0.000 A 
ATOM     12  C   UNL     1      42.868   4.834  11.811  0.00  0.00    +0.000 A 
ATOM     13  N   UNL     1      42.948   3.559  11.377  0.00  0.00    +0.000 NA
ATOM     14  C   UNL     1      44.092   3.199  10.757  0.00  0.00    +0.000 A 
ATOM     15  C   UNL     1      45.175   4.043  10.589  0.00  0.00    +0.000 A 
ENDBRANCH   9  10
ENDBRANCH   6   9
ENDBRANCH   2   3
BRANCH   2  16
ATOM     16  N   UNL     1      50.061   6.515  16.008  0.00  0.00    +0.000 N 
ATOM     17  C   UNL     1      49.819   5.957  17.234  0.00  0.00    +0.000 C 
ATOM     18  O   UNL     1      48.801   6.180  17.876  0.00  0.00    +0.000 OA
ATOM     19  H   UNL     1      50.976   6.389  15.578  0.00  0.00    +0.000 HD
BRANCH  17  20
ATOM     20  C   UNL     1      50.860   5.053  17.736  0.00  0.00    +0.000 A 
ATOM     21  C   UNL     1      51.971   5.559  18.392  0.00  0.00    +0.000 A 
ATOM     22  S   UNL     1      53.105   4.358  18.825  0.00  0.00    +0.000 S 
ATOM     23  C   UNL     1      52.170   3.134  18.101  0.00  0.00    +0.000 A 
ATOM     24  N   UNL     1      52.617   1.851  18.038  0.00  0.00    +0.000 NA
ATOM     25  C   UNL     1      51.824   1.040  17.421  0.00  0.00    +0.000 A 
ATOM     26  N   UNL     1      50.609   1.386  16.888  0.00  0.00    +0.000 N 
ATOM     27  C   UNL     1      50.082   2.649  16.998  0.00  0.00    +0.000 A 
ATOM     28  O   UNL     1      48.936   2.891  16.637  0.00  0.00    +0.000 OA
ATOM     29  C   UNL     1      50.973   3.621  17.606  0.00  0.00    +0.000 A 
ATOM     30  H   UNL     1      50.015   0.690  16.463  0.00  0.00    +0.000 HD
ENDBRANCH  17  20
ENDBRANCH   2  16
TORSDOF 5
ENDMDL
MODEL 7
REMARK VINA RESULT:    -7.208      2.834      3.917
REMARK INTER + INTRA:          -9.801
REMARK INTER:                  -8.807
REMARK INTRA:                  -0.994
REMARK UNBOUND:                -0.487
REMARK  Name = 
REMARK  6 active torsions:
REMARK  status: ('A' for Active; 'I' for Inactive)
REMARK    1  A    between atoms: C_1  and  C_2
REMARK    2  A    between atoms: C_2  and  N_3
REMARK    3  A    between atoms: C_2  and  C_16
REMARK    4  A    between atoms: C_4  and  C_6
REMARK    5  A    between atoms: C_19  and  O_20
REMARK    6  A    between atoms: O_20  and  C_21
REMARK                            x       y       z     vdW  Elec       q    Type
REMARK                         _______ _______ _______ _____ _____    ______ ____
ROOT
ATOM      1  C   UNL     1      47.351   4.025  16.356  0.00  0.00    +0.000 C 
ATOM      2  C   UNL     1      47.765   4.871  15.146  0.00  0.00    +0.000 C 
ENDROOT
BRANCH   2   3
ATOM      3  C   UNL     1      46.834   4.737  13.954  0.00  0.00    +0.000 A 
ATOM      4  C   UNL     1      46.413   5.899  13.289  0.00  0.00    +0.000 A 
ATOM      5  C   UNL     1      45.607   5.817  12.153  0.00  0.00    +0.000 A 
ATOM      6  C   UNL     1      45.260   4.570  11.631  0.00  0.00    +0.000 A 
ATOM      7  C   UNL     1      45.578   3.417  12.343  0.00  0.00    +0.000 A 
ATOM      8  C   UNL     1      46.346   3.500  13.506  0.00  0.00    +0.000 A 
BRANCH   6   9
ATOM      9  O   UNL     1      44.573   4.391  10.453  0.00  0.00    +0.000 OA
BRANCH   9  10
ATOM     10  C   UNL     1      45.131   3.626   9.453  0.00  0.00    +0.000 A 
ATOM     11  C   UNL     1      45.082   2.233   9.391  0.00  0.00    +0.000 A 
ATOM     12  C   UNL     1      45.759   1.604   8.362  0.00  0.00    +0.000 A 
ATOM     13  N   UNL     1      46.409   2.262   7.379  0.00  0.00    +0.000 NA
ATOM     14  C   UNL     1      46.372   3.610   7.423  0.00  0.00    +0.000 A 
ATOM     15  C   UNL     1      45.750   4.331   8.428  0.00  0.00    +0.000 A 
ENDBRANCH   9  10
ENDBRANCH   6   9
ENDBRANCH   2   3
BRANCH   2  16
ATOM     16  N   UNL     1      47.862   6.264  15.519  0.00  0.00    +0.000 N 
ATOM     17  C   UNL     1      49.029   6.825  15.961  0.00  0.00    +0.000 C 
ATOM     18  O   UNL     1      50.116   6.274  15.849  0.00  0.00    +0.000 OA
ATOM     19  H   UNL     1      46.978   6.714  15.748  0.00  0.00    +0.000 HD
BRANCH  17  20
ATOM     20  C   UNL     1      48.902   8.153  16.572  0.00  0.00    +0.000 A 
ATOM     21  C   UNL     1      49.386   9.275  15.917  0.00  0.00    +0.000 A 
ATOM     22  S   UNL     1      49.219  10.711  16.825  0.00  0.00    +0.000 S 
ATOM     23  C   UNL     1      48.546   9.868  18.142  0.00  0.00    +0.000 A 
ATOM     24  N   UNL     1      48.248  10.503  19.307  0.00  0.00    +0.000 NA
ATOM     25  C   UNL     1      47.787   9.730  20.233  0.00  0.00    +0.000 A 
ATOM     26  N   UNL     1      47.565   8.385  20.091  0.00  0.00    +0.000 N 
ATOM     27  C   UNL     1      47.775   7.717  18.910  0.00  0.00    +0.000 A 
ATOM     28  O   UNL     1      47.435   6.548  18.775  0.00  0.00    +0.000 OA
ATOM     29  C   UNL     1      48.377   8.523  17.863  0.00  0.00    +0.000 A 
ATOM     30  H   UNL     1      47.154   7.848  20.840  0.00  0.00    +0.000 HD
ENDBRANCH  17  20
ENDBRANCH   2  16
TORSDOF 5
ENDMDL
MODEL 8
REMARK VINA RESULT:    -7.166      2.644      4.070
REMARK INTER + INTRA:          -9.748
REMARK INTER:                  -8.575
REMARK INTRA:                  -1.172
REMARK UNBOUND:                -0.487
REMARK  Name = 
REMARK  6 active torsions:
REMARK  status: ('A' for Active; 'I' for Inactive)
REMARK    1  A    between atoms: C_1  and  C_2
REMARK    2  A    between atoms: C_2  and  N_3
REMARK    3  A    between atoms: C_2  and  C_16
REMARK    4  A    between atoms: C_4  and  C_6
REMARK    5  A    between atoms: C_19  and  O_20
REMARK    6  A    between atoms: O_20  and  C_21
REMARK                            x       y       z     vdW  Elec       q    Type
REMARK                         _______ _______ _______ _____ _____    ______ ____
ROOT
ATOM      1  C   UNL     1      49.508   7.444  13.298  0.00  0.00    +0.000 C 
ATOM      2  C   UNL     1      48.168   7.274  14.022  0.00  0.00    +0.000 C 
ENDROOT
BRANCH   2   3
ATOM      3  C   UNL     1      47.088   6.626  13.173  0.00  0.00    +0.000 A 
ATOM      4  C   UNL     1      46.434   7.400  12.202  0.00  0.00    +0.000 A 
ATOM      5  C   UNL     1      45.479   6.829  11.360  0.00  0.00    +0.000 A 
ATOM      6  C   UNL     1      45.209   5.462  11.436  0.00  0.00    +0.000 A 
ATOM      7  C   UNL     1      45.769   4.709  12.465  0.00  0.00    +0.000 A 
ATOM      8  C   UNL     1      46.690   5.291  13.339  0.00  0.00    +0.000 A 
BRANCH   6   9
ATOM      9  O   UNL     1      44.377   4.790  10.572  0.00  0.00    +0.000 OA
BRANCH   9  10
ATOM     10  C   UNL     1      44.916   3.920   9.650  0.00  0.00    +0.000 A 
ATOM     11  C   UNL     1      44.790   2.532   9.692  0.00  0.00    +0.000 A 
ATOM     12  C   UNL     1      45.456   1.789   8.735  0.00  0.00    +0.000 A 
ATOM     13  N   UNL     1      46.168   2.332   7.725  0.00  0.00    +0.000 NA
ATOM     14  C   UNL     1      46.206   3.680   7.666  0.00  0.00    +0.000 A 
ATOM     15  C   UNL     1      45.601   4.509   8.593  0.00  0.00    +0.000 A 
ENDBRANCH   9  10
ENDBRANCH   6   9
ENDBRANCH   2   3
BRANCH   2  16
ATOM     16  N   UNL     1      48.347   6.503  15.231  0.00  0.00    +0.000 N 
ATOM     17  C   UNL     1      48.577   7.088  16.447  0.00  0.00    +0.000 C 
ATOM     18  O   UNL     1      48.414   8.283  16.651  0.00  0.00    +0.000 OA
ATOM     19  H   UNL     1      48.616   5.531  15.090  0.00  0.00    +0.000 HD
BRANCH  17  20
ATOM     20  C   UNL     1      49.025   6.183  17.511  0.00  0.00    +0.000 A 
ATOM     21  C   UNL     1      48.140   5.761  18.491  0.00  0.00    +0.000 A 
ATOM     22  S   UNL     1      48.869   4.781  19.684  0.00  0.00    +0.000 S 
ATOM     23  C   UNL     1      50.400   4.936  18.956  0.00  0.00    +0.000 A 
ATOM     24  N   UNL     1      51.510   4.400  19.531  0.00  0.00    +0.000 NA
ATOM     25  C   UNL     1      52.608   4.636  18.892  0.00  0.00    +0.000 A 
ATOM     26  N   UNL     1      52.694   5.330  17.714  0.00  0.00    +0.000 N 
ATOM     27  C   UNL     1      51.592   5.819  17.056  0.00  0.00    +0.000 A 
ATOM     28  O   UNL     1      51.688   6.311  15.938  0.00  0.00    +0.000 OA
ATOM     29  C   UNL     1      50.342   5.658  17.777  0.00  0.00    +0.000 A 
ATOM     30  H   UNL     1      53.579   5.434  17.239  0.00  0.00    +0.000 HD
ENDBRANCH  17  20
ENDBRANCH   2  16
TORSDOF 5
ENDMDL
MODEL 9
REMARK VINA RESULT:    -7.100      3.981      8.755
REMARK INTER + INTRA:          -9.663
REMARK INTER:                  -9.120
REMARK INTRA:                  -0.542
REMARK UNBOUND:                -0.487
REMARK  Name = 
REMARK  6 active torsions:
REMARK  status: ('A' for Active; 'I' for Inactive)
REMARK    1  A    between atoms: C_1  and  C_2
REMARK    2  A    between atoms: C_2  and  N_3
REMARK    3  A    between atoms: C_2  and  C_16
REMARK    4  A    between atoms: C_4  and  C_6
REMARK    5  A    between atoms: C_19  and  O_20
REMARK    6  A    between atoms: O_20  and  C_21
REMARK                            x       y       z     vdW  Elec       q    Type
REMARK                         _______ _______ _______ _____ _____    ______ ____
ROOT
ATOM      1  C   UNL     1      48.293   6.814  17.858  0.00  0.00    +0.000 C 
ATOM      2  C   UNL     1      48.969   6.108  16.678  0.00  0.00    +0.000 C 
ENDROOT
BRANCH   2   3
ATOM      3  C   UNL     1      49.633   4.793  17.046  0.00  0.00    +0.000 A 
ATOM      4  C   UNL     1      48.900   3.603  16.916  0.00  0.00    +0.000 A 
ATOM      5  C   UNL     1      49.491   2.368  17.186  0.00  0.00    +0.000 A 
ATOM      6  C   UNL     1      50.842   2.302  17.530  0.00  0.00    +0.000 A 
ATOM      7  C   UNL     1      51.548   3.478  17.769  0.00  0.00    +0.000 A 
ATOM      8  C   UNL     1      50.943   4.716  17.544  0.00  0.00    +0.000 A 
BRANCH   6   9
ATOM      9  O   UNL     1      51.539   1.128  17.696  0.00  0.00    +0.000 OA
BRANCH   9  10
ATOM     10  C   UNL     1      52.916   1.151  17.695  0.00  0.00    +0.000 A 
ATOM     11  C   UNL     1      53.703   1.852  18.608  0.00  0.00    +0.000 A 
ATOM     12  C   UNL     1      55.075   1.839  18.429  0.00  0.00    +0.000 A 
ATOM     13  N   UNL     1      55.698   1.137  17.460  0.00  0.00    +0.000 NA
ATOM     14  C   UNL     1      54.913   0.405  16.640  0.00  0.00    +0.000 A 
ATOM     15  C   UNL     1      53.532   0.378  16.718  0.00  0.00    +0.000 A 
ENDBRANCH   9  10
ENDBRANCH   6   9
ENDBRANCH   2   3
BRANCH   2  16
ATOM     16  N   UNL     1      48.013   5.877  15.619  0.00  0.00    +0.000 N 
ATOM     17  C   UNL     1      48.205   6.336  14.344  0.00  0.00    +0.000 C 
ATOM     18  O   UNL     1      49.282   6.757  13.945  0.00  0.00    +0.000 OA
ATOM     19  H   UNL     1      47.069   5.654  15.928  0.00  0.00    +0.000 HD
BRANCH  17  20
ATOM     20  C   UNL     1      47.030   6.280  13.467  0.00  0.00    +0.000 A 
ATOM     21  C   UNL     1      46.460   7.448  12.985  0.00  0.00    +0.000 A 
ATOM     22  S   UNL     1      45.056   7.178  12.050  0.00  0.00    +0.000 S 
ATOM     23  C   UNL     1      45.139   5.498  12.309  0.00  0.00    +0.000 A 
ATOM     24  N   UNL     1      44.168   4.666  11.845  0.00  0.00    +0.000 NA
ATOM     25  C   UNL     1      44.337   3.424  12.154  0.00  0.00    +0.000 A 
ATOM     26  N   UNL     1      45.406   2.931  12.856  0.00  0.00    +0.000 N 
ATOM     27  C   UNL     1      46.449   3.720  13.274  0.00  0.00    +0.000 A 
ATOM     28  O   UNL     1      47.454   3.229  13.775  0.00  0.00    +0.000 OA
ATOM     29  C   UNL     1      46.264   5.139  13.029  0.00  0.00    +0.000 A 
ATOM     30  H   UNL     1      45.503   1.940  13.020  0.00  0.00    +0.000 HD
ENDBRANCH  17  20
ENDBRANCH   2  16
TORSDOF 5
ENDMDL
