MODEL 1
REMARK VINA RESULT:    -7.572      0.000      0.000
REMARK INTER + INTRA:         -11.783
REMARK INTER:                 -10.892
REMARK INTRA:                  -0.891
REMARK UNBOUND:                -0.891
REMARK  Name = 
REMARK  8 active torsions:
REMARK  status: ('A' for Active; 'I' for Inactive)
REMARK    1  A    between atoms: N_1  and  C_2
REMARK    2  A    between atoms: C_2  and  C_3
REMARK    3  A    between atoms: C_2  and  C_17
REMARK    4  A    between atoms: C_3  and  N_4
REMARK    5  A    between atoms: C_7  and  C_8
REMARK    6  A    between atoms: C_8  and  N_9
REMARK    7  A    between atoms: N_9  and  C_10
REMARK    8  A    between atoms: C_10  and  C_11
REMARK                            x       y       z     vdW  Elec       q    Type
REMARK                         _______ _______ _______ _____ _____    ______ ____
ROOT
ATOM      1  C   UNL     1      46.922   4.417  14.972  0.00  0.00    +0.000 C 
ENDROOT
BRANCH   1   2
ATOM      2  C   UNL     1      47.912   5.099  15.905  0.00  0.00    +0.000 A 
ATOM      3  C   UNL     1      48.588   6.276  15.609  0.00  0.00    +0.000 A 
ATOM      4  S   UNL     1      49.485   6.886  16.926  0.00  0.00    +0.000 S 
ATOM      5  C   UNL     1      49.021   5.586  17.922  0.00  0.00    +0.000 A 
ATOM      6  N   UNL     1      49.419   5.518  19.221  0.00  0.00    +0.000 NA
ATOM      7  C   UNL     1      49.016   4.461  19.844  0.00  0.00    +0.000 A 
ATOM      8  N   UNL     1      48.262   3.460  19.284  0.00  0.00    +0.000 N 
ATOM      9  C   UNL     1      47.814   3.495  17.981  0.00  0.00    +0.000 A 
ATOM     10  O   UNL     1      47.131   2.585  17.525  0.00  0.00    +0.000 OA
ATOM     11  C   UNL     1      48.229   4.675  17.247  0.00  0.00    +0.000 A 
ATOM     12  H   UNL     1      48.000   2.646  19.820  0.00  0.00    +0.000 HD
ENDBRANCH   1   2
BRANCH   1  13
ATOM     13  N   UNL     1      47.533   3.184  14.472  0.00  0.00    +0.000 NA
ATOM     14  H   UNL     1      47.036   2.879  13.638  0.00  0.00    +0.000 HD
ATOM     15  H   UNL     1      47.459   2.448  15.166  0.00  0.00    +0.000 HD
ENDBRANCH   1  13
BRANCH   1  16
ATOM     16  C   UNL     1      46.477   5.428  13.859  0.00  0.00    +0.000 C 
BRANCH  16  17
ATOM     17  N   UNL     1      46.175   4.906  12.512  0.00  0.00    +0.000 NA
ATOM     18  C   UNL     1      46.069   6.013  11.547  0.00  0.00    +0.000 C 
ATOM     19  C   UNL     1      44.625   6.469  11.646  0.00  0.00    +0.000 C 
ATOM     20  C   UNL     1      43.866   5.148  11.762  0.00  0.00    +0.000 C 
ATOM     21  C   UNL     1      44.875   4.203  12.442  0.00  0.00    +0.000 C 
BRANCH  20  22
ATOM     22  C   UNL     1      43.436   4.664  10.367  0.00  0.00    +0.000 C 
BRANCH  22  23
ATOM     23  N   UNL     1      44.338   3.630   9.867  0.00  0.00    +0.000 NA
ATOM     24  H   UNL     1      43.863   2.730   9.840  0.00  0.00    +0.000 HD
BRANCH  23  25
ATOM     25  C   UNL     1      44.805   3.956   8.517  0.00  0.00    +0.000 C 
BRANCH  25  26
ATOM     26  C   UNL     1      45.737   2.883   8.042  0.00  0.00    +0.000 A 
ATOM     27  C   UNL     1      45.783   1.560   8.439  0.00  0.00    +0.000 A 
ATOM     28  C   UNL     1      46.793   0.825   7.762  0.00  0.00    +0.000 A 
ATOM     29  C   UNL     1      47.494   1.610   6.876  0.00  0.00    +0.000 A 
ATOM     30  S   UNL     1      46.930   3.224   6.861  0.00  0.00    +0.000 S 
ENDBRANCH  25  26
ENDBRANCH  23  25
ENDBRANCH  22  23
ENDBRANCH  20  22
ENDBRANCH  16  17
ENDBRANCH   1  16
TORSDOF 8
ENDMDL
MODEL 2
REMARK VINA RESULT:    -7.306      1.547      2.043
REMARK INTER + INTRA:         -11.400
REMARK INTER:                 -10.428
REMARK INTRA:                  -0.972
REMARK UNBOUND:                -0.891
REMARK  Name = 
REMARK  8 active torsions:
REMARK  status: ('A' for Active; 'I' for Inactive)
REMARK    1  A    between atoms: N_1  and  C_2
REMARK    2  A    between atoms: C_2  and  C_3
REMARK    3  A    between atoms: C_2  and  C_17
REMARK    4  A    between atoms: C_3  and  N_4
REMARK    5  A    between atoms: C_7  and  C_8
REMARK    6  A    between atoms: C_8  and  N_9
REMARK    7  A    between atoms: N_9  and  C_10
REMARK    8  A    between atoms: C_10  and  C_11
REMARK                            x       y       z     vdW  Elec       q    Type
REMARK                         _______ _______ _______ _____ _____    ______ ____
ROOT
ATOM      1  C   UNL     1      48.111   6.416  13.248  0.00  0.00    +0.000 C 
ENDROOT
BRANCH   1   2
ATOM      2  C   UNL     1      48.393   6.366  14.742  0.00  0.00    +0.000 A 
ATOM      3  C   UNL     1      49.006   7.384  15.462  0.00  0.00    +0.000 A 
ATOM      4  S   UNL     1      49.015   7.107  17.145  0.00  0.00    +0.000 S 
ATOM      5  C   UNL     1      48.225   5.611  16.964  0.00  0.00    +0.000 A 
ATOM      6  N   UNL     1      47.886   4.858  18.046  0.00  0.00    +0.000 NA
ATOM      7  C   UNL     1      47.320   3.735  17.754  0.00  0.00    +0.000 A 
ATOM      8  N   UNL     1      47.073   3.289  16.480  0.00  0.00    +0.000 N 
ATOM      9  C   UNL     1      47.375   4.024  15.354  0.00  0.00    +0.000 A 
ATOM     10  O   UNL     1      47.125   3.593  14.234  0.00  0.00    +0.000 OA
ATOM     11  C   UNL     1      47.997   5.304  15.634  0.00  0.00    +0.000 A 
ATOM     12  H   UNL     1      46.649   2.387  16.319  0.00  0.00    +0.000 HD
ENDBRANCH   1   2
BRANCH   1  13
ATOM     13  N   UNL     1      49.383   6.586  12.544  0.00  0.00    +0.000 NA
ATOM     14  H   UNL     1      49.207   6.639  11.543  0.00  0.00    +0.000 HD
ATOM     15  H   UNL     1      49.989   5.790  12.712  0.00  0.00    +0.000 HD
ENDBRANCH   1  13
BRANCH   1  16
ATOM     16  C   UNL     1      47.046   7.530  12.958  0.00  0.00    +0.000 C 
BRANCH  16  17
ATOM     17  N   UNL     1      46.058   7.299  11.887  0.00  0.00    +0.000 NA
ATOM     18  C   UNL     1      44.694   7.288  12.443  0.00  0.00    +0.000 C 
ATOM     19  C   UNL     1      44.476   5.856  12.892  0.00  0.00    +0.000 C 
ATOM     20  C   UNL     1      45.117   5.051  11.761  0.00  0.00    +0.000 C 
ATOM     21  C   UNL     1      46.217   5.986  11.224  0.00  0.00    +0.000 C 
BRANCH  20  22
ATOM     22  C   UNL     1      44.060   4.698  10.703  0.00  0.00    +0.000 C 
BRANCH  22  23
ATOM     23  N   UNL     1      44.679   4.450   9.403  0.00  0.00    +0.000 NA
ATOM     24  H   UNL     1      45.673   4.665   9.438  0.00  0.00    +0.000 HD
BRANCH  23  25
ATOM     25  C   UNL     1      44.513   3.050   9.006  0.00  0.00    +0.000 C 
BRANCH  25  26
ATOM     26  C   UNL     1      45.710   2.613   8.219  0.00  0.00    +0.000 A 
ATOM     27  C   UNL     1      46.236   1.340   8.108  0.00  0.00    +0.000 A 
ATOM     28  C   UNL     1      47.374   1.294   7.258  0.00  0.00    +0.000 A 
ATOM     29  C   UNL     1      47.689   2.534   6.754  0.00  0.00    +0.000 A 
ATOM     30  S   UNL     1      46.612   3.744   7.302  0.00  0.00    +0.000 S 
ENDBRANCH  25  26
ENDBRANCH  23  25
ENDBRANCH  22  23
ENDBRANCH  20  22
ENDBRANCH  16  17
ENDBRANCH   1  16
TORSDOF 8
ENDMDL
MODEL 3
REMARK VINA RESULT:    -6.410      1.695      2.088
REMARK INTER + INTRA:         -10.111
REMARK INTER:                  -9.463
REMARK INTRA:                  -0.648
REMARK UNBOUND:                -0.891
REMARK  Name = 
REMARK  8 active torsions:
REMARK  status: ('A' for Active; 'I' for Inactive)
REMARK    1  A    between atoms: N_1  and  C_2
REMARK    2  A    between atoms: C_2  and  C_3
REMARK    3  A    between atoms: C_2  and  C_17
REMARK    4  A    between atoms: C_3  and  N_4
REMARK    5  A    between atoms: C_7  and  C_8
REMARK    6  A    between atoms: C_8  and  N_9
REMARK    7  A    between atoms: N_9  and  C_10
REMARK    8  A    between atoms: C_10  and  C_11
REMARK                            x       y       z     vdW  Elec       q    Type
REMARK                         _______ _______ _______ _____ _____    ______ ____
ROOT
ATOM      1  C   UNL     1      48.455   6.282  13.941  0.00  0.00    +0.000 C 
ENDROOT
BRANCH   1   2
ATOM      2  C   UNL     1      48.601   7.305  15.056  0.00  0.00    +0.000 A 
ATOM      3  C   UNL     1      48.423   8.674  14.896  0.00  0.00    +0.000 A 
ATOM      4  S   UNL     1      48.474   9.537  16.367  0.00  0.00    +0.000 S 
ATOM      5  C   UNL     1      48.762   8.116  17.259  0.00  0.00    +0.000 A 
ATOM      6  N   UNL     1      48.867   8.146  18.615  0.00  0.00    +0.000 NA
ATOM      7  C   UNL     1      49.114   6.998  19.153  0.00  0.00    +0.000 A 
ATOM      8  N   UNL     1      49.280   5.826  18.459  0.00  0.00    +0.000 N 
ATOM      9  C   UNL     1      49.158   5.740  17.089  0.00  0.00    +0.000 A 
ATOM     10  O   UNL     1      49.300   4.669  16.510  0.00  0.00    +0.000 OA
ATOM     11  C   UNL     1      48.862   7.003  16.442  0.00  0.00    +0.000 A 
ATOM     12  H   UNL     1      49.498   4.965  18.939  0.00  0.00    +0.000 HD
ENDBRANCH   1   2
BRANCH   1  13
ATOM     13  N   UNL     1      49.316   6.685  12.828  0.00  0.00    +0.000 NA
ATOM     14  H   UNL     1      48.745   7.113  12.101  0.00  0.00    +0.000 HD
ATOM     15  H   UNL     1      49.776   5.875  12.425  0.00  0.00    +0.000 HD
ENDBRANCH   1  13
BRANCH   1  16
ATOM     16  C   UNL     1      46.938   6.125  13.575  0.00  0.00    +0.000 C 
BRANCH  16  17
ATOM     17  N   UNL     1      46.572   5.250  12.444  0.00  0.00    +0.000 NA
ATOM     18  C   UNL     1      45.742   5.987  11.476  0.00  0.00    +0.000 C 
ATOM     19  C   UNL     1      44.325   5.836  11.994  0.00  0.00    +0.000 C 
ATOM     20  C   UNL     1      44.293   4.379  12.456  0.00  0.00    +0.000 C 
ATOM     21  C   UNL     1      45.753   4.088  12.853  0.00  0.00    +0.000 C 
BRANCH  20  22
ATOM     22  C   UNL     1      43.789   3.477  11.318  0.00  0.00    +0.000 C 
BRANCH  22  23
ATOM     23  N   UNL     1      44.902   2.919  10.555  0.00  0.00    +0.000 NA
ATOM     24  H   UNL     1      45.303   2.123  11.047  0.00  0.00    +0.000 HD
BRANCH  23  25
ATOM     25  C   UNL     1      44.456   2.478   9.231  0.00  0.00    +0.000 C 
BRANCH  25  26
ATOM     26  C   UNL     1      45.645   2.308   8.338  0.00  0.00    +0.000 A 
ATOM     27  C   UNL     1      46.367   1.155   8.093  0.00  0.00    +0.000 A 
ATOM     28  C   UNL     1      47.430   1.364   7.173  0.00  0.00    +0.000 A 
ATOM     29  C   UNL     1      47.494   2.672   6.750  0.00  0.00    +0.000 A 
ATOM     30  S   UNL     1      46.274   3.638   7.459  0.00  0.00    +0.000 S 
ENDBRANCH  25  26
ENDBRANCH  23  25
ENDBRANCH  22  23
ENDBRANCH  20  22
ENDBRANCH  16  17
ENDBRANCH   1  16
TORSDOF 8
ENDMDL
MODEL 4
REMARK VINA RESULT:    -6.272      1.767      2.309
REMARK INTER + INTRA:          -9.913
REMARK INTER:                  -9.248
REMARK INTRA:                  -0.665
REMARK UNBOUND:                -0.891
REMARK  Name = 
REMARK  8 active torsions:
REMARK  status: ('A' for Active; 'I' for Inactive)
REMARK    1  A    between atoms: N_1  and  C_2
REMARK    2  A    between atoms: C_2  and  C_3
REMARK    3  A    between atoms: C_2  and  C_17
REMARK    4  A    between atoms: C_3  and  N_4
REMARK    5  A    between atoms: C_7  and  C_8
REMARK    6  A    between atoms: C_8  and  N_9
REMARK    7  A    between atoms: N_9  and  C_10
REMARK    8  A    between atoms: C_10  and  C_11
REMARK                            x       y       z     vdW  Elec       q    Type
REMARK                         _______ _______ _______ _____ _____    ______ ____
ROOT
ATOM      1  C   UNL     1      47.872   4.009  16.481  0.00  0.00    +0.000 C 
ENDROOT
BRANCH   1   2
ATOM      2  C   UNL     1      48.911   4.434  17.507  0.00  0.00    +0.000 A 
ATOM      3  C   UNL     1      50.269   4.150  17.415  0.00  0.00    +0.000 A 
ATOM      4  S   UNL     1      51.200   4.916  18.621  0.00  0.00    +0.000 S 
ATOM      5  C   UNL     1      49.821   5.628  19.319  0.00  0.00    +0.000 A 
ATOM      6  N   UNL     1      49.924   6.462  20.389  0.00  0.00    +0.000 NA
ATOM      7  C   UNL     1      48.792   6.902  20.829  0.00  0.00    +0.000 A 
ATOM      8  N   UNL     1      47.567   6.576  20.305  0.00  0.00    +0.000 N 
ATOM      9  C   UNL     1      47.411   5.756  19.208  0.00  0.00    +0.000 A 
ATOM     10  O   UNL     1      46.298   5.501  18.764  0.00  0.00    +0.000 OA
ATOM     11  C   UNL     1      48.659   5.251  18.668  0.00  0.00    +0.000 A 
ATOM     12  H   UNL     1      46.716   6.935  20.712  0.00  0.00    +0.000 HD
ENDBRANCH   1   2
BRANCH   1  13
ATOM     13  N   UNL     1      48.334   2.779  15.837  0.00  0.00    +0.000 NA
ATOM     14  H   UNL     1      48.995   2.307  16.451  0.00  0.00    +0.000 HD
ATOM     15  H   UNL     1      48.814   2.994  14.970  0.00  0.00    +0.000 HD
ENDBRANCH   1  13
BRANCH   1  16
ATOM     16  C   UNL     1      47.595   5.201  15.500  0.00  0.00    +0.000 C 
BRANCH  16  17
ATOM     17  N   UNL     1      47.533   4.922  14.052  0.00  0.00    +0.000 NA
ATOM     18  C   UNL     1      48.017   6.083  13.286  0.00  0.00    +0.000 C 
ATOM     19  C   UNL     1      46.796   6.968  13.123  0.00  0.00    +0.000 C 
ATOM     20  C   UNL     1      45.687   5.956  12.838  0.00  0.00    +0.000 C 
ATOM     21  C   UNL     1      46.156   4.682  13.566  0.00  0.00    +0.000 C 
BRANCH  20  22
ATOM     22  C   UNL     1      45.532   5.758  11.321  0.00  0.00    +0.000 C 
BRANCH  22  23
ATOM     23  N   UNL     1      44.844   4.505  11.020  0.00  0.00    +0.000 NA
ATOM     24  H   UNL     1      44.060   4.372  11.656  0.00  0.00    +0.000 HD
BRANCH  23  25
ATOM     25  C   UNL     1      44.340   4.506   9.645  0.00  0.00    +0.000 C 
BRANCH  25  26
ATOM     26  C   UNL     1      45.212   3.633   8.797  0.00  0.00    +0.000 A 
ATOM     27  C   UNL     1      46.061   4.015   7.775  0.00  0.00    +0.000 A 
ATOM     28  C   UNL     1      46.746   2.913   7.197  0.00  0.00    +0.000 A 
ATOM     29  C   UNL     1      46.393   1.722   7.786  0.00  0.00    +0.000 A 
ATOM     30  S   UNL     1      45.243   1.937   9.034  0.00  0.00    +0.000 S 
ENDBRANCH  25  26
ENDBRANCH  23  25
ENDBRANCH  22  23
ENDBRANCH  20  22
ENDBRANCH  16  17
ENDBRANCH   1  16
TORSDOF 8
ENDMDL
MODEL 5
REMARK VINA RESULT:    -6.201      2.135      2.537
REMARK INTER + INTRA:          -9.811
REMARK INTER:                  -9.252
REMARK INTRA:                  -0.559
REMARK UNBOUND:                -0.891
REMARK  Name = 
REMARK  8 active torsions:
REMARK  status: ('A' for Active; 'I' for Inactive)
REMARK    1  A    between atoms: N_1  and  C_2
REMARK    2  A    between atoms: C_2  and  C_3
REMARK    3  A    between atoms: C_2  and  C_17
REMARK    4  A    between atoms: C_3  and  N_4
REMARK    5  A    between atoms: C_7  and  C_8
REMARK    6  A    between atoms: C_8  and  N_9
REMARK    7  A    between atoms: N_9  and  C_10
REMARK    8  A    between atoms: C_10  and  C_11
REMARK                            x       y       z     vdW  Elec       q    Type
REMARK                         _______ _______ _______ _____ _____    ______ ____
ROOT
ATOM      1  C   UNL     1      47.374   4.416  16.904  0.00  0.00    +0.000 C 
ENDROOT
BRANCH   1   2
ATOM      2  C   UNL     1      48.782   4.507  17.472  0.00  0.00    +0.000 A 
ATOM      3  C   UNL     1      49.258   5.572  18.229  0.00  0.00    +0.000 A 
ATOM      4  S   UNL     1      50.813   5.297  18.874  0.00  0.00    +0.000 S 
ATOM      5  C   UNL     1      50.911   3.763  18.143  0.00  0.00    +0.000 A 
ATOM      6  N   UNL     1      51.993   2.961  18.333  0.00  0.00    +0.000 NA
ATOM      7  C   UNL     1      51.941   1.840  17.694  0.00  0.00    +0.000 A 
ATOM      8  N   UNL     1      50.913   1.454  16.871  0.00  0.00    +0.000 N 
ATOM      9  C   UNL     1      49.785   2.219  16.666  0.00  0.00    +0.000 A 
ATOM     10  O   UNL     1      48.884   1.830  15.933  0.00  0.00    +0.000 OA
ATOM     11  C   UNL     1      49.791   3.481  17.380  0.00  0.00    +0.000 A 
ATOM     12  H   UNL     1      50.945   0.573  16.378  0.00  0.00    +0.000 HD
ENDBRANCH   1   2
BRANCH   1  13
ATOM     13  N   UNL     1      46.802   3.126  17.293  0.00  0.00    +0.000 NA
ATOM     14  H   UNL     1      47.171   2.856  18.202  0.00  0.00    +0.000 HD
ATOM     15  H   UNL     1      47.064   2.409  16.625  0.00  0.00    +0.000 HD
ENDBRANCH   1  13
BRANCH   1  16
ATOM     16  C   UNL     1      47.421   4.675  15.358  0.00  0.00    +0.000 C 
BRANCH  16  17
ATOM     17  N   UNL     1      46.515   3.903  14.486  0.00  0.00    +0.000 NA
ATOM     18  C   UNL     1      47.028   3.882  13.106  0.00  0.00    +0.000 C 
ATOM     19  C   UNL     1      46.482   5.149  12.476  0.00  0.00    +0.000 C 
ATOM     20  C   UNL     1      45.057   5.207  13.028  0.00  0.00    +0.000 C 
ATOM     21  C   UNL     1      45.161   4.492  14.388  0.00  0.00    +0.000 C 
BRANCH  20  22
ATOM     22  C   UNL     1      44.088   4.513  12.058  0.00  0.00    +0.000 C 
BRANCH  22  23
ATOM     23  N   UNL     1      44.556   4.621  10.678  0.00  0.00    +0.000 NA
ATOM     24  H   UNL     1      45.567   4.736  10.657  0.00  0.00    +0.000 HD
BRANCH  23  25
ATOM     25  C   UNL     1      44.202   3.423   9.914  0.00  0.00    +0.000 C 
BRANCH  25  26
ATOM     26  C   UNL     1      45.218   3.204   8.836  0.00  0.00    +0.000 A 
ATOM     27  C   UNL     1      45.825   4.152   8.034  0.00  0.00    +0.000 A 
ATOM     28  C   UNL     1      46.755   3.580   7.124  0.00  0.00    +0.000 A 
ATOM     29  C   UNL     1      46.823   2.212   7.252  0.00  0.00    +0.000 A 
ATOM     30  S   UNL     1      45.772   1.626   8.467  0.00  0.00    +0.000 S 
ENDBRANCH  25  26
ENDBRANCH  23  25
ENDBRANCH  22  23
ENDBRANCH  20  22
ENDBRANCH  16  17
ENDBRANCH   1  16
TORSDOF 8
ENDMDL
MODEL 6
REMARK VINA RESULT:    -6.161      1.812      2.416
REMARK INTER + INTRA:          -9.753
REMARK INTER:                  -9.176
REMARK INTRA:                  -0.577
REMARK UNBOUND:                -0.891
REMARK  Name = 
REMARK  8 active torsions:
REMARK  status: ('A' for Active; 'I' for Inactive)
REMARK    1  A    between atoms: N_1  and  C_2
REMARK    2  A    between atoms: C_2  and  C_3
REMARK    3  A    between atoms: C_2  and  C_17
REMARK    4  A    between atoms: C_3  and  N_4
REMARK    5  A    between atoms: C_7  and  C_8
REMARK    6  A    between atoms: C_8  and  N_9
REMARK    7  A    between atoms: N_9  and  C_10
REMARK    8  A    between atoms: C_10  and  C_11
REMARK                            x       y       z     vdW  Elec       q    Type
REMARK                         _______ _______ _______ _____ _____    ______ ____
ROOT
ATOM      1  C   UNL     1      47.211   4.400  16.691  0.00  0.00    +0.000 C 
ENDROOT
BRANCH   1   2
ATOM      2  C   UNL     1      47.711   5.012  17.990  0.00  0.00    +0.000 A 
ATOM      3  C   UNL     1      46.937   5.791  18.842  0.00  0.00    +0.000 A 
ATOM      4  S   UNL     1      47.725   6.177  20.305  0.00  0.00    +0.000 S 
ATOM      5  C   UNL     1      49.131   5.340  19.837  0.00  0.00    +0.000 A 
ATOM      6  N   UNL     1      50.202   5.242  20.671  0.00  0.00    +0.000 NA
ATOM      7  C   UNL     1      51.207   4.604  20.171  0.00  0.00    +0.000 A 
ATOM      8  N   UNL     1      51.245   4.066  18.909  0.00  0.00    +0.000 N 
ATOM      9  C   UNL     1      50.179   4.117  18.037  0.00  0.00    +0.000 A 
ATOM     10  O   UNL     1      50.251   3.612  16.923  0.00  0.00    +0.000 OA
ATOM     11  C   UNL     1      49.019   4.810  18.564  0.00  0.00    +0.000 A 
ATOM     12  H   UNL     1      52.073   3.600  18.568  0.00  0.00    +0.000 HD
ENDBRANCH   1   2
BRANCH   1  13
ATOM     13  N   UNL     1      47.505   2.966  16.713  0.00  0.00    +0.000 NA
ATOM     14  H   UNL     1      48.440   2.811  16.342  0.00  0.00    +0.000 HD
ATOM     15  H   UNL     1      46.850   2.463  16.124  0.00  0.00    +0.000 HD
ENDBRANCH   1  13
BRANCH   1  16
ATOM     16  C   UNL     1      47.830   5.179  15.479  0.00  0.00    +0.000 C 
BRANCH  16  17
ATOM     17  N   UNL     1      47.433   4.787  14.112  0.00  0.00    +0.000 NA
ATOM     18  C   UNL     1      47.859   5.811  13.143  0.00  0.00    +0.000 C 
ATOM     19  C   UNL     1      46.728   6.821  13.133  0.00  0.00    +0.000 C 
ATOM     20  C   UNL     1      45.486   5.931  13.190  0.00  0.00    +0.000 C 
ATOM     21  C   UNL     1      45.968   4.677  13.943  0.00  0.00    +0.000 C 
BRANCH  20  22
ATOM     22  C   UNL     1      44.993   5.625  11.767  0.00  0.00    +0.000 C 
BRANCH  22  23
ATOM     23  N   UNL     1      45.136   4.206  11.453  0.00  0.00    +0.000 NA
ATOM     24  H   UNL     1      44.874   3.639  12.257  0.00  0.00    +0.000 HD
BRANCH  23  25
ATOM     25  C   UNL     1      44.287   3.836  10.319  0.00  0.00    +0.000 C 
BRANCH  25  26
ATOM     26  C   UNL     1      45.150   3.508   9.139  0.00  0.00    +0.000 A 
ATOM     27  C   UNL     1      45.810   4.385   8.299  0.00  0.00    +0.000 A 
ATOM     28  C   UNL     1      46.552   3.715   7.289  0.00  0.00    +0.000 A 
ATOM     29  C   UNL     1      46.428   2.348   7.381  0.00  0.00    +0.000 A 
ATOM     30  S   UNL     1      45.424   1.880   8.684  0.00  0.00    +0.000 S 
ENDBRANCH  25  26
ENDBRANCH  23  25
ENDBRANCH  22  23
ENDBRANCH  20  22
ENDBRANCH  16  17
ENDBRANCH   1  16
TORSDOF 8
ENDMDL
MODEL 7
REMARK VINA RESULT:    -6.037      4.223      5.035
REMARK INTER + INTRA:          -9.575
REMARK INTER:                  -9.083
REMARK INTRA:                  -0.492
REMARK UNBOUND:                -0.891
REMARK  Name = 
REMARK  8 active torsions:
REMARK  status: ('A' for Active; 'I' for Inactive)
REMARK    1  A    between atoms: N_1  and  C_2
REMARK    2  A    between atoms: C_2  and  C_3
REMARK    3  A    between atoms: C_2  and  C_17
REMARK    4  A    between atoms: C_3  and  N_4
REMARK    5  A    between atoms: C_7  and  C_8
REMARK    6  A    between atoms: C_8  and  N_9
REMARK    7  A    between atoms: N_9  and  C_10
REMARK    8  A    between atoms: C_10  and  C_11
REMARK                            x       y       z     vdW  Elec       q    Type
REMARK                         _______ _______ _______ _____ _____    ______ ____
ROOT
ATOM      1  C   UNL     1      45.679   8.664  11.877  0.00  0.00    +0.000 C 
ENDROOT
BRANCH   1   2
ATOM      2  C   UNL     1      46.939   9.477  12.127  0.00  0.00    +0.000 A 
ATOM      3  C   UNL     1      46.951  10.814  12.506  0.00  0.00    +0.000 A 
ATOM      4  S   UNL     1      48.510  11.392  12.888  0.00  0.00    +0.000 S 
ATOM      5  C   UNL     1      49.220   9.886  12.534  0.00  0.00    +0.000 A 
ATOM      6  N   UNL     1      50.556   9.682  12.697  0.00  0.00    +0.000 NA
ATOM      7  C   UNL     1      50.956   8.502  12.362  0.00  0.00    +0.000 A 
ATOM      8  N   UNL     1      50.148   7.510  11.866  0.00  0.00    +0.000 N 
ATOM      9  C   UNL     1      48.786   7.659  11.706  0.00  0.00    +0.000 A 
ATOM     10  O   UNL     1      48.098   6.743  11.272  0.00  0.00    +0.000 OA
ATOM     11  C   UNL     1      48.288   8.966  12.088  0.00  0.00    +0.000 A 
ATOM     12  H   UNL     1      50.528   6.615  11.598  0.00  0.00    +0.000 HD
ENDBRANCH   1   2
BRANCH   1  13
ATOM     13  N   UNL     1      44.533   9.576  11.879  0.00  0.00    +0.000 NA
ATOM     14  H   UNL     1      43.705   9.073  11.568  0.00  0.00    +0.000 HD
ATOM     15  H   UNL     1      44.692  10.343  11.234  0.00  0.00    +0.000 HD
ENDBRANCH   1  13
BRANCH   1  16
ATOM     16  C   UNL     1      45.594   7.501  12.926  0.00  0.00    +0.000 C 
BRANCH  16  17
ATOM     17  N   UNL     1      44.536   6.485  12.768  0.00  0.00    +0.000 NA
ATOM     18  C   UNL     1      45.004   5.179  13.261  0.00  0.00    +0.000 C 
ATOM     19  C   UNL     1      45.716   4.556  12.076  0.00  0.00    +0.000 C 
ATOM     20  C   UNL     1      44.807   4.933  10.906  0.00  0.00    +0.000 C 
ATOM     21  C   UNL     1      44.158   6.255  11.356  0.00  0.00    +0.000 C 
BRANCH  20  22
ATOM     22  C   UNL     1      43.781   3.815  10.656  0.00  0.00    +0.000 C 
BRANCH  22  23
ATOM     23  N   UNL     1      43.922   3.261   9.312  0.00  0.00    +0.000 NA
ATOM     24  H   UNL     1      43.015   3.221   8.850  0.00  0.00    +0.000 HD
BRANCH  23  25
ATOM     25  C   UNL     1      44.827   4.080   8.504  0.00  0.00    +0.000 C 
BRANCH  25  26
ATOM     26  C   UNL     1      45.787   3.189   7.777  0.00  0.00    +0.000 A 
ATOM     27  C   UNL     1      46.560   3.493   6.673  0.00  0.00    +0.000 A 
ATOM     28  C   UNL     1      47.368   2.401   6.257  0.00  0.00    +0.000 A 
ATOM     29  C   UNL     1      47.181   1.293   7.050  0.00  0.00    +0.000 A 
ATOM     30  S   UNL     1      46.038   1.574   8.291  0.00  0.00    +0.000 S 
ENDBRANCH  25  26
ENDBRANCH  23  25
ENDBRANCH  22  23
ENDBRANCH  20  22
ENDBRANCH  16  17
ENDBRANCH   1  16
TORSDOF 8
ENDMDL
MODEL 8
REMARK VINA RESULT:    -5.775      5.025      7.344
REMARK INTER + INTRA:          -9.197
REMARK INTER:                  -8.164
REMARK INTRA:                  -1.034
REMARK UNBOUND:                -0.891
REMARK  Name = 
REMARK  8 active torsions:
REMARK  status: ('A' for Active; 'I' for Inactive)
REMARK    1  A    between atoms: N_1  and  C_2
REMARK    2  A    between atoms: C_2  and  C_3
REMARK    3  A    between atoms: C_2  and  C_17
REMARK    4  A    between atoms: C_3  and  N_4
REMARK    5  A    between atoms: C_7  and  C_8
REMARK    6  A    between atoms: C_8  and  N_9
REMARK    7  A    between atoms: N_9  and  C_10
REMARK    8  A    between atoms: C_10  and  C_11
REMARK                            x       y       z     vdW  Elec       q    Type
REMARK                         _______ _______ _______ _____ _____    ______ ____
ROOT
ATOM      1  C   UNL     1      47.435   5.900  13.234  0.00  0.00    +0.000 C 
ENDROOT
BRANCH   1   2
ATOM      2  C   UNL     1      46.038   5.922  12.634  0.00  0.00    +0.000 A 
ATOM      3  C   UNL     1      45.397   7.067  12.175  0.00  0.00    +0.000 A 
ATOM      4  S   UNL     1      43.916   6.741  11.392  0.00  0.00    +0.000 S 
ATOM      5  C   UNL     1      44.072   5.069  11.664  0.00  0.00    +0.000 A 
ATOM      6  N   UNL     1      43.142   4.190  11.199  0.00  0.00    +0.000 NA
ATOM      7  C   UNL     1      43.376   2.958  11.506  0.00  0.00    +0.000 A 
ATOM      8  N   UNL     1      44.446   2.525  12.247  0.00  0.00    +0.000 N 
ATOM      9  C   UNL     1      45.427   3.371  12.719  0.00  0.00    +0.000 A 
ATOM     10  O   UNL     1      46.374   2.939  13.366  0.00  0.00    +0.000 OA
ATOM     11  C   UNL     1      45.215   4.765  12.382  0.00  0.00    +0.000 A 
ATOM     12  H   UNL     1      44.559   1.548  12.475  0.00  0.00    +0.000 HD
ENDBRANCH   1   2
BRANCH   1  13
ATOM     13  N   UNL     1      47.317   5.646  14.671  0.00  0.00    +0.000 NA
ATOM     14  H   UNL     1      46.334   5.537  14.912  0.00  0.00    +0.000 HD
ATOM     15  H   UNL     1      47.682   6.432  15.199  0.00  0.00    +0.000 HD
ENDBRANCH   1  13
BRANCH   1  16
ATOM     16  C   UNL     1      48.181   7.229  12.861  0.00  0.00    +0.000 C 
BRANCH  16  17
ATOM     17  N   UNL     1      49.654   7.210  12.774  0.00  0.00    +0.000 NA
ATOM     18  C   UNL     1      50.235   8.153  13.745  0.00  0.00    +0.000 C 
ATOM     19  C   UNL     1      50.254   9.485  13.019  0.00  0.00    +0.000 C 
ATOM     20  C   UNL     1      50.684   9.088  11.607  0.00  0.00    +0.000 C 
ATOM     21  C   UNL     1      50.163   7.647  11.456  0.00  0.00    +0.000 C 
BRANCH  20  22
ATOM     22  C   UNL     1      52.212   9.191  11.474  0.00  0.00    +0.000 C 
BRANCH  22  23
ATOM     23  N   UNL     1      52.835   7.870  11.509  0.00  0.00    +0.000 NA
ATOM     24  H   UNL     1      52.163   7.156  11.233  0.00  0.00    +0.000 HD
BRANCH  23  25
ATOM     25  C   UNL     1      53.983   7.812  10.602  0.00  0.00    +0.000 C 
BRANCH  25  26
ATOM     26  C   UNL     1      53.496   7.647   9.195  0.00  0.00    +0.000 A 
ATOM     27  C   UNL     1      52.665   6.664   8.693  0.00  0.00    +0.000 A 
ATOM     28  C   UNL     1      52.401   6.832   7.307  0.00  0.00    +0.000 A 
ATOM     29  C   UNL     1      53.045   7.931   6.790  0.00  0.00    +0.000 A 
ATOM     30  S   UNL     1      53.960   8.757   7.976  0.00  0.00    +0.000 S 
ENDBRANCH  25  26
ENDBRANCH  23  25
ENDBRANCH  22  23
ENDBRANCH  20  22
ENDBRANCH  16  17
ENDBRANCH   1  16
TORSDOF 8
ENDMDL
MODEL 9
REMARK VINA RESULT:    -5.395      3.369      8.956
REMARK INTER + INTRA:          -8.651
REMARK INTER:                  -7.716
REMARK INTRA:                  -0.935
REMARK UNBOUND:                -0.891
REMARK  Name = 
REMARK  8 active torsions:
REMARK  status: ('A' for Active; 'I' for Inactive)
REMARK    1  A    between atoms: N_1  and  C_2
REMARK    2  A    between atoms: C_2  and  C_3
REMARK    3  A    between atoms: C_2  and  C_17
REMARK    4  A    between atoms: C_3  and  N_4
REMARK    5  A    between atoms: C_7  and  C_8
REMARK    6  A    between atoms: C_8  and  N_9
REMARK    7  A    between atoms: N_9  and  C_10
REMARK    8  A    between atoms: C_10  and  C_11
REMARK                            x       y       z     vdW  Elec       q    Type
REMARK                         _______ _______ _______ _____ _____    ______ ____
ROOT
ATOM      1  C   UNL     1      46.732   4.069  13.374  0.00  0.00    +0.000 C 
ENDROOT
BRANCH   1   2
ATOM      2  C   UNL     1      46.098   5.294  12.735  0.00  0.00    +0.000 A 
ATOM      3  C   UNL     1      44.785   5.354  12.280  0.00  0.00    +0.000 A 
ATOM      4  S   UNL     1      44.316   6.918  11.784  0.00  0.00    +0.000 S 
ATOM      5  C   UNL     1      45.854   7.557  12.136  0.00  0.00    +0.000 A 
ATOM      6  N   UNL     1      46.119   8.881  11.974  0.00  0.00    +0.000 NA
ATOM      7  C   UNL     1      47.335   9.216  12.252  0.00  0.00    +0.000 A 
ATOM      8  N   UNL     1      48.313   8.346  12.663  0.00  0.00    +0.000 N 
ATOM      9  C   UNL     1      48.088   7.001  12.866  0.00  0.00    +0.000 A 
ATOM     10  O   UNL     1      48.987   6.262  13.248  0.00  0.00    +0.000 OA
ATOM     11  C   UNL     1      46.729   6.583  12.584  0.00  0.00    +0.000 A 
ATOM     12  H   UNL     1      49.254   8.668  12.840  0.00  0.00    +0.000 HD
ENDBRANCH   1   2
BRANCH   1  13
ATOM     13  N   UNL     1      46.019   2.881  12.901  0.00  0.00    +0.000 NA
ATOM     14  H   UNL     1      46.611   2.062  13.029  0.00  0.00    +0.000 HD
ATOM     15  H   UNL     1      45.814   2.963  11.910  0.00  0.00    +0.000 HD
ENDBRANCH   1  13
BRANCH   1  16
ATOM     16  C   UNL     1      46.751   4.246  14.932  0.00  0.00    +0.000 C 
BRANCH  16  17
ATOM     17  N   UNL     1      48.044   4.149  15.637  0.00  0.00    +0.000 NA
ATOM     18  C   UNL     1      48.139   2.869  16.357  0.00  0.00    +0.000 C 
ATOM     19  C   UNL     1      47.479   3.135  17.697  0.00  0.00    +0.000 C 
ATOM     20  C   UNL     1      47.985   4.535  18.045  0.00  0.00    +0.000 C 
ATOM     21  C   UNL     1      48.220   5.192  16.671  0.00  0.00    +0.000 C 
BRANCH  20  22
ATOM     22  C   UNL     1      49.265   4.437  18.890  0.00  0.00    +0.000 C 
BRANCH  22  23
ATOM     23  N   UNL     1      49.381   5.568  19.806  0.00  0.00    +0.000 NA
ATOM     24  H   UNL     1      49.768   6.376  19.322  0.00  0.00    +0.000 HD
BRANCH  23  25
ATOM     25  C   UNL     1      48.071   5.930  20.353  0.00  0.00    +0.000 C 
BRANCH  25  26
ATOM     26  C   UNL     1      47.878   7.411  20.240  0.00  0.00    +0.000 A 
ATOM     27  C   UNL     1      47.260   8.259  21.139  0.00  0.00    +0.000 A 
ATOM     28  C   UNL     1      47.274   9.613  20.706  0.00  0.00    +0.000 A 
ATOM     29  C   UNL     1      47.893   9.757  19.487  0.00  0.00    +0.000 A 
ATOM     30  S   UNL     1      48.457   8.264  18.872  0.00  0.00    +0.000 S 
ENDBRANCH  25  26
ENDBRANCH  23  25
ENDBRANCH  22  23
ENDBRANCH  20  22
ENDBRANCH  16  17
ENDBRANCH   1  16
TORSDOF 8
ENDMDL
