MODEL 1
REMARK VINA RESULT:    -8.160      0.000      0.000
REMARK INTER + INTRA:         -10.675
REMARK INTER:                 -10.307
REMARK INTRA:                  -0.367
REMARK UNBOUND:                -0.367
REMARK  Name = 
REMARK  5 active torsions:
REMARK  status: ('A' for Active; 'I' for Inactive)
REMARK    1  A    between atoms: N_1  and  C_2
REMARK    2  A    between atoms: C_2  and  C_3
REMARK    3  A    between atoms: C_6  and  C_7
REMARK    4  A    between atoms: C_7  and  N_8
REMARK    5  A    between atoms: C_13  and  C_14
REMARK                            x       y       z     vdW  Elec       q    Type
REMARK                         _______ _______ _______ _____ _____    ______ ____
ROOT
ATOM      1  N   UNL     1      44.547   2.609  11.783  0.00  0.00    +0.000 N 
ATOM      2  C   UNL     1      45.234   3.677  12.325  0.00  0.00    +0.000 A 
ATOM      3  N   UNL     1      46.232   3.339  13.154  0.00  0.00    +0.000 NA
ATOM      4  C   UNL     1      46.899   4.331  13.768  0.00  0.00    +0.000 A 
ATOM      5  C   UNL     1      46.614   5.654  13.581  0.00  0.00    +0.000 A 
ATOM      6  C   UNL     1      45.586   5.898  12.700  0.00  0.00    +0.000 A 
ATOM      7  N   UNL     1      44.884   4.937  12.051  0.00  0.00    +0.000 NA
ATOM      8  H   UNL     1      45.159   1.812  11.919  0.00  0.00    +0.000 HD
ENDROOT
BRANCH   6   9
ATOM      9  C   UNL     1      45.175   7.311  12.442  0.00  0.00    +0.000 C 
ATOM     10  N   UNL     1      44.212   7.483  11.485  0.00  0.00    +0.000 N 
ATOM     11  O   UNL     1      45.654   8.258  13.053  0.00  0.00    +0.000 OA
ATOM     12  H   UNL     1      43.791   6.673  11.046  0.00  0.00    +0.000 HD
ATOM     13  H   UNL     1      43.843   8.408  11.318  0.00  0.00    +0.000 HD
ENDBRANCH   6   9
BRANCH   1  14
ATOM     14  C   UNL     1      44.019   2.780  10.443  0.00  0.00    +0.000 C 
BRANCH  14  18
ATOM     15  C   UNL     1      46.274   2.600   6.648  0.00  0.00    +0.000 C 
ATOM     16  C   UNL     1      46.094   3.962   7.333  0.00  0.00    +0.000 C 
ATOM     17  C   UNL     1      44.969   3.946   8.366  0.00  0.00    +0.000 C 
ATOM     18  C   UNL     1      45.174   2.845   9.421  0.00  0.00    +0.000 C 
ATOM     19  C   UNL     1      45.339   1.484   8.730  0.00  0.00    +0.000 C 
ATOM     20  C   UNL     1      46.469   1.498   7.701  0.00  0.00    +0.000 C 
BRANCH  15  21
ATOM     21  C   UNL     1      47.449   2.670   5.655  0.00  0.00    +0.000 C 
BRANCH  21  22
ATOM     22  N   UNL     1      48.563   1.823   6.065  0.00  0.00    +0.000 NA
ATOM     23  H   UNL     1      48.613   1.796   7.082  0.00  0.00    +0.000 HD
ATOM     24  H   UNL     1      49.440   2.226   5.742  0.00  0.00    +0.000 HD
ENDBRANCH  21  22
ENDBRANCH  15  21
ENDBRANCH  14  18
ENDBRANCH   1  14
TORSDOF 5
ENDMDL
MODEL 2
REMARK VINA RESULT:    -7.887      1.884      3.015
REMARK INTER + INTRA:         -10.330
REMARK INTER:                  -9.879
REMARK INTRA:                  -0.450
REMARK UNBOUND:                -0.367
REMARK  Name = 
REMARK  5 active torsions:
REMARK  status: ('A' for Active; 'I' for Inactive)
REMARK    1  A    between atoms: N_1  and  C_2
REMARK    2  A    between atoms: C_2  and  C_3
REMARK    3  A    between atoms: C_6  and  C_7
REMARK    4  A    between atoms: C_7  and  N_8
REMARK    5  A    between atoms: C_13  and  C_14
REMARK                            x       y       z     vdW  Elec       q    Type
REMARK                         _______ _______ _______ _____ _____    ______ ____
ROOT
ATOM      1  N   UNL     1      45.308   5.964  10.284  0.00  0.00    +0.000 N 
ATOM      2  C   UNL     1      45.859   6.125  11.540  0.00  0.00    +0.000 A 
ATOM      3  N   UNL     1      46.186   7.387  11.851  0.00  0.00    +0.000 NA
ATOM      4  C   UNL     1      46.789   7.606  13.032  0.00  0.00    +0.000 A 
ATOM      5  C   UNL     1      47.073   6.610  13.924  0.00  0.00    +0.000 A 
ATOM      6  C   UNL     1      46.683   5.354  13.521  0.00  0.00    +0.000 A 
ATOM      7  N   UNL     1      46.069   5.078  12.344  0.00  0.00    +0.000 NA
ATOM      8  H   UNL     1      45.012   6.894  10.011  0.00  0.00    +0.000 HD
ENDROOT
BRANCH   6   9
ATOM      9  C   UNL     1      46.970   4.188  14.410  0.00  0.00    +0.000 C 
ATOM     10  N   UNL     1      46.745   4.390  15.745  0.00  0.00    +0.000 N 
ATOM     11  O   UNL     1      47.370   3.114  13.979  0.00  0.00    +0.000 OA
ATOM     12  H   UNL     1      46.353   5.270  16.059  0.00  0.00    +0.000 HD
ATOM     13  H   UNL     1      46.852   3.617  16.385  0.00  0.00    +0.000 HD
ENDBRANCH   6   9
BRANCH   1  14
ATOM     14  C   UNL     1      44.318   4.914  10.133  0.00  0.00    +0.000 C 
BRANCH  14  18
ATOM     15  C   UNL     1      46.811   2.195   7.702  0.00  0.00    +0.000 C 
ATOM     16  C   UNL     1      45.662   1.599   8.528  0.00  0.00    +0.000 C 
ATOM     17  C   UNL     1      45.176   2.554   9.617  0.00  0.00    +0.000 C 
ATOM     18  C   UNL     1      44.762   3.919   9.040  0.00  0.00    +0.000 C 
ATOM     19  C   UNL     1      45.920   4.516   8.227  0.00  0.00    +0.000 C 
ATOM     20  C   UNL     1      46.402   3.563   7.134  0.00  0.00    +0.000 C 
BRANCH  15  21
ATOM     21  C   UNL     1      47.223   1.205   6.596  0.00  0.00    +0.000 C 
BRANCH  21  22
ATOM     22  N   UNL     1      48.342   1.704   5.805  0.00  0.00    +0.000 NA
ATOM     23  H   UNL     1      48.063   2.554   5.320  0.00  0.00    +0.000 HD
ATOM     24  H   UNL     1      48.586   1.026   5.086  0.00  0.00    +0.000 HD
ENDBRANCH  21  22
ENDBRANCH  15  21
ENDBRANCH  14  18
ENDBRANCH   1  14
TORSDOF 5
ENDMDL
MODEL 3
REMARK VINA RESULT:    -6.855      1.756      2.409
REMARK INTER + INTRA:          -9.026
REMARK INTER:                  -8.669
REMARK INTRA:                  -0.357
REMARK UNBOUND:                -0.367
REMARK  Name = 
REMARK  5 active torsions:
REMARK  status: ('A' for Active; 'I' for Inactive)
REMARK    1  A    between atoms: N_1  and  C_2
REMARK    2  A    between atoms: C_2  and  C_3
REMARK    3  A    between atoms: C_6  and  C_7
REMARK    4  A    between atoms: C_7  and  N_8
REMARK    5  A    between atoms: C_13  and  C_14
REMARK                            x       y       z     vdW  Elec       q    Type
REMARK                         _______ _______ _______ _____ _____    ______ ____
ROOT
ATOM      1  N   UNL     1      44.759   5.061  11.797  0.00  0.00    +0.000 N 
ATOM      2  C   UNL     1      45.117   6.378  12.007  0.00  0.00    +0.000 A 
ATOM      3  N   UNL     1      46.149   6.551  12.845  0.00  0.00    +0.000 NA
ATOM      4  C   UNL     1      46.508   7.811  13.147  0.00  0.00    +0.000 A 
ATOM      5  C   UNL     1      45.880   8.911  12.635  0.00  0.00    +0.000 A 
ATOM      6  C   UNL     1      44.846   8.630  11.772  0.00  0.00    +0.000 A 
ATOM      7  N   UNL     1      44.446   7.380  11.431  0.00  0.00    +0.000 NA
ATOM      8  H   UNL     1      45.560   4.522  12.105  0.00  0.00    +0.000 HD
ENDROOT
BRANCH   6   9
ATOM      9  C   UNL     1      44.073   9.761  11.175  0.00  0.00    +0.000 C 
ATOM     10  N   UNL     1      43.386  10.543  12.064  0.00  0.00    +0.000 N 
ATOM     11  O   UNL     1      44.060   9.987   9.972  0.00  0.00    +0.000 OA
ATOM     12  H   UNL     1      43.472  10.367  13.057  0.00  0.00    +0.000 HD
ATOM     13  H   UNL     1      42.905  11.364  11.727  0.00  0.00    +0.000 HD
ENDBRANCH   6   9
BRANCH   1  14
ATOM     14  C   UNL     1      44.237   4.725  10.486  0.00  0.00    +0.000 C 
BRANCH  14  18
ATOM     15  C   UNL     1      46.236   2.542   7.206  0.00  0.00    +0.000 C 
ATOM     16  C   UNL     1      46.725   3.955   7.555  0.00  0.00    +0.000 C 
ATOM     17  C   UNL     1      45.703   4.733   8.383  0.00  0.00    +0.000 C 
ATOM     18  C   UNL     1      45.308   3.978   9.664  0.00  0.00    +0.000 C 
ATOM     19  C   UNL     1      44.806   2.571   9.306  0.00  0.00    +0.000 C 
ATOM     20  C   UNL     1      45.830   1.790   8.483  0.00  0.00    +0.000 C 
BRANCH  15  21
ATOM     21  C   UNL     1      47.325   1.797   6.413  0.00  0.00    +0.000 C 
BRANCH  21  22
ATOM     22  N   UNL     1      48.574   2.548   6.360  0.00  0.00    +0.000 NA
ATOM     23  H   UNL     1      48.572   3.153   5.540  0.00  0.00    +0.000 HD
ATOM     24  H   UNL     1      49.358   1.908   6.246  0.00  0.00    +0.000 HD
ENDBRANCH  21  22
ENDBRANCH  15  21
ENDBRANCH  14  18
ENDBRANCH   1  14
TORSDOF 5
ENDMDL
MODEL 4
REMARK VINA RESULT:    -6.455      3.899      8.097
REMARK INTER + INTRA:          -8.520
REMARK INTER:                  -8.252
REMARK INTRA:                  -0.268
REMARK UNBOUND:                -0.367
REMARK  Name = 
REMARK  5 active torsions:
REMARK  status: ('A' for Active; 'I' for Inactive)
REMARK    1  A    between atoms: N_1  and  C_2
REMARK    2  A    between atoms: C_2  and  C_3
REMARK    3  A    between atoms: C_6  and  C_7
REMARK    4  A    between atoms: C_7  and  N_8
REMARK    5  A    between atoms: C_13  and  C_14
REMARK                            x       y       z     vdW  Elec       q    Type
REMARK                         _______ _______ _______ _____ _____    ______ ____
ROOT
ATOM      1  N   UNL     1      46.552   5.296  14.181  0.00  0.00    +0.000 N 
ATOM      2  C   UNL     1      45.989   5.167  12.927  0.00  0.00    +0.000 A 
ATOM      3  N   UNL     1      46.132   6.239  12.135  0.00  0.00    +0.000 NA
ATOM      4  C   UNL     1      45.550   6.206  10.924  0.00  0.00    +0.000 A 
ATOM      5  C   UNL     1      44.835   5.136  10.466  0.00  0.00    +0.000 A 
ATOM      6  C   UNL     1      44.760   4.080  11.344  0.00  0.00    +0.000 A 
ATOM      7  N   UNL     1      45.331   4.059  12.573  0.00  0.00    +0.000 NA
ATOM      8  H   UNL     1      47.198   6.073  14.096  0.00  0.00    +0.000 HD
ENDROOT
BRANCH   6   9
ATOM      9  C   UNL     1      43.978   2.868  10.953  0.00  0.00    +0.000 C 
ATOM     10  N   UNL     1      44.473   2.161   9.891  0.00  0.00    +0.000 N 
ATOM     11  O   UNL     1      42.967   2.518  11.547  0.00  0.00    +0.000 OA
ATOM     12  H   UNL     1      45.347   2.443   9.464  0.00  0.00    +0.000 HD
ATOM     13  H   UNL     1      44.027   1.294   9.627  0.00  0.00    +0.000 HD
ENDBRANCH   6   9
BRANCH   1  14
ATOM     14  C   UNL     1      47.086   4.092  14.788  0.00  0.00    +0.000 C 
BRANCH  14  18
ATOM     15  C   UNL     1      49.233   4.455  18.632  0.00  0.00    +0.000 C 
ATOM     16  C   UNL     1      48.649   5.723  17.992  0.00  0.00    +0.000 C 
ATOM     17  C   UNL     1      48.326   5.528  16.511  0.00  0.00    +0.000 C 
ATOM     18  C   UNL     1      47.381   4.335  16.283  0.00  0.00    +0.000 C 
ATOM     19  C   UNL     1      47.977   3.068  16.912  0.00  0.00    +0.000 C 
ATOM     20  C   UNL     1      48.295   3.261  18.395  0.00  0.00    +0.000 C 
BRANCH  15  21
ATOM     21  C   UNL     1      49.494   4.702  20.129  0.00  0.00    +0.000 C 
BRANCH  21  22
ATOM     22  N   UNL     1      48.472   4.089  20.970  0.00  0.00    +0.000 NA
ATOM     23  H   UNL     1      47.621   4.648  20.933  0.00  0.00    +0.000 HD
ATOM     24  H   UNL     1      48.778   4.091  21.942  0.00  0.00    +0.000 HD
ENDBRANCH  21  22
ENDBRANCH  15  21
ENDBRANCH  14  18
ENDBRANCH   1  14
TORSDOF 5
ENDMDL
MODEL 5
REMARK VINA RESULT:    -6.218      3.914      5.908
REMARK INTER + INTRA:          -8.221
REMARK INTER:                  -7.932
REMARK INTRA:                  -0.290
REMARK UNBOUND:                -0.367
REMARK  Name = 
REMARK  5 active torsions:
REMARK  status: ('A' for Active; 'I' for Inactive)
REMARK    1  A    between atoms: N_1  and  C_2
REMARK    2  A    between atoms: C_2  and  C_3
REMARK    3  A    between atoms: C_6  and  C_7
REMARK    4  A    between atoms: C_7  and  N_8
REMARK    5  A    between atoms: C_13  and  C_14
REMARK                            x       y       z     vdW  Elec       q    Type
REMARK                         _______ _______ _______ _____ _____    ______ ____
ROOT
ATOM      1  N   UNL     1      46.907   5.297  15.263  0.00  0.00    +0.000 N 
ATOM      2  C   UNL     1      47.604   4.521  16.169  0.00  0.00    +0.000 A 
ATOM      3  N   UNL     1      46.873   3.574  16.773  0.00  0.00    +0.000 NA
ATOM      4  C   UNL     1      47.473   2.825  17.716  0.00  0.00    +0.000 A 
ATOM      5  C   UNL     1      48.782   2.981  18.074  0.00  0.00    +0.000 A 
ATOM      6  C   UNL     1      49.450   3.966  17.385  0.00  0.00    +0.000 A 
ATOM      7  N   UNL     1      48.896   4.745  16.424  0.00  0.00    +0.000 NA
ATOM      8  H   UNL     1      46.069   4.766  15.058  0.00  0.00    +0.000 HD
ENDROOT
BRANCH   6   9
ATOM      9  C   UNL     1      50.881   4.238  17.718  0.00  0.00    +0.000 C 
ATOM     10  N   UNL     1      51.354   3.625  18.847  0.00  0.00    +0.000 N 
ATOM     11  O   UNL     1      51.594   4.952  17.024  0.00  0.00    +0.000 OA
ATOM     12  H   UNL     1      50.755   2.990  19.361  0.00  0.00    +0.000 HD
ATOM     13  H   UNL     1      52.332   3.714  19.083  0.00  0.00    +0.000 HD
ENDBRANCH   6   9
BRANCH   1  14
ATOM     14  C   UNL     1      47.645   5.784  14.113  0.00  0.00    +0.000 C 
BRANCH  14  18
ATOM     15  C   UNL     1      44.695   4.836  10.964  0.00  0.00    +0.000 C 
ATOM     16  C   UNL     1      45.829   5.819  10.639  0.00  0.00    +0.000 C 
ATOM     17  C   UNL     1      46.496   6.370  11.898  0.00  0.00    +0.000 C 
ATOM     18  C   UNL     1      47.015   5.246  12.811  0.00  0.00    +0.000 C 
ATOM     19  C   UNL     1      45.873   4.275  13.144  0.00  0.00    +0.000 C 
ATOM     20  C   UNL     1      45.209   3.718  11.885  0.00  0.00    +0.000 C 
BRANCH  15  21
ATOM     21  C   UNL     1      44.096   4.284   9.657  0.00  0.00    +0.000 C 
BRANCH  21  22
ATOM     22  N   UNL     1      44.933   4.585   8.501  0.00  0.00    +0.000 NA
ATOM     23  H   UNL     1      44.411   5.162   7.845  0.00  0.00    +0.000 HD
ATOM     24  H   UNL     1      45.165   3.724   8.009  0.00  0.00    +0.000 HD
ENDBRANCH  21  22
ENDBRANCH  15  21
ENDBRANCH  14  18
ENDBRANCH   1  14
TORSDOF 5
ENDMDL
MODEL 6
REMARK VINA RESULT:    -6.149      3.782      5.481
REMARK INTER + INTRA:          -8.134
REMARK INTER:                  -7.847
REMARK INTRA:                  -0.287
REMARK UNBOUND:                -0.367
REMARK  Name = 
REMARK  5 active torsions:
REMARK  status: ('A' for Active; 'I' for Inactive)
REMARK    1  A    between atoms: N_1  and  C_2
REMARK    2  A    between atoms: C_2  and  C_3
REMARK    3  A    between atoms: C_6  and  C_7
REMARK    4  A    between atoms: C_7  and  N_8
REMARK    5  A    between atoms: C_13  and  C_14
REMARK                            x       y       z     vdW  Elec       q    Type
REMARK                         _______ _______ _______ _____ _____    ______ ____
ROOT
ATOM      1  N   UNL     1      46.983   3.641  14.724  0.00  0.00    +0.000 N 
ATOM      2  C   UNL     1      47.742   3.551  15.874  0.00  0.00    +0.000 A 
ATOM      3  N   UNL     1      48.600   2.521  15.899  0.00  0.00    +0.000 NA
ATOM      4  C   UNL     1      49.323   2.335  17.017  0.00  0.00    +0.000 A 
ATOM      5  C   UNL     1      49.229   3.146  18.113  0.00  0.00    +0.000 A 
ATOM      6  C   UNL     1      48.336   4.183  17.982  0.00  0.00    +0.000 A 
ATOM      7  N   UNL     1      47.586   4.419  16.877  0.00  0.00    +0.000 NA
ATOM      8  H   UNL     1      47.471   3.067  14.045  0.00  0.00    +0.000 HD
ENDROOT
BRANCH   6   9
ATOM      9  C   UNL     1      48.136   5.115  19.132  0.00  0.00    +0.000 C 
ATOM     10  N   UNL     1      46.845   5.509  19.359  0.00  0.00    +0.000 N 
ATOM     11  O   UNL     1      49.061   5.497  19.839  0.00  0.00    +0.000 OA
ATOM     12  H   UNL     1      46.097   5.123  18.796  0.00  0.00    +0.000 HD
ATOM     13  H   UNL     1      46.639   6.081  20.165  0.00  0.00    +0.000 HD
ENDBRANCH   6   9
BRANCH   1  14
ATOM     14  C   UNL     1      46.620   4.974  14.281  0.00  0.00    +0.000 C 
BRANCH  14  18
ATOM     15  C   UNL     1      45.123   4.354  10.170  0.00  0.00    +0.000 C 
ATOM     16  C   UNL     1      44.649   3.403  11.277  0.00  0.00    +0.000 C 
ATOM     17  C   UNL     1      45.546   3.459  12.513  0.00  0.00    +0.000 C 
ATOM     18  C   UNL     1      45.675   4.890  13.063  0.00  0.00    +0.000 C 
ATOM     19  C   UNL     1      46.164   5.834  11.955  0.00  0.00    +0.000 C 
ATOM     20  C   UNL     1      45.263   5.782  10.721  0.00  0.00    +0.000 C 
BRANCH  15  21
ATOM     21  C   UNL     1      44.155   4.284   8.975  0.00  0.00    +0.000 C 
BRANCH  21  22
ATOM     22  N   UNL     1      44.470   3.177   8.079  0.00  0.00    +0.000 NA
ATOM     23  H   UNL     1      43.783   2.435   8.202  0.00  0.00    +0.000 HD
ATOM     24  H   UNL     1      45.374   2.778   8.328  0.00  0.00    +0.000 HD
ENDBRANCH  21  22
ENDBRANCH  15  21
ENDBRANCH  14  18
ENDBRANCH   1  14
TORSDOF 5
ENDMDL
MODEL 7
REMARK VINA RESULT:    -6.133      3.700      5.654
REMARK INTER + INTRA:          -8.114
REMARK INTER:                  -7.739
REMARK INTRA:                  -0.375
REMARK UNBOUND:                -0.367
REMARK  Name = 
REMARK  5 active torsions:
REMARK  status: ('A' for Active; 'I' for Inactive)
REMARK    1  A    between atoms: N_1  and  C_2
REMARK    2  A    between atoms: C_2  and  C_3
REMARK    3  A    between atoms: C_6  and  C_7
REMARK    4  A    between atoms: C_7  and  N_8
REMARK    5  A    between atoms: C_13  and  C_14
REMARK                            x       y       z     vdW  Elec       q    Type
REMARK                         _______ _______ _______ _____ _____    ______ ____
ROOT
ATOM      1  N   UNL     1      48.504   6.611  14.056  0.00  0.00    +0.000 N 
ATOM      2  C   UNL     1      48.829   6.090  15.293  0.00  0.00    +0.000 A 
ATOM      3  N   UNL     1      49.969   6.559  15.817  0.00  0.00    +0.000 NA
ATOM      4  C   UNL     1      50.379   6.044  16.989  0.00  0.00    +0.000 A 
ATOM      5  C   UNL     1      49.687   5.081  17.667  0.00  0.00    +0.000 A 
ATOM      6  C   UNL     1      48.522   4.678  17.056  0.00  0.00    +0.000 A 
ATOM      7  N   UNL     1      48.061   5.166  15.878  0.00  0.00    +0.000 NA
ATOM      8  H   UNL     1      49.067   7.450  13.973  0.00  0.00    +0.000 HD
ENDROOT
BRANCH   6   9
ATOM      9  C   UNL     1      47.701   3.608  17.700  0.00  0.00    +0.000 C 
ATOM     10  N   UNL     1      48.211   3.083  18.856  0.00  0.00    +0.000 N 
ATOM     11  O   UNL     1      46.633   3.229  17.235  0.00  0.00    +0.000 OA
ATOM     12  H   UNL     1      49.064   3.466  19.246  0.00  0.00    +0.000 HD
ATOM     13  H   UNL     1      47.666   2.408  19.373  0.00  0.00    +0.000 HD
ENDBRANCH   6   9
BRANCH   1  14
ATOM     14  C   UNL     1      47.093   6.763  13.758  0.00  0.00    +0.000 C 
BRANCH  14  18
ATOM     15  C   UNL     1      44.642   4.521  10.845  0.00  0.00    +0.000 C 
ATOM     16  C   UNL     1      45.659   5.543  10.319  0.00  0.00    +0.000 C 
ATOM     17  C   UNL     1      46.110   6.521  11.402  0.00  0.00    +0.000 C 
ATOM     18  C   UNL     1      46.680   5.792  12.632  0.00  0.00    +0.000 C 
ATOM     19  C   UNL     1      45.652   4.781  13.162  0.00  0.00    +0.000 C 
ATOM     20  C   UNL     1      45.204   3.799  12.079  0.00  0.00    +0.000 C 
BRANCH  15  21
ATOM     21  C   UNL     1      44.262   3.540   9.720  0.00  0.00    +0.000 C 
BRANCH  21  22
ATOM     22  N   UNL     1      44.203   4.196   8.419  0.00  0.00    +0.000 NA
ATOM     23  H   UNL     1      44.580   5.139   8.497  0.00  0.00    +0.000 HD
ATOM     24  H   UNL     1      43.233   4.295   8.126  0.00  0.00    +0.000 HD
ENDBRANCH  21  22
ENDBRANCH  15  21
ENDBRANCH  14  18
ENDBRANCH   1  14
TORSDOF 5
ENDMDL
MODEL 8
REMARK VINA RESULT:    -6.132      4.729      6.926
REMARK INTER + INTRA:          -8.112
REMARK INTER:                  -7.718
REMARK INTRA:                  -0.394
REMARK UNBOUND:                -0.367
REMARK  Name = 
REMARK  5 active torsions:
REMARK  status: ('A' for Active; 'I' for Inactive)
REMARK    1  A    between atoms: N_1  and  C_2
REMARK    2  A    between atoms: C_2  and  C_3
REMARK    3  A    between atoms: C_6  and  C_7
REMARK    4  A    between atoms: C_7  and  N_8
REMARK    5  A    between atoms: C_13  and  C_14
REMARK                            x       y       z     vdW  Elec       q    Type
REMARK                         _______ _______ _______ _____ _____    ______ ____
ROOT
ATOM      1  N   UNL     1      48.101   6.405  15.674  0.00  0.00    +0.000 N 
ATOM      2  C   UNL     1      48.273   5.391  16.597  0.00  0.00    +0.000 A 
ATOM      3  N   UNL     1      47.680   5.604  17.780  0.00  0.00    +0.000 NA
ATOM      4  C   UNL     1      47.863   4.688  18.747  0.00  0.00    +0.000 A 
ATOM      5  C   UNL     1      48.611   3.558  18.575  0.00  0.00    +0.000 A 
ATOM      6  C   UNL     1      49.163   3.423  17.323  0.00  0.00    +0.000 A 
ATOM      7  N   UNL     1      49.007   4.312  16.312  0.00  0.00    +0.000 NA
ATOM      8  H   UNL     1      47.313   6.940  16.022  0.00  0.00    +0.000 HD
ENDROOT
BRANCH   6   9
ATOM      9  C   UNL     1      50.024   2.235  17.036  0.00  0.00    +0.000 C 
ATOM     10  N   UNL     1      50.973   1.948  17.980  0.00  0.00    +0.000 N 
ATOM     11  O   UNL     1      49.886   1.550  16.030  0.00  0.00    +0.000 OA
ATOM     12  H   UNL     1      51.015   2.497  18.830  0.00  0.00    +0.000 HD
ATOM     13  H   UNL     1      51.535   1.116  17.876  0.00  0.00    +0.000 HD
ENDBRANCH   6   9
BRANCH   1  14
ATOM     14  C   UNL     1      48.035   6.016  14.279  0.00  0.00    +0.000 C 
BRANCH  14  18
ATOM     15  C   UNL     1      44.456   5.208  11.817  0.00  0.00    +0.000 C 
ATOM     16  C   UNL     1      44.864   4.180  12.881  0.00  0.00    +0.000 C 
ATOM     17  C   UNL     1      46.309   4.367  13.342  0.00  0.00    +0.000 C 
ATOM     18  C   UNL     1      46.567   5.794  13.858  0.00  0.00    +0.000 C 
ATOM     19  C   UNL     1      46.169   6.817  12.783  0.00  0.00    +0.000 C 
ATOM     20  C   UNL     1      44.722   6.634  12.326  0.00  0.00    +0.000 C 
BRANCH  15  21
ATOM     21  C   UNL     1      42.981   4.996  11.429  0.00  0.00    +0.000 C 
BRANCH  21  22
ATOM     22  N   UNL     1      42.160   6.161  11.739  0.00  0.00    +0.000 NA
ATOM     23  H   UNL     1      42.489   6.961  11.201  0.00  0.00    +0.000 HD
ATOM     24  H   UNL     1      42.268   6.408  12.721  0.00  0.00    +0.000 HD
ENDBRANCH  21  22
ENDBRANCH  15  21
ENDBRANCH  14  18
ENDBRANCH   1  14
TORSDOF 5
ENDMDL
MODEL 9
REMARK VINA RESULT:    -6.083      3.300      6.020
REMARK INTER + INTRA:          -8.051
REMARK INTER:                  -7.774
REMARK INTRA:                  -0.276
REMARK UNBOUND:                -0.367
REMARK  Name = 
REMARK  5 active torsions:
REMARK  status: ('A' for Active; 'I' for Inactive)
REMARK    1  A    between atoms: N_1  and  C_2
REMARK    2  A    between atoms: C_2  and  C_3
REMARK    3  A    between atoms: C_6  and  C_7
REMARK    4  A    between atoms: C_7  and  N_8
REMARK    5  A    between atoms: C_13  and  C_14
REMARK                            x       y       z     vdW  Elec       q    Type
REMARK                         _______ _______ _______ _____ _____    ______ ____
ROOT
ATOM      1  N   UNL     1      45.295   5.860  13.276  0.00  0.00    +0.000 N 
ATOM      2  C   UNL     1      44.824   4.928  12.372  0.00  0.00    +0.000 A 
ATOM      3  N   UNL     1      44.136   3.916  12.919  0.00  0.00    +0.000 NA
ATOM      4  C   UNL     1      43.706   2.937  12.104  0.00  0.00    +0.000 A 
ATOM      5  C   UNL     1      43.930   2.934  10.756  0.00  0.00    +0.000 A 
ATOM      6  C   UNL     1      44.629   4.022  10.290  0.00  0.00    +0.000 A 
ATOM      7  N   UNL     1      45.082   5.037  11.066  0.00  0.00    +0.000 NA
ATOM      8  H   UNL     1      44.750   5.705  14.116  0.00  0.00    +0.000 HD
ENDROOT
BRANCH   6   9
ATOM      9  C   UNL     1      44.952   4.105   8.833  0.00  0.00    +0.000 C 
ATOM     10  N   UNL     1      44.203   3.305   8.013  0.00  0.00    +0.000 N 
ATOM     11  O   UNL     1      45.822   4.846   8.392  0.00  0.00    +0.000 OA
ATOM     12  H   UNL     1      43.449   2.753   8.405  0.00  0.00    +0.000 HD
ATOM     13  H   UNL     1      44.327   3.371   7.014  0.00  0.00    +0.000 HD
ENDBRANCH   6   9
BRANCH   1  14
ATOM     14  C   UNL     1      45.374   7.235  12.818  0.00  0.00    +0.000 C 
BRANCH  14  18
ATOM     15  C   UNL     1      49.489   8.488  11.812  0.00  0.00    +0.000 C 
ATOM     16  C   UNL     1      48.493   9.552  12.294  0.00  0.00    +0.000 C 
ATOM     17  C   UNL     1      47.045   9.076  12.194  0.00  0.00    +0.000 C 
ATOM     18  C   UNL     1      46.820   7.757  12.953  0.00  0.00    +0.000 C 
ATOM     19  C   UNL     1      47.810   6.694  12.456  0.00  0.00    +0.000 C 
ATOM     20  C   UNL     1      49.259   7.166  12.562  0.00  0.00    +0.000 C 
BRANCH  15  21
ATOM     21  C   UNL     1      50.928   9.010  11.981  0.00  0.00    +0.000 C 
BRANCH  21  22
ATOM     22  N   UNL     1      51.886   7.925  12.161  0.00  0.00    +0.000 NA
ATOM     23  H   UNL     1      52.251   7.949  13.111  0.00  0.00    +0.000 HD
ATOM     24  H   UNL     1      52.682   8.061  11.541  0.00  0.00    +0.000 HD
ENDBRANCH  21  22
ENDBRANCH  15  21
ENDBRANCH  14  18
ENDBRANCH   1  14
TORSDOF 5
ENDMDL
