MODEL 1
REMARK VINA RESULT:    -8.974      0.000      0.000
REMARK INTER + INTRA:         -12.359
REMARK INTER:                 -11.597
REMARK INTRA:                  -0.762
REMARK UNBOUND:                -0.762
REMARK  Name = 
REMARK  5 active torsions:
REMARK  status: ('A' for Active; 'I' for Inactive)
REMARK    1  A    between atoms: C_2  and  C_4
REMARK    2  A    between atoms: C_7  and  N_8
REMARK    3  A    between atoms: N_8  and  C_9
REMARK    4  A    between atoms: C_9  and  C_10
REMARK    5  A    between atoms: C_14  and  C_15
REMARK                            x       y       z     vdW  Elec       q    Type
REMARK                         _______ _______ _______ _____ _____    ______ ____
ROOT
ATOM      1  N   UNL     1      43.792   4.751  10.052  0.00  0.00    +0.000 N 
ATOM      2  H   UNL     1      42.909   5.030   9.636  0.00  0.00    +0.000 HD
ENDROOT
BRANCH   1   6
ATOM      3  C   UNL     1      46.349   2.276   7.798  0.00  0.00    +0.000 A 
ATOM      4  C   UNL     1      45.479   1.702   8.727  0.00  0.00    +0.000 A 
ATOM      5  C   UNL     1      44.600   2.509   9.455  0.00  0.00    +0.000 A 
ATOM      6  C   UNL     1      44.553   3.895   9.267  0.00  0.00    +0.000 A 
ATOM      7  C   UNL     1      45.452   4.454   8.346  0.00  0.00    +0.000 A 
ATOM      8  C   UNL     1      46.343   3.658   7.617  0.00  0.00    +0.000 A 
BRANCH   3  10
ATOM      9  N   UNL     1      48.417   2.077   6.535  0.00  0.00    +0.000 N 
ATOM     10  C   UNL     1      47.306   1.447   7.026  0.00  0.00    +0.000 C 
ATOM     11  O   UNL     1      47.136   0.246   6.862  0.00  0.00    +0.000 OA
ATOM     12  H   UNL     1      49.114   1.488   6.101  0.00  0.00    +0.000 HD
ATOM     13  H   UNL     1      48.706   2.990   6.856  0.00  0.00    +0.000 HD
ENDBRANCH   3  10
ENDBRANCH   1   6
BRANCH   1  14
ATOM     14  C   UNL     1      43.773   4.683  11.501  0.00  0.00    +0.000 C 
BRANCH  14  15
ATOM     15  C   UNL     1      45.076   5.215  12.040  0.00  0.00    +0.000 A 
ATOM     16  C   UNL     1      45.697   6.302  11.409  0.00  0.00    +0.000 A 
ATOM     17  C   UNL     1      46.923   6.775  11.863  0.00  0.00    +0.000 A 
ATOM     18  C   UNL     1      47.527   6.181  12.972  0.00  0.00    +0.000 A 
ATOM     19  C   UNL     1      46.916   5.115  13.658  0.00  0.00    +0.000 A 
ATOM     20  C   UNL     1      45.697   4.624  13.151  0.00  0.00    +0.000 A 
BRANCH  19  21
ATOM     21  C   UNL     1      47.496   4.555  14.892  0.00  0.00    +0.000 A 
ATOM     22  C   UNL     1      47.929   5.357  15.949  0.00  0.00    +0.000 A 
ATOM     23  N   UNL     1      48.428   4.867  17.113  0.00  0.00    +0.000 NA
ATOM     24  C   UNL     1      48.474   3.521  17.187  0.00  0.00    +0.000 A 
ATOM     25  C   UNL     1      48.047   2.707  16.152  0.00  0.00    +0.000 A 
ATOM     26  N   UNL     1      47.550   3.200  14.994  0.00  0.00    +0.000 NA
ENDBRANCH  19  21
ENDBRANCH  14  15
ENDBRANCH   1  14
TORSDOF 5
ENDMDL
MODEL 2
REMARK VINA RESULT:    -8.516      2.337      3.787
REMARK INTER + INTRA:         -11.767
REMARK INTER:                 -10.867
REMARK INTRA:                  -0.900
REMARK UNBOUND:                -0.762
REMARK  Name = 
REMARK  5 active torsions:
REMARK  status: ('A' for Active; 'I' for Inactive)
REMARK    1  A    between atoms: C_2  and  C_4
REMARK    2  A    between atoms: C_7  and  N_8
REMARK    3  A    between atoms: N_8  and  C_9
REMARK    4  A    between atoms: C_9  and  C_10
REMARK    5  A    between atoms: C_14  and  C_15
REMARK                            x       y       z     vdW  Elec       q    Type
REMARK                         _______ _______ _______ _____ _____    ______ ____
ROOT
ATOM      1  N   UNL     1      43.723   4.734   9.913  0.00  0.00    +0.000 N 
ATOM      2  H   UNL     1      42.866   4.869   9.385  0.00  0.00    +0.000 HD
ENDROOT
BRANCH   1   6
ATOM      3  C   UNL     1      46.419   2.290   7.790  0.00  0.00    +0.000 A 
ATOM      4  C   UNL     1      46.448   3.673   7.600  0.00  0.00    +0.000 A 
ATOM      5  C   UNL     1      45.583   4.499   8.326  0.00  0.00    +0.000 A 
ATOM      6  C   UNL     1      44.687   3.975   9.262  0.00  0.00    +0.000 A 
ATOM      7  C   UNL     1      44.656   2.581   9.421  0.00  0.00    +0.000 A 
ATOM      8  C   UNL     1      45.511   1.743   8.695  0.00  0.00    +0.000 A 
BRANCH   3  10
ATOM      9  N   UNL     1      48.373   1.966   6.382  0.00  0.00    +0.000 N 
ATOM     10  C   UNL     1      47.310   1.389   7.021  0.00  0.00    +0.000 C 
ATOM     11  O   UNL     1      47.132   0.179   6.985  0.00  0.00    +0.000 OA
ATOM     12  H   UNL     1      49.034   1.336   5.948  0.00  0.00    +0.000 HD
ATOM     13  H   UNL     1      48.685   2.903   6.590  0.00  0.00    +0.000 HD
ENDBRANCH   3  10
ENDBRANCH   1   6
BRANCH   1  14
ATOM     14  C   UNL     1      43.539   4.707  11.352  0.00  0.00    +0.000 C 
BRANCH  14  15
ATOM     15  C   UNL     1      44.849   5.024  12.025  0.00  0.00    +0.000 A 
ATOM     16  C   UNL     1      45.455   4.067  12.852  0.00  0.00    +0.000 A 
ATOM     17  C   UNL     1      46.639   4.360  13.519  0.00  0.00    +0.000 A 
ATOM     18  C   UNL     1      47.244   5.605  13.343  0.00  0.00    +0.000 A 
ATOM     19  C   UNL     1      46.690   6.577  12.489  0.00  0.00    +0.000 A 
ATOM     20  C   UNL     1      45.466   6.274  11.861  0.00  0.00    +0.000 A 
BRANCH  19  21
ATOM     21  C   UNL     1      47.379   7.851  12.216  0.00  0.00    +0.000 A 
ATOM     22  C   UNL     1      48.700   7.908  11.769  0.00  0.00    +0.000 A 
ATOM     23  N   UNL     1      49.345   9.065  11.470  0.00  0.00    +0.000 NA
ATOM     24  C   UNL     1      48.608  10.183  11.630  0.00  0.00    +0.000 A 
ATOM     25  C   UNL     1      47.296  10.148  12.068  0.00  0.00    +0.000 A 
ATOM     26  N   UNL     1      46.656   8.992  12.364  0.00  0.00    +0.000 NA
ENDBRANCH  19  21
ENDBRANCH  14  15
ENDBRANCH   1  14
TORSDOF 5
ENDMDL
MODEL 3
REMARK VINA RESULT:    -7.960      2.119      2.806
REMARK INTER + INTRA:         -11.048
REMARK INTER:                 -10.292
REMARK INTRA:                  -0.757
REMARK UNBOUND:                -0.762
REMARK  Name = 
REMARK  5 active torsions:
REMARK  status: ('A' for Active; 'I' for Inactive)
REMARK    1  A    between atoms: C_2  and  C_4
REMARK    2  A    between atoms: C_7  and  N_8
REMARK    3  A    between atoms: N_8  and  C_9
REMARK    4  A    between atoms: C_9  and  C_10
REMARK    5  A    between atoms: C_14  and  C_15
REMARK                            x       y       z     vdW  Elec       q    Type
REMARK                         _______ _______ _______ _____ _____    ______ ____
ROOT
ATOM      1  N   UNL     1      43.769   3.391  10.494  0.00  0.00    +0.000 N 
ATOM      2  H   UNL     1      42.875   2.909  10.482  0.00  0.00    +0.000 HD
ENDROOT
BRANCH   1   6
ATOM      3  C   UNL     1      46.534   2.586   7.419  0.00  0.00    +0.000 A 
ATOM      4  C   UNL     1      45.982   1.527   8.142  0.00  0.00    +0.000 A 
ATOM      5  C   UNL     1      45.036   1.778   9.141  0.00  0.00    +0.000 A 
ATOM      6  C   UNL     1      44.607   3.077   9.432  0.00  0.00    +0.000 A 
ATOM      7  C   UNL     1      45.190   4.130   8.710  0.00  0.00    +0.000 A 
ATOM      8  C   UNL     1      46.145   3.892   7.713  0.00  0.00    +0.000 A 
BRANCH   3  10
ATOM      9  N   UNL     1      47.417   3.059   5.204  0.00  0.00    +0.000 N 
ATOM     10  C   UNL     1      47.553   2.352   6.367  0.00  0.00    +0.000 C 
ATOM     11  O   UNL     1      48.495   1.591   6.539  0.00  0.00    +0.000 OA
ATOM     12  H   UNL     1      48.170   2.973   4.535  0.00  0.00    +0.000 HD
ATOM     13  H   UNL     1      46.808   3.860   5.127  0.00  0.00    +0.000 HD
ENDBRANCH   3  10
ENDBRANCH   1   6
BRANCH   1  14
ATOM     14  C   UNL     1      44.264   3.693  11.825  0.00  0.00    +0.000 C 
BRANCH  14  15
ATOM     15  C   UNL     1      44.724   5.127  11.868  0.00  0.00    +0.000 A 
ATOM     16  C   UNL     1      43.841   6.151  11.497  0.00  0.00    +0.000 A 
ATOM     17  C   UNL     1      44.263   7.476  11.485  0.00  0.00    +0.000 A 
ATOM     18  C   UNL     1      45.566   7.792  11.872  0.00  0.00    +0.000 A 
ATOM     19  C   UNL     1      46.469   6.797  12.292  0.00  0.00    +0.000 A 
ATOM     20  C   UNL     1      46.033   5.459  12.250  0.00  0.00    +0.000 A 
BRANCH  19  21
ATOM     21  C   UNL     1      47.810   7.136  12.804  0.00  0.00    +0.000 A 
ATOM     22  C   UNL     1      48.296   6.644  14.016  0.00  0.00    +0.000 A 
ATOM     23  N   UNL     1      49.541   6.906  14.490  0.00  0.00    +0.000 NA
ATOM     24  C   UNL     1      50.300   7.684  13.692  0.00  0.00    +0.000 A 
ATOM     25  C   UNL     1      49.839   8.178  12.484  0.00  0.00    +0.000 A 
ATOM     26  N   UNL     1      48.597   7.915  12.014  0.00  0.00    +0.000 NA
ENDBRANCH  19  21
ENDBRANCH  14  15
ENDBRANCH   1  14
TORSDOF 5
ENDMDL
MODEL 4
REMARK VINA RESULT:    -7.406      3.378      6.929
REMARK INTER + INTRA:         -10.333
REMARK INTER:                  -9.407
REMARK INTRA:                  -0.926
REMARK UNBOUND:                -0.762
REMARK  Name = 
REMARK  5 active torsions:
REMARK  status: ('A' for Active; 'I' for Inactive)
REMARK    1  A    between atoms: C_2  and  C_4
REMARK    2  A    between atoms: C_7  and  N_8
REMARK    3  A    between atoms: N_8  and  C_9
REMARK    4  A    between atoms: C_9  and  C_10
REMARK    5  A    between atoms: C_14  and  C_15
REMARK                            x       y       z     vdW  Elec       q    Type
REMARK                         _______ _______ _______ _____ _____    ______ ____
ROOT
ATOM      1  N   UNL     1      44.139   6.659  12.490  0.00  0.00    +0.000 N 
ATOM      2  H   UNL     1      43.636   7.325  13.067  0.00  0.00    +0.000 HD
ENDROOT
BRANCH   1   6
ATOM      3  C   UNL     1      48.296   7.132  12.985  0.00  0.00    +0.000 A 
ATOM      4  C   UNL     1      47.666   5.997  13.500  0.00  0.00    +0.000 A 
ATOM      5  C   UNL     1      46.293   5.811  13.311  0.00  0.00    +0.000 A 
ATOM      6  C   UNL     1      45.521   6.732  12.596  0.00  0.00    +0.000 A 
ATOM      7  C   UNL     1      46.168   7.877  12.107  0.00  0.00    +0.000 A 
ATOM      8  C   UNL     1      47.540   8.080  12.297  0.00  0.00    +0.000 A 
BRANCH   3  10
ATOM      9  N   UNL     1      50.522   7.447  12.063  0.00  0.00    +0.000 N 
ATOM     10  C   UNL     1      49.746   7.366  13.187  0.00  0.00    +0.000 C 
ATOM     11  O   UNL     1      50.227   7.518  14.301  0.00  0.00    +0.000 OA
ATOM     12  H   UNL     1      51.488   7.710  12.202  0.00  0.00    +0.000 HD
ATOM     13  H   UNL     1      50.129   7.572  11.142  0.00  0.00    +0.000 HD
ENDBRANCH   3  10
ENDBRANCH   1   6
BRANCH   1  14
ATOM     14  C   UNL     1      43.462   6.311  11.254  0.00  0.00    +0.000 C 
BRANCH  14  15
ATOM     15  C   UNL     1      43.703   4.856  10.949  0.00  0.00    +0.000 A 
ATOM     16  C   UNL     1      43.071   3.870  11.720  0.00  0.00    +0.000 A 
ATOM     17  C   UNL     1      43.319   2.523  11.484  0.00  0.00    +0.000 A 
ATOM     18  C   UNL     1      44.181   2.147  10.453  0.00  0.00    +0.000 A 
ATOM     19  C   UNL     1      44.802   3.105   9.629  0.00  0.00    +0.000 A 
ATOM     20  C   UNL     1      44.571   4.464   9.919  0.00  0.00    +0.000 A 
BRANCH  19  21
ATOM     21  C   UNL     1      45.628   2.712   8.473  0.00  0.00    +0.000 A 
ATOM     22  C   UNL     1      45.992   3.612   7.470  0.00  0.00    +0.000 A 
ATOM     23  N   UNL     1      46.786   3.288   6.418  0.00  0.00    +0.000 NA
ATOM     24  C   UNL     1      47.217   2.010   6.406  0.00  0.00    +0.000 A 
ATOM     25  C   UNL     1      46.871   1.103   7.392  0.00  0.00    +0.000 A 
ATOM     26  N   UNL     1      46.080   1.430   8.440  0.00  0.00    +0.000 NA
ENDBRANCH  19  21
ENDBRANCH  14  15
ENDBRANCH   1  14
TORSDOF 5
ENDMDL
MODEL 5
REMARK VINA RESULT:    -6.901      2.928      7.475
REMARK INTER + INTRA:          -9.680
REMARK INTER:                  -9.099
REMARK INTRA:                  -0.581
REMARK UNBOUND:                -0.762
REMARK  Name = 
REMARK  5 active torsions:
REMARK  status: ('A' for Active; 'I' for Inactive)
REMARK    1  A    between atoms: C_2  and  C_4
REMARK    2  A    between atoms: C_7  and  N_8
REMARK    3  A    between atoms: N_8  and  C_9
REMARK    4  A    between atoms: C_9  and  C_10
REMARK    5  A    between atoms: C_14  and  C_15
REMARK                            x       y       z     vdW  Elec       q    Type
REMARK                         _______ _______ _______ _____ _____    ______ ____
ROOT
ATOM      1  N   UNL     1      47.173   6.986  12.531  0.00  0.00    +0.000 N 
ATOM      2  H   UNL     1      47.747   6.640  11.769  0.00  0.00    +0.000 HD
ENDROOT
BRANCH   1   6
ATOM      3  C   UNL     1      47.870   4.755  16.037  0.00  0.00    +0.000 A 
ATOM      4  C   UNL     1      48.513   5.982  15.862  0.00  0.00    +0.000 A 
ATOM      5  C   UNL     1      48.263   6.749  14.720  0.00  0.00    +0.000 A 
ATOM      6  C   UNL     1      47.361   6.326  13.739  0.00  0.00    +0.000 A 
ATOM      7  C   UNL     1      46.742   5.080  13.921  0.00  0.00    +0.000 A 
ATOM      8  C   UNL     1      46.991   4.298  15.055  0.00  0.00    +0.000 A 
BRANCH   3  10
ATOM      9  N   UNL     1      47.068   3.220  17.741  0.00  0.00    +0.000 N 
ATOM     10  C   UNL     1      48.130   3.912  17.228  0.00  0.00    +0.000 C 
ATOM     11  O   UNL     1      49.249   3.805  17.712  0.00  0.00    +0.000 OA
ATOM     12  H   UNL     1      47.273   2.568  18.486  0.00  0.00    +0.000 HD
ATOM     13  H   UNL     1      46.207   3.093  17.230  0.00  0.00    +0.000 HD
ENDBRANCH   3  10
ENDBRANCH   1   6
BRANCH   1  14
ATOM     14  C   UNL     1      45.888   7.517  12.116  0.00  0.00    +0.000 C 
BRANCH  14  15
ATOM     15  C   UNL     1      45.099   6.429  11.435  0.00  0.00    +0.000 A 
ATOM     16  C   UNL     1      43.739   6.265  11.735  0.00  0.00    +0.000 A 
ATOM     17  C   UNL     1      43.007   5.237  11.152  0.00  0.00    +0.000 A 
ATOM     18  C   UNL     1      43.624   4.378  10.241  0.00  0.00    +0.000 A 
ATOM     19  C   UNL     1      44.976   4.535   9.882  0.00  0.00    +0.000 A 
ATOM     20  C   UNL     1      45.707   5.555  10.521  0.00  0.00    +0.000 A 
BRANCH  19  21
ATOM     21  C   UNL     1      45.602   3.700   8.841  0.00  0.00    +0.000 A 
ATOM     22  C   UNL     1      45.633   2.306   8.916  0.00  0.00    +0.000 A 
ATOM     23  N   UNL     1      46.165   1.511   7.953  0.00  0.00    +0.000 NA
ATOM     24  C   UNL     1      46.669   2.169   6.889  0.00  0.00    +0.000 A 
ATOM     25  C   UNL     1      46.645   3.550   6.793  0.00  0.00    +0.000 A 
ATOM     26  N   UNL     1      46.113   4.339   7.756  0.00  0.00    +0.000 NA
ENDBRANCH  19  21
ENDBRANCH  14  15
ENDBRANCH   1  14
TORSDOF 5
ENDMDL
MODEL 6
REMARK VINA RESULT:    -6.474      2.772      4.023
REMARK INTER + INTRA:          -9.129
REMARK INTER:                  -8.380
REMARK INTRA:                  -0.748
REMARK UNBOUND:                -0.762
REMARK  Name = 
REMARK  5 active torsions:
REMARK  status: ('A' for Active; 'I' for Inactive)
REMARK    1  A    between atoms: C_2  and  C_4
REMARK    2  A    between atoms: C_7  and  N_8
REMARK    3  A    between atoms: N_8  and  C_9
REMARK    4  A    between atoms: C_9  and  C_10
REMARK    5  A    between atoms: C_14  and  C_15
REMARK                            x       y       z     vdW  Elec       q    Type
REMARK                         _______ _______ _______ _____ _____    ______ ____
ROOT
ATOM      1  N   UNL     1      45.911   7.781  12.687  0.00  0.00    +0.000 N 
ATOM      2  H   UNL     1      45.576   8.137  13.577  0.00  0.00    +0.000 HD
ENDROOT
BRANCH   1   6
ATOM      3  C   UNL     1      44.335   4.089  11.409  0.00  0.00    +0.000 A 
ATOM      4  C   UNL     1      43.999   4.581  12.672  0.00  0.00    +0.000 A 
ATOM      5  C   UNL     1      44.486   5.822  13.093  0.00  0.00    +0.000 A 
ATOM      6  C   UNL     1      45.301   6.606  12.270  0.00  0.00    +0.000 A 
ATOM      7  C   UNL     1      45.646   6.084  11.014  0.00  0.00    +0.000 A 
ATOM      8  C   UNL     1      45.172   4.839  10.583  0.00  0.00    +0.000 A 
BRANCH   3  10
ATOM      9  N   UNL     1      44.507   2.205   9.883  0.00  0.00    +0.000 N 
ATOM     10  C   UNL     1      43.849   2.769  10.942  0.00  0.00    +0.000 C 
ATOM     11  O   UNL     1      42.928   2.186  11.497  0.00  0.00    +0.000 OA
ATOM     12  H   UNL     1      44.239   1.262   9.638  0.00  0.00    +0.000 HD
ATOM     13  H   UNL     1      45.407   2.536   9.568  0.00  0.00    +0.000 HD
ENDBRANCH   3  10
ENDBRANCH   1   6
BRANCH   1  14
ATOM     14  C   UNL     1      47.303   8.087  12.411  0.00  0.00    +0.000 C 
BRANCH  14  15
ATOM     15  C   UNL     1      48.137   7.731  13.614  0.00  0.00    +0.000 A 
ATOM     16  C   UNL     1      49.183   8.578  14.010  0.00  0.00    +0.000 A 
ATOM     17  C   UNL     1      49.992   8.242  15.089  0.00  0.00    +0.000 A 
ATOM     18  C   UNL     1      49.745   7.067  15.801  0.00  0.00    +0.000 A 
ATOM     19  C   UNL     1      48.679   6.213  15.462  0.00  0.00    +0.000 A 
ATOM     20  C   UNL     1      47.903   6.551  14.337  0.00  0.00    +0.000 A 
BRANCH  19  21
ATOM     21  C   UNL     1      48.348   5.029  16.276  0.00  0.00    +0.000 A 
ATOM     22  C   UNL     1      47.084   4.436  16.258  0.00  0.00    +0.000 A 
ATOM     23  N   UNL     1      46.765   3.321  16.964  0.00  0.00    +0.000 NA
ATOM     24  C   UNL     1      47.773   2.806  17.696  0.00  0.00    +0.000 A 
ATOM     25  C   UNL     1      49.034   3.376  17.725  0.00  0.00    +0.000 A 
ATOM     26  N   UNL     1      49.349   4.487  17.019  0.00  0.00    +0.000 NA
ENDBRANCH  19  21
ENDBRANCH  14  15
ENDBRANCH   1  14
TORSDOF 5
ENDMDL
MODEL 7
REMARK VINA RESULT:    -6.392      3.142      8.221
REMARK INTER + INTRA:          -9.022
REMARK INTER:                  -8.601
REMARK INTRA:                  -0.422
REMARK UNBOUND:                -0.762
REMARK  Name = 
REMARK  5 active torsions:
REMARK  status: ('A' for Active; 'I' for Inactive)
REMARK    1  A    between atoms: C_2  and  C_4
REMARK    2  A    between atoms: C_7  and  N_8
REMARK    3  A    between atoms: N_8  and  C_9
REMARK    4  A    between atoms: C_9  and  C_10
REMARK    5  A    between atoms: C_14  and  C_15
REMARK                            x       y       z     vdW  Elec       q    Type
REMARK                         _______ _______ _______ _____ _____    ______ ____
ROOT
ATOM      1  N   UNL     1      46.425   4.378  14.967  0.00  0.00    +0.000 N 
ATOM      2  H   UNL     1      45.570   3.939  15.292  0.00  0.00    +0.000 HD
ENDROOT
BRANCH   1   6
ATOM      3  C   UNL     1      49.660   4.311  17.666  0.00  0.00    +0.000 A 
ATOM      4  C   UNL     1      49.379   5.481  16.956  0.00  0.00    +0.000 A 
ATOM      5  C   UNL     1      48.287   5.527  16.084  0.00  0.00    +0.000 A 
ATOM      6  C   UNL     1      47.443   4.425  15.911  0.00  0.00    +0.000 A 
ATOM      7  C   UNL     1      47.755   3.252  16.615  0.00  0.00    +0.000 A 
ATOM      8  C   UNL     1      48.851   3.190  17.484  0.00  0.00    +0.000 A 
BRANCH   3  10
ATOM      9  N   UNL     1      50.568   4.361  19.920  0.00  0.00    +0.000 N 
ATOM     10  C   UNL     1      50.822   4.227  18.582  0.00  0.00    +0.000 C 
ATOM     11  O   UNL     1      51.954   4.011  18.172  0.00  0.00    +0.000 OA
ATOM     12  H   UNL     1      51.346   4.198  20.544  0.00  0.00    +0.000 HD
ATOM     13  H   UNL     1      49.636   4.292  20.302  0.00  0.00    +0.000 HD
ENDBRANCH   3  10
ENDBRANCH   1   6
BRANCH   1  14
ATOM     14  C   UNL     1      46.221   5.418  13.976  0.00  0.00    +0.000 C 
BRANCH  14  15
ATOM     15  C   UNL     1      45.256   4.924  12.930  0.00  0.00    +0.000 A 
ATOM     16  C   UNL     1      43.878   4.957  13.185  0.00  0.00    +0.000 A 
ATOM     17  C   UNL     1      42.976   4.461  12.251  0.00  0.00    +0.000 A 
ATOM     18  C   UNL     1      43.443   3.952  11.038  0.00  0.00    +0.000 A 
ATOM     19  C   UNL     1      44.816   3.940  10.727  0.00  0.00    +0.000 A 
ATOM     20  C   UNL     1      45.713   4.404  11.709  0.00  0.00    +0.000 A 
BRANCH  19  21
ATOM     21  C   UNL     1      45.306   3.503   9.407  0.00  0.00    +0.000 A 
ATOM     22  C   UNL     1      45.655   4.404   8.401  0.00  0.00    +0.000 A 
ATOM     23  N   UNL     1      46.149   4.030   7.192  0.00  0.00    +0.000 NA
ATOM     24  C   UNL     1      46.291   2.700   7.024  0.00  0.00    +0.000 A 
ATOM     25  C   UNL     1      45.954   1.789   8.011  0.00  0.00    +0.000 A 
ATOM     26  N   UNL     1      45.463   2.166   9.215  0.00  0.00    +0.000 NA
ENDBRANCH  19  21
ENDBRANCH  14  15
ENDBRANCH   1  14
TORSDOF 5
ENDMDL
MODEL 8
REMARK VINA RESULT:    -6.244      3.955      8.366
REMARK INTER + INTRA:          -8.832
REMARK INTER:                  -8.205
REMARK INTRA:                  -0.627
REMARK UNBOUND:                -0.762
REMARK  Name = 
REMARK  5 active torsions:
REMARK  status: ('A' for Active; 'I' for Inactive)
REMARK    1  A    between atoms: C_2  and  C_4
REMARK    2  A    between atoms: C_7  and  N_8
REMARK    3  A    between atoms: N_8  and  C_9
REMARK    4  A    between atoms: C_9  and  C_10
REMARK    5  A    between atoms: C_14  and  C_15
REMARK                            x       y       z     vdW  Elec       q    Type
REMARK                         _______ _______ _______ _____ _____    ______ ____
ROOT
ATOM      1  N   UNL     1      49.048   4.511  17.356  0.00  0.00    +0.000 N 
ATOM      2  H   UNL     1      49.333   5.448  17.086  0.00  0.00    +0.000 HD
ENDROOT
BRANCH   1   6
ATOM      3  C   UNL     1      52.261   1.827  17.831  0.00  0.00    +0.000 A 
ATOM      4  C   UNL     1      52.413   3.159  18.223  0.00  0.00    +0.000 A 
ATOM      5  C   UNL     1      51.342   4.051  18.104  0.00  0.00    +0.000 A 
ATOM      6  C   UNL     1      50.099   3.640  17.612  0.00  0.00    +0.000 A 
ATOM      7  C   UNL     1      49.974   2.304  17.201  0.00  0.00    +0.000 A 
ATOM      8  C   UNL     1      51.040   1.404  17.307  0.00  0.00    +0.000 A 
BRANCH   3  10
ATOM      9  N   UNL     1      53.543  -0.008  16.884  0.00  0.00    +0.000 N 
ATOM     10  C   UNL     1      53.383   0.864  17.927  0.00  0.00    +0.000 C 
ATOM     11  O   UNL     1      54.159   0.867  18.873  0.00  0.00    +0.000 OA
ATOM     12  H   UNL     1      54.369  -0.590  16.907  0.00  0.00    +0.000 HD
ATOM     13  H   UNL     1      53.084   0.124  15.995  0.00  0.00    +0.000 HD
ENDBRANCH   3  10
ENDBRANCH   1   6
BRANCH   1  14
ATOM     14  C   UNL     1      47.793   4.079  16.769  0.00  0.00    +0.000 C 
BRANCH  14  15
ATOM     15  C   UNL     1      47.569   4.820  15.477  0.00  0.00    +0.000 A 
ATOM     16  C   UNL     1      48.331   5.961  15.189  0.00  0.00    +0.000 A 
ATOM     17  C   UNL     1      48.105   6.685  14.024  0.00  0.00    +0.000 A 
ATOM     18  C   UNL     1      47.131   6.257  13.120  0.00  0.00    +0.000 A 
ATOM     19  C   UNL     1      46.374   5.093  13.353  0.00  0.00    +0.000 A 
ATOM     20  C   UNL     1      46.589   4.405  14.562  0.00  0.00    +0.000 A 
BRANCH  19  21
ATOM     21  C   UNL     1      45.421   4.578  12.353  0.00  0.00    +0.000 A 
ATOM     22  C   UNL     1      45.265   5.162  11.095  0.00  0.00    +0.000 A 
ATOM     23  N   UNL     1      44.426   4.683  10.141  0.00  0.00    +0.000 NA
ATOM     24  C   UNL     1      43.740   3.576  10.492  0.00  0.00    +0.000 A 
ATOM     25  C   UNL     1      43.883   2.980  11.733  0.00  0.00    +0.000 A 
ATOM     26  N   UNL     1      44.721   3.460  12.682  0.00  0.00    +0.000 NA
ENDBRANCH  19  21
ENDBRANCH  14  15
ENDBRANCH   1  14
TORSDOF 5
ENDMDL
