MODEL 1
REMARK VINA RESULT:    -8.045      0.000      0.000
REMARK INTER + INTRA:          -9.779
REMARK INTER:                  -9.927
REMARK INTRA:                   0.148
REMARK UNBOUND:                 0.148
REMARK  Name = 
REMARK  5 active torsions:
REMARK  status: ('A' for Active; 'I' for Inactive)
REMARK    1  A    between atoms: N_1  and  C_2
REMARK    2  A    between atoms: C_2  and  C_3
REMARK    3  A    between atoms: C_6  and  N_7
REMARK    4  A    between atoms: N_7  and  C_8
REMARK    5  A    between atoms: C_16  and  O_17
REMARK                            x       y       z     vdW  Elec       q    Type
REMARK                         _______ _______ _______ _____ _____    ______ ____
ROOT
ATOM      1  N   UNL     1      43.556   4.654   9.740  0.00  0.00    +0.000 N 
ATOM      2  H   UNL     1      42.638   4.576   9.307  0.00  0.00    +0.000 HD
ENDROOT
BRANCH   1   3
ATOM      3  C   UNL     1      43.552   5.143  11.116  0.00  0.00    +0.000 C 
ATOM      4  C   UNL     1      44.938   5.493  11.557  0.00  0.00    +0.000 A 
ATOM      5  C   UNL     1      45.739   6.526  11.122  0.00  0.00    +0.000 A 
ATOM      6  N   UNL     1      46.983   6.732  11.612  0.00  0.00    +0.000 NA
ATOM      7  C   UNL     1      47.429   5.871  12.561  0.00  0.00    +0.000 A 
ATOM      8  C   UNL     1      46.688   4.813  13.065  0.00  0.00    +0.000 A 
ATOM      9  C   UNL     1      45.418   4.643  12.546  0.00  0.00    +0.000 A 
ATOM     10  C   UNL     1      44.415   3.605  12.927  0.00  0.00    +0.000 C 
ATOM     11  C   UNL     1      43.175   3.967  12.085  0.00  0.00    +0.000 C 
BRANCH  11  12
ATOM     12  O   UNL     1      42.744   2.796  11.374  0.00  0.00    +0.000 OA
ATOM     13  H   UNL     1      43.221   2.054  11.801  0.00  0.00    +0.000 HD
ENDBRANCH  11  12
ENDBRANCH   1   3
BRANCH   1  17
ATOM     14  C   UNL     1      46.556   2.402   7.794  0.00  0.00    +0.000 A 
ATOM     15  C   UNL     1      46.483   3.785   7.595  0.00  0.00    +0.000 A 
ATOM     16  C   UNL     1      45.499   4.555   8.232  0.00  0.00    +0.000 A 
ATOM     17  C   UNL     1      44.583   3.976   9.111  0.00  0.00    +0.000 A 
ATOM     18  C   UNL     1      44.643   2.583   9.272  0.00  0.00    +0.000 A 
ATOM     19  C   UNL     1      45.612   1.804   8.629  0.00  0.00    +0.000 A 
BRANCH  14  20
ATOM     20  C   UNL     1      47.632   1.583   7.131  0.00  0.00    +0.000 C 
BRANCH  20  21
ATOM     21  N   UNL     1      48.568   2.433   6.401  0.00  0.00    +0.000 NA
ATOM     22  H   UNL     1      48.418   3.403   6.669  0.00  0.00    +0.000 HD
ATOM     23  H   UNL     1      48.354   2.372   5.406  0.00  0.00    +0.000 HD
ENDBRANCH  20  21
ENDBRANCH  14  20
ENDBRANCH   1  17
TORSDOF 5
ENDMDL
MODEL 2
REMARK VINA RESULT:    -6.513      2.838      5.852
REMARK INTER + INTRA:          -7.889
REMARK INTER:                  -7.441
REMARK INTRA:                  -0.448
REMARK UNBOUND:                 0.148
REMARK  Name = 
REMARK  5 active torsions:
REMARK  status: ('A' for Active; 'I' for Inactive)
REMARK    1  A    between atoms: N_1  and  C_2
REMARK    2  A    between atoms: C_2  and  C_3
REMARK    3  A    between atoms: C_6  and  N_7
REMARK    4  A    between atoms: N_7  and  C_8
REMARK    5  A    between atoms: C_16  and  O_17
REMARK                            x       y       z     vdW  Elec       q    Type
REMARK                         _______ _______ _______ _____ _____    ______ ____
ROOT
ATOM      1  N   UNL     1      44.517   7.017  12.316  0.00  0.00    +0.000 N 
ATOM      2  H   UNL     1      43.531   7.148  12.103  0.00  0.00    +0.000 HD
ENDROOT
BRANCH   1   3
ATOM      3  C   UNL     1      44.977   5.630  12.285  0.00  0.00    +0.000 C 
ATOM      4  C   UNL     1      45.064   5.133  10.878  0.00  0.00    +0.000 A 
ATOM      5  C   UNL     1      45.942   5.515   9.888  0.00  0.00    +0.000 A 
ATOM      6  N   UNL     1      45.912   4.977   8.647  0.00  0.00    +0.000 NA
ATOM      7  C   UNL     1      44.970   4.032   8.400  0.00  0.00    +0.000 A 
ATOM      8  C   UNL     1      44.055   3.580   9.338  0.00  0.00    +0.000 A 
ATOM      9  C   UNL     1      44.126   4.147  10.597  0.00  0.00    +0.000 A 
ATOM     10  C   UNL     1      43.279   3.826  11.784  0.00  0.00    +0.000 C 
ATOM     11  C   UNL     1      43.872   4.703  12.905  0.00  0.00    +0.000 C 
BRANCH  11  12
ATOM     12  O   UNL     1      42.810   5.455  13.511  0.00  0.00    +0.000 OA
ATOM     13  H   UNL     1      42.912   5.299  14.474  0.00  0.00    +0.000 HD
ENDBRANCH  11  12
ENDBRANCH   1   3
BRANCH   1  17
ATOM     14  C   UNL     1      47.114  10.340  12.051  0.00  0.00    +0.000 A 
ATOM     15  C   UNL     1      45.759  10.486  11.733  0.00  0.00    +0.000 A 
ATOM     16  C   UNL     1      44.876   9.400  11.817  0.00  0.00    +0.000 A 
ATOM     17  C   UNL     1      45.309   8.147  12.252  0.00  0.00    +0.000 A 
ATOM     18  C   UNL     1      46.678   8.003  12.531  0.00  0.00    +0.000 A 
ATOM     19  C   UNL     1      47.569   9.078  12.436  0.00  0.00    +0.000 A 
BRANCH  14  20
ATOM     20  C   UNL     1      48.053  11.516  11.988  0.00  0.00    +0.000 C 
BRANCH  20  21
ATOM     21  N   UNL     1      48.924  11.433  10.821  0.00  0.00    +0.000 NA
ATOM     22  H   UNL     1      48.863  10.499  10.422  0.00  0.00    +0.000 HD
ATOM     23  H   UNL     1      49.890  11.553  11.126  0.00  0.00    +0.000 HD
ENDBRANCH  20  21
ENDBRANCH  14  20
ENDBRANCH   1  17
TORSDOF 5
ENDMDL
MODEL 3
REMARK VINA RESULT:    -6.264      3.981      7.317
REMARK INTER + INTRA:          -7.581
REMARK INTER:                  -7.151
REMARK INTRA:                  -0.431
REMARK UNBOUND:                 0.148
REMARK  Name = 
REMARK  5 active torsions:
REMARK  status: ('A' for Active; 'I' for Inactive)
REMARK    1  A    between atoms: N_1  and  C_2
REMARK    2  A    between atoms: C_2  and  C_3
REMARK    3  A    between atoms: C_6  and  N_7
REMARK    4  A    between atoms: N_7  and  C_8
REMARK    5  A    between atoms: C_16  and  O_17
REMARK                            x       y       z     vdW  Elec       q    Type
REMARK                         _______ _______ _______ _____ _____    ______ ____
ROOT
ATOM      1  N   UNL     1      47.111   4.779  14.011  0.00  0.00    +0.000 N 
ATOM      2  H   UNL     1      47.425   3.996  13.442  0.00  0.00    +0.000 HD
ENDROOT
BRANCH   1   3
ATOM      3  C   UNL     1      46.020   5.563  13.437  0.00  0.00    +0.000 C 
ATOM      4  C   UNL     1      45.172   4.715  12.544  0.00  0.00    +0.000 A 
ATOM      5  C   UNL     1      44.332   3.680  12.894  0.00  0.00    +0.000 A 
ATOM      6  N   UNL     1      43.613   2.991  11.977  0.00  0.00    +0.000 NA
ATOM      7  C   UNL     1      43.749   3.356  10.677  0.00  0.00    +0.000 A 
ATOM      8  C   UNL     1      44.560   4.390  10.238  0.00  0.00    +0.000 A 
ATOM      9  C   UNL     1      45.270   5.075  11.206  0.00  0.00    +0.000 A 
ATOM     10  C   UNL     1      46.190   6.234  11.005  0.00  0.00    +0.000 C 
ATOM     11  C   UNL     1      46.610   6.621  12.437  0.00  0.00    +0.000 C 
BRANCH  11  12
ATOM     12  O   UNL     1      48.044   6.681  12.496  0.00  0.00    +0.000 OA
ATOM     13  H   UNL     1      48.247   6.881  13.435  0.00  0.00    +0.000 HD
ENDBRANCH  11  12
ENDBRANCH   1   3
BRANCH   1  17
ATOM     14  C   UNL     1      48.334   4.504  18.046  0.00  0.00    +0.000 A 
ATOM     15  C   UNL     1      48.708   5.612  17.278  0.00  0.00    +0.000 A 
ATOM     16  C   UNL     1      48.312   5.728  15.938  0.00  0.00    +0.000 A 
ATOM     17  C   UNL     1      47.504   4.764  15.335  0.00  0.00    +0.000 A 
ATOM     18  C   UNL     1      47.167   3.639  16.104  0.00  0.00    +0.000 A 
ATOM     19  C   UNL     1      47.570   3.506  17.439  0.00  0.00    +0.000 A 
BRANCH  14  20
ATOM     20  C   UNL     1      48.737   4.396  19.494  0.00  0.00    +0.000 C 
BRANCH  20  21
ATOM     21  N   UNL     1      48.324   3.117  20.062  0.00  0.00    +0.000 NA
ATOM     22  H   UNL     1      47.515   3.262  20.663  0.00  0.00    +0.000 HD
ATOM     23  H   UNL     1      49.072   2.772  20.664  0.00  0.00    +0.000 HD
ENDBRANCH  20  21
ENDBRANCH  14  20
ENDBRANCH   1  17
TORSDOF 5
ENDMDL
MODEL 4
REMARK VINA RESULT:    -6.187      1.444      2.090
REMARK INTER + INTRA:          -7.486
REMARK INTER:                  -8.474
REMARK INTRA:                   0.988
REMARK UNBOUND:                 0.148
REMARK  Name = 
REMARK  5 active torsions:
REMARK  status: ('A' for Active; 'I' for Inactive)
REMARK    1  A    between atoms: N_1  and  C_2
REMARK    2  A    between atoms: C_2  and  C_3
REMARK    3  A    between atoms: C_6  and  N_7
REMARK    4  A    between atoms: N_7  and  C_8
REMARK    5  A    between atoms: C_16  and  O_17
REMARK                            x       y       z     vdW  Elec       q    Type
REMARK                         _______ _______ _______ _____ _____    ______ ____
ROOT
ATOM      1  N   UNL     1      43.326   3.881  11.228  0.00  0.00    +0.000 N 
ATOM      2  H   UNL     1      42.444   3.376  11.285  0.00  0.00    +0.000 HD
ENDROOT
BRANCH   1   3
ATOM      3  C   UNL     1      43.720   4.578  12.449  0.00  0.00    +0.000 C 
ATOM      4  C   UNL     1      44.389   5.876  12.125  0.00  0.00    +0.000 A 
ATOM      5  C   UNL     1      43.832   7.011  11.578  0.00  0.00    +0.000 A 
ATOM      6  N   UNL     1      44.557   8.128  11.336  0.00  0.00    +0.000 NA
ATOM      7  C   UNL     1      45.876   8.095  11.654  0.00  0.00    +0.000 A 
ATOM      8  C   UNL     1      46.516   7.001  12.217  0.00  0.00    +0.000 A 
ATOM      9  C   UNL     1      45.738   5.884  12.457  0.00  0.00    +0.000 A 
ATOM     10  C   UNL     1      46.171   4.593  13.070  0.00  0.00    +0.000 C 
ATOM     11  C   UNL     1      44.867   3.775  13.159  0.00  0.00    +0.000 C 
BRANCH  11  12
ATOM     12  O   UNL     1      45.087   2.492  12.551  0.00  0.00    +0.000 OA
ATOM     13  H   UNL     1      44.684   1.849  13.172  0.00  0.00    +0.000 HD
ENDBRANCH  11  12
ENDBRANCH   1   3
BRANCH   1  17
ATOM     14  C   UNL     1      45.968   3.053   8.036  0.00  0.00    +0.000 A 
ATOM     15  C   UNL     1      45.398   2.000   8.761  0.00  0.00    +0.000 A 
ATOM     16  C   UNL     1      44.516   2.249   9.822  0.00  0.00    +0.000 A 
ATOM     17  C   UNL     1      44.149   3.549  10.168  0.00  0.00    +0.000 A 
ATOM     18  C   UNL     1      44.756   4.597   9.459  0.00  0.00    +0.000 A 
ATOM     19  C   UNL     1      45.650   4.360   8.408  0.00  0.00    +0.000 A 
BRANCH  14  20
ATOM     20  C   UNL     1      46.892   2.781   6.878  0.00  0.00    +0.000 C 
BRANCH  20  21
ATOM     21  N   UNL     1      46.886   3.889   5.927  0.00  0.00    +0.000 NA
ATOM     22  H   UNL     1      47.765   3.893   5.413  0.00  0.00    +0.000 HD
ATOM     23  H   UNL     1      46.853   4.765   6.448  0.00  0.00    +0.000 HD
ENDBRANCH  20  21
ENDBRANCH  14  20
ENDBRANCH   1  17
TORSDOF 5
ENDMDL
MODEL 5
REMARK VINA RESULT:    -6.160      3.844      5.664
REMARK INTER + INTRA:          -7.453
REMARK INTER:                  -7.002
REMARK INTRA:                  -0.451
REMARK UNBOUND:                 0.148
REMARK  Name = 
REMARK  5 active torsions:
REMARK  status: ('A' for Active; 'I' for Inactive)
REMARK    1  A    between atoms: N_1  and  C_2
REMARK    2  A    between atoms: C_2  and  C_3
REMARK    3  A    between atoms: C_6  and  N_7
REMARK    4  A    between atoms: N_7  and  C_8
REMARK    5  A    between atoms: C_16  and  O_17
REMARK                            x       y       z     vdW  Elec       q    Type
REMARK                         _______ _______ _______ _____ _____    ______ ____
ROOT
ATOM      1  N   UNL     1      46.742   5.875  14.306  0.00  0.00    +0.000 N 
ATOM      2  H   UNL     1      46.082   6.233  14.993  0.00  0.00    +0.000 HD
ENDROOT
BRANCH   1   3
ATOM      3  C   UNL     1      48.097   5.654  14.806  0.00  0.00    +0.000 C 
ATOM      4  C   UNL     1      48.068   4.883  16.087  0.00  0.00    +0.000 A 
ATOM      5  C   UNL     1      47.709   3.568  16.287  0.00  0.00    +0.000 A 
ATOM      6  N   UNL     1      47.731   2.990  17.510  0.00  0.00    +0.000 NA
ATOM      7  C   UNL     1      48.124   3.760  18.556  0.00  0.00    +0.000 A 
ATOM      8  C   UNL     1      48.512   5.087  18.446  0.00  0.00    +0.000 A 
ATOM      9  C   UNL     1      48.485   5.637  17.177  0.00  0.00    +0.000 A 
ATOM     10  C   UNL     1      48.872   7.024  16.783  0.00  0.00    +0.000 C 
ATOM     11  C   UNL     1      48.717   7.026  15.250  0.00  0.00    +0.000 C 
BRANCH  11  12
ATOM     12  O   UNL     1      47.894   8.140  14.871  0.00  0.00    +0.000 OA
ATOM     13  H   UNL     1      47.232   8.217  15.590  0.00  0.00    +0.000 HD
ENDBRANCH  11  12
ENDBRANCH   1   3
BRANCH   1  17
ATOM     14  C   UNL     1      44.929   4.108  10.922  0.00  0.00    +0.000 A 
ATOM     15  C   UNL     1      45.310   5.454  10.886  0.00  0.00    +0.000 A 
ATOM     16  C   UNL     1      45.917   6.062  11.995  0.00  0.00    +0.000 A 
ATOM     17  C   UNL     1      46.193   5.340  13.156  0.00  0.00    +0.000 A 
ATOM     18  C   UNL     1      45.771   4.002  13.193  0.00  0.00    +0.000 A 
ATOM     19  C   UNL     1      45.151   3.390  12.098  0.00  0.00    +0.000 A 
BRANCH  14  20
ATOM     20  C   UNL     1      44.305   3.450   9.719  0.00  0.00    +0.000 C 
BRANCH  20  21
ATOM     21  N   UNL     1      43.847   4.444   8.753  0.00  0.00    +0.000 NA
ATOM     22  H   UNL     1      42.958   4.144   8.359  0.00  0.00    +0.000 HD
ATOM     23  H   UNL     1      44.510   4.474   7.979  0.00  0.00    +0.000 HD
ENDBRANCH  20  21
ENDBRANCH  14  20
ENDBRANCH   1  17
TORSDOF 5
ENDMDL
MODEL 6
REMARK VINA RESULT:    -5.720      3.792      7.026
REMARK INTER + INTRA:          -6.909
REMARK INTER:                  -6.548
REMARK INTRA:                  -0.362
REMARK UNBOUND:                 0.148
REMARK  Name = 
REMARK  5 active torsions:
REMARK  status: ('A' for Active; 'I' for Inactive)
REMARK    1  A    between atoms: N_1  and  C_2
REMARK    2  A    between atoms: C_2  and  C_3
REMARK    3  A    between atoms: C_6  and  N_7
REMARK    4  A    between atoms: N_7  and  C_8
REMARK    5  A    between atoms: C_16  and  O_17
REMARK                            x       y       z     vdW  Elec       q    Type
REMARK                         _______ _______ _______ _____ _____    ______ ____
ROOT
ATOM      1  N   UNL     1      46.414   4.495  14.492  0.00  0.00    +0.000 N 
ATOM      2  H   UNL     1      45.443   4.618  14.770  0.00  0.00    +0.000 HD
ENDROOT
BRANCH   1   3
ATOM      3  C   UNL     1      46.702   4.805  13.094  0.00  0.00    +0.000 C 
ATOM      4  C   UNL     1      46.214   6.175  12.744  0.00  0.00    +0.000 A 
ATOM      5  C   UNL     1      46.694   7.390  13.181  0.00  0.00    +0.000 A 
ATOM      6  N   UNL     1      46.157   8.566  12.781  0.00  0.00    +0.000 NA
ATOM      7  C   UNL     1      45.109   8.510  11.921  0.00  0.00    +0.000 A 
ATOM      8  C   UNL     1      44.569   7.335  11.422  0.00  0.00    +0.000 A 
ATOM      9  C   UNL     1      45.153   6.156  11.848  0.00  0.00    +0.000 A 
ATOM     10  C   UNL     1      44.782   4.766  11.449  0.00  0.00    +0.000 C 
ATOM     11  C   UNL     1      45.826   3.888  12.168  0.00  0.00    +0.000 C 
BRANCH  11  12
ATOM     12  O   UNL     1      45.138   2.868  12.909  0.00  0.00    +0.000 OA
ATOM     13  H   UNL     1      45.723   2.083  12.856  0.00  0.00    +0.000 HD
ENDBRANCH  11  12
ENDBRANCH   1   3
BRANCH   1  17
ATOM     14  C   UNL     1      49.182   4.432  17.685  0.00  0.00    +0.000 A 
ATOM     15  C   UNL     1      48.438   3.286  17.384  0.00  0.00    +0.000 A 
ATOM     16  C   UNL     1      47.516   3.280  16.327  0.00  0.00    +0.000 A 
ATOM     17  C   UNL     1      47.334   4.402  15.520  0.00  0.00    +0.000 A 
ATOM     18  C   UNL     1      48.057   5.558  15.855  0.00  0.00    +0.000 A 
ATOM     19  C   UNL     1      48.969   5.578  16.917  0.00  0.00    +0.000 A 
BRANCH  14  20
ATOM     20  C   UNL     1      50.192   4.426  18.802  0.00  0.00    +0.000 C 
BRANCH  20  21
ATOM     21  N   UNL     1      49.536   4.434  20.106  0.00  0.00    +0.000 NA
ATOM     22  H   UNL     1      49.536   5.383  20.475  0.00  0.00    +0.000 HD
ATOM     23  H   UNL     1      50.091   3.873  20.753  0.00  0.00    +0.000 HD
ENDBRANCH  20  21
ENDBRANCH  14  20
ENDBRANCH   1  17
TORSDOF 5
ENDMDL
MODEL 7
REMARK VINA RESULT:    -5.579      4.061      6.299
REMARK INTER + INTRA:          -6.736
REMARK INTER:                  -6.338
REMARK INTRA:                  -0.398
REMARK UNBOUND:                 0.148
REMARK  Name = 
REMARK  5 active torsions:
REMARK  status: ('A' for Active; 'I' for Inactive)
REMARK    1  A    between atoms: N_1  and  C_2
REMARK    2  A    between atoms: C_2  and  C_3
REMARK    3  A    between atoms: C_6  and  N_7
REMARK    4  A    between atoms: N_7  and  C_8
REMARK    5  A    between atoms: C_16  and  O_17
REMARK                            x       y       z     vdW  Elec       q    Type
REMARK                         _______ _______ _______ _____ _____    ______ ____
ROOT
ATOM      1  N   UNL     1      47.662   4.737  14.660  0.00  0.00    +0.000 N 
ATOM      2  H   UNL     1      48.541   5.044  14.250  0.00  0.00    +0.000 HD
ENDROOT
BRANCH   1   3
ATOM      3  C   UNL     1      47.635   4.712  16.120  0.00  0.00    +0.000 C 
ATOM      4  C   UNL     1      48.648   5.656  16.684  0.00  0.00    +0.000 A 
ATOM      5  C   UNL     1      48.650   7.033  16.642  0.00  0.00    +0.000 A 
ATOM      6  N   UNL     1      49.637   7.773  17.200  0.00  0.00    +0.000 NA
ATOM      7  C   UNL     1      50.646   7.103  17.812  0.00  0.00    +0.000 A 
ATOM      8  C   UNL     1      50.719   5.723  17.912  0.00  0.00    +0.000 A 
ATOM      9  C   UNL     1      49.686   5.005  17.338  0.00  0.00    +0.000 A 
ATOM     10  C   UNL     1      49.513   3.522  17.323  0.00  0.00    +0.000 C 
ATOM     11  C   UNL     1      48.153   3.319  16.626  0.00  0.00    +0.000 C 
BRANCH  11  12
ATOM     12  O   UNL     1      48.322   2.381  15.551  0.00  0.00    +0.000 OA
ATOM     13  H   UNL     1      48.421   1.511  15.992  0.00  0.00    +0.000 HD
ENDBRANCH  11  12
ENDBRANCH   1   3
BRANCH   1  17
ATOM     14  C   UNL     1      44.383   4.934  12.001  0.00  0.00    +0.000 A 
ATOM     15  C   UNL     1      44.962   3.697  12.304  0.00  0.00    +0.000 A 
ATOM     16  C   UNL     1      46.048   3.604  13.186  0.00  0.00    +0.000 A 
ATOM     17  C   UNL     1      46.566   4.735  13.817  0.00  0.00    +0.000 A 
ATOM     18  C   UNL     1      46.002   5.974  13.476  0.00  0.00    +0.000 A 
ATOM     19  C   UNL     1      44.927   6.078  12.585  0.00  0.00    +0.000 A 
BRANCH  14  20
ATOM     20  C   UNL     1      43.198   5.026  11.075  0.00  0.00    +0.000 C 
BRANCH  20  21
ATOM     21  N   UNL     1      42.622   6.367  11.088  0.00  0.00    +0.000 NA
ATOM     22  H   UNL     1      43.108   6.947  10.409  0.00  0.00    +0.000 HD
ATOM     23  H   UNL     1      42.794   6.786  12.002  0.00  0.00    +0.000 HD
ENDBRANCH  20  21
ENDBRANCH  14  20
ENDBRANCH   1  17
TORSDOF 5
ENDMDL
MODEL 8
REMARK VINA RESULT:    -5.552      2.669      6.208
REMARK INTER + INTRA:          -6.702
REMARK INTER:                  -6.244
REMARK INTRA:                  -0.458
REMARK UNBOUND:                 0.148
REMARK  Name = 
REMARK  5 active torsions:
REMARK  status: ('A' for Active; 'I' for Inactive)
REMARK    1  A    between atoms: N_1  and  C_2
REMARK    2  A    between atoms: C_2  and  C_3
REMARK    3  A    between atoms: C_6  and  N_7
REMARK    4  A    between atoms: N_7  and  C_8
REMARK    5  A    between atoms: C_16  and  O_17
REMARK                            x       y       z     vdW  Elec       q    Type
REMARK                         _______ _______ _______ _____ _____    ______ ____
ROOT
ATOM      1  N   UNL     1      46.683   5.984  10.984  0.00  0.00    +0.000 N 
ATOM      2  H   UNL     1      47.287   5.248  10.627  0.00  0.00    +0.000 HD
ENDROOT
BRANCH   1   3
ATOM      3  C   UNL     1      45.273   5.855  10.626  0.00  0.00    +0.000 C 
ATOM      4  C   UNL     1      44.623   4.767  11.419  0.00  0.00    +0.000 A 
ATOM      5  C   UNL     1      44.351   4.738  12.769  0.00  0.00    +0.000 A 
ATOM      6  N   UNL     1      43.751   3.681  13.364  0.00  0.00    +0.000 NA
ATOM      7  C   UNL     1      43.421   2.628  12.575  0.00  0.00    +0.000 A 
ATOM      8  C   UNL     1      43.646   2.575  11.209  0.00  0.00    +0.000 A 
ATOM      9  C   UNL     1      44.252   3.679  10.638  0.00  0.00    +0.000 A 
ATOM     10  C   UNL     1      44.585   3.886   9.197  0.00  0.00    +0.000 C 
ATOM     11  C   UNL     1      45.157   5.317   9.155  0.00  0.00    +0.000 C 
BRANCH  11  12
ATOM     12  O   UNL     1      46.429   5.285   8.488  0.00  0.00    +0.000 OA
ATOM     13  H   UNL     1      46.986   5.924   8.982  0.00  0.00    +0.000 HD
ENDBRANCH  11  12
ENDBRANCH   1   3
BRANCH   1  17
ATOM     14  C   UNL     1      48.065   8.389  14.172  0.00  0.00    +0.000 A 
ATOM     15  C   UNL     1      48.831   7.303  13.734  0.00  0.00    +0.000 A 
ATOM     16  C   UNL     1      48.396   6.492  12.676  0.00  0.00    +0.000 A 
ATOM     17  C   UNL     1      47.205   6.760  12.001  0.00  0.00    +0.000 A 
ATOM     18  C   UNL     1      46.427   7.828  12.474  0.00  0.00    +0.000 A 
ATOM     19  C   UNL     1      46.845   8.634  13.540  0.00  0.00    +0.000 A 
BRANCH  14  20
ATOM     20  C   UNL     1      48.549   9.275  15.289  0.00  0.00    +0.000 C 
BRANCH  20  21
ATOM     21  N   UNL     1      47.541   9.399  16.339  0.00  0.00    +0.000 NA
ATOM     22  H   UNL     1      46.827   8.687  16.202  0.00  0.00    +0.000 HD
ATOM     23  H   UNL     1      47.074  10.299  16.236  0.00  0.00    +0.000 HD
ENDBRANCH  20  21
ENDBRANCH  14  20
ENDBRANCH   1  17
TORSDOF 5
ENDMDL
MODEL 9
REMARK VINA RESULT:    -5.337      4.017      6.179
REMARK INTER + INTRA:          -6.437
REMARK INTER:                  -5.966
REMARK INTRA:                  -0.471
REMARK UNBOUND:                 0.148
REMARK  Name = 
REMARK  5 active torsions:
REMARK  status: ('A' for Active; 'I' for Inactive)
REMARK    1  A    between atoms: N_1  and  C_2
REMARK    2  A    between atoms: C_2  and  C_3
REMARK    3  A    between atoms: C_6  and  N_7
REMARK    4  A    between atoms: N_7  and  C_8
REMARK    5  A    between atoms: C_16  and  O_17
REMARK                            x       y       z     vdW  Elec       q    Type
REMARK                         _______ _______ _______ _____ _____    ______ ____
ROOT
ATOM      1  N   UNL     1      46.955   7.168  13.068  0.00  0.00    +0.000 N 
ATOM      2  H   UNL     1      46.459   7.329  13.941  0.00  0.00    +0.000 HD
ENDROOT
BRANCH   1   3
ATOM      3  C   UNL     1      46.602   5.931  12.375  0.00  0.00    +0.000 C 
ATOM      4  C   UNL     1      45.123   5.844  12.169  0.00  0.00    +0.000 A 
ATOM      5  C   UNL     1      44.328   6.610  11.346  0.00  0.00    +0.000 A 
ATOM      6  N   UNL     1      42.991   6.422  11.252  0.00  0.00    +0.000 NA
ATOM      7  C   UNL     1      42.446   5.437  12.011  0.00  0.00    +0.000 A 
ATOM      8  C   UNL     1      43.171   4.613  12.857  0.00  0.00    +0.000 A 
ATOM      9  C   UNL     1      44.535   4.831  12.916  0.00  0.00    +0.000 A 
ATOM     10  C   UNL     1      45.539   4.075  13.723  0.00  0.00    +0.000 C 
ATOM     11  C   UNL     1      46.885   4.708  13.318  0.00  0.00    +0.000 C 
BRANCH  11  12
ATOM     12  O   UNL     1      47.590   5.093  14.508  0.00  0.00    +0.000 OA
ATOM     13  H   UNL     1      47.028   5.785  14.918  0.00  0.00    +0.000 HD
ENDBRANCH  11  12
ENDBRANCH   1   3
BRANCH   1  17
ATOM     14  C   UNL     1      49.024  10.376  11.255  0.00  0.00    +0.000 A 
ATOM     15  C   UNL     1      47.690  10.538  11.646  0.00  0.00    +0.000 A 
ATOM     16  C   UNL     1      46.983   9.490  12.253  0.00  0.00    +0.000 A 
ATOM     17  C   UNL     1      47.593   8.264  12.519  0.00  0.00    +0.000 A 
ATOM     18  C   UNL     1      48.919   8.101  12.088  0.00  0.00    +0.000 A 
ATOM     19  C   UNL     1      49.628   9.137  11.468  0.00  0.00    +0.000 A 
BRANCH  14  20
ATOM     20  C   UNL     1      49.788  11.513  10.631  0.00  0.00    +0.000 C 
BRANCH  20  21
ATOM     21  N   UNL     1      51.051  11.051  10.064  0.00  0.00    +0.000 NA
ATOM     22  H   UNL     1      51.131  11.387   9.106  0.00  0.00    +0.000 HD
ATOM     23  H   UNL     1      51.031  10.033  10.011  0.00  0.00    +0.000 HD
ENDBRANCH  20  21
ENDBRANCH  14  20
ENDBRANCH   1  17
TORSDOF 5
ENDMDL
