MODEL 1
REMARK VINA RESULT:    -8.242      0.000      0.000
REMARK INTER + INTRA:         -11.274
REMARK INTER:                 -10.651
REMARK INTRA:                  -0.623
REMARK UNBOUND:                -0.623
REMARK  Name = 
REMARK  7 active torsions:
REMARK  status: ('A' for Active; 'I' for Inactive)
REMARK    1  A    between atoms: C_1  and  S_2
REMARK    2  A    between atoms: S_2  and  C_3
REMARK    3  A    between atoms: C_6  and  C_7
REMARK    4  A    between atoms: C_7  and  C_8
REMARK    5  A    between atoms: C_7  and  N_9
REMARK    6  A    between atoms: N_9  and  C_10
REMARK    7  A    between atoms: C_13  and  C_14
REMARK                            x       y       z     vdW  Elec       q    Type
REMARK                         _______ _______ _______ _____ _____    ______ ____
ROOT
ATOM      1  N   UNL     1      43.683   4.729   9.938  0.00  0.00    +0.000 N 
ATOM      2  H   UNL     1      43.840   5.698   9.660  0.00  0.00    +0.000 HD
ENDROOT
BRANCH   1   3
ATOM      3  C   UNL     1      44.601   3.901   9.271  0.00  0.00    +0.000 A 
ATOM      4  C   UNL     1      44.627   2.507   9.386  0.00  0.00    +0.000 A 
ATOM      5  C   UNL     1      45.528   1.727   8.651  0.00  0.00    +0.000 A 
ATOM      6  C   UNL     1      46.413   2.322   7.751  0.00  0.00    +0.000 A 
ATOM      7  C   UNL     1      46.378   3.708   7.585  0.00  0.00    +0.000 A 
ATOM      8  C   UNL     1      45.467   4.479   8.325  0.00  0.00    +0.000 A 
BRANCH   6   9
ATOM      9  C   UNL     1      47.369   1.442   7.027  0.00  0.00    +0.000 C 
ATOM     10  N   UNL     1      48.499   2.014   6.518  0.00  0.00    +0.000 N 
ATOM     11  O   UNL     1      47.142   0.248   6.856  0.00  0.00    +0.000 OA
ATOM     12  H   UNL     1      48.607   3.011   6.418  0.00  0.00    +0.000 HD
ATOM     13  H   UNL     1      49.075   1.416   5.935  0.00  0.00    +0.000 HD
ENDBRANCH   6   9
ENDBRANCH   1   3
BRANCH   1  14
ATOM     14  C   UNL     1      43.535   4.636  11.407  0.00  0.00    +0.000 C 
ATOM     15  C   UNL     1      42.357   5.481  11.907  0.00  0.00    +0.000 C 
BRANCH  14  19
ATOM     16  C   UNL     1      47.023   5.986  13.545  0.00  0.00    +0.000 A 
ATOM     17  C   UNL     1      46.615   6.684  12.411  0.00  0.00    +0.000 A 
ATOM     18  C   UNL     1      45.507   6.243  11.683  0.00  0.00    +0.000 A 
ATOM     19  C   UNL     1      44.816   5.107  12.110  0.00  0.00    +0.000 A 
ATOM     20  N   UNL     1      45.220   4.393  13.192  0.00  0.00    +0.000 NA
ATOM     21  C   UNL     1      46.306   4.842  13.872  0.00  0.00    +0.000 A 
BRANCH  16  23
ATOM     22  C   UNL     1      49.391   7.333  13.167  0.00  0.00    +0.000 C 
ATOM     23  S   UNL     1      48.425   6.544  14.484  0.00  0.00    +0.000 S 
ENDBRANCH  16  23
ENDBRANCH  14  19
ENDBRANCH   1  14
TORSDOF 5
ENDMDL
MODEL 2
REMARK VINA RESULT:    -7.711      1.594      2.117
REMARK INTER + INTRA:         -10.587
REMARK INTER:                  -9.931
REMARK INTRA:                  -0.657
REMARK UNBOUND:                -0.623
REMARK  Name = 
REMARK  7 active torsions:
REMARK  status: ('A' for Active; 'I' for Inactive)
REMARK    1  A    between atoms: C_1  and  S_2
REMARK    2  A    between atoms: S_2  and  C_3
REMARK    3  A    between atoms: C_6  and  C_7
REMARK    4  A    between atoms: C_7  and  C_8
REMARK    5  A    between atoms: C_7  and  N_9
REMARK    6  A    between atoms: N_9  and  C_10
REMARK    7  A    between atoms: C_13  and  C_14
REMARK                            x       y       z     vdW  Elec       q    Type
REMARK                         _______ _______ _______ _____ _____    ______ ____
ROOT
ATOM      1  N   UNL     1      43.877   5.040   9.744  0.00  0.00    +0.000 N 
ATOM      2  H   UNL     1      44.065   5.952   9.327  0.00  0.00    +0.000 HD
ENDROOT
BRANCH   1   3
ATOM      3  C   UNL     1      44.668   4.068   9.108  0.00  0.00    +0.000 A 
ATOM      4  C   UNL     1      45.712   4.363   8.225  0.00  0.00    +0.000 A 
ATOM      5  C   UNL     1      46.506   3.353   7.665  0.00  0.00    +0.000 A 
ATOM      6  C   UNL     1      46.295   2.016   8.001  0.00  0.00    +0.000 A 
ATOM      7  C   UNL     1      45.286   1.699   8.913  0.00  0.00    +0.000 A 
ATOM      8  C   UNL     1      44.500   2.720   9.470  0.00  0.00    +0.000 A 
BRANCH   6   9
ATOM      9  C   UNL     1      47.149   0.989   7.345  0.00  0.00    +0.000 C 
ATOM     10  N   UNL     1      46.877  -0.324   7.605  0.00  0.00    +0.000 N 
ATOM     11  O   UNL     1      48.089   1.300   6.622  0.00  0.00    +0.000 OA
ATOM     12  H   UNL     1      46.289  -0.617   8.370  0.00  0.00    +0.000 HD
ATOM     13  H   UNL     1      47.542  -0.995   7.237  0.00  0.00    +0.000 HD
ENDBRANCH   6   9
ENDBRANCH   1   3
BRANCH   1  14
ATOM     14  C   UNL     1      43.876   5.144  11.219  0.00  0.00    +0.000 C 
ATOM     15  C   UNL     1      42.490   5.519  11.755  0.00  0.00    +0.000 C 
BRANCH  14  19
ATOM     16  C   UNL     1      46.697   8.193  12.361  0.00  0.00    +0.000 A 
ATOM     17  C   UNL     1      47.129   6.872  12.278  0.00  0.00    +0.000 A 
ATOM     18  C   UNL     1      46.222   5.863  11.944  0.00  0.00    +0.000 A 
ATOM     19  C   UNL     1      44.891   6.197  11.688  0.00  0.00    +0.000 A 
ATOM     20  N   UNL     1      44.444   7.474  11.798  0.00  0.00    +0.000 NA
ATOM     21  C   UNL     1      45.347   8.430  12.134  0.00  0.00    +0.000 A 
BRANCH  16  23
ATOM     22  C   UNL     1      49.268   8.974  11.774  0.00  0.00    +0.000 C 
ATOM     23  S   UNL     1      47.844   9.487  12.775  0.00  0.00    +0.000 S 
ENDBRANCH  16  23
ENDBRANCH  14  19
ENDBRANCH   1  14
TORSDOF 5
ENDMDL
MODEL 3
REMARK VINA RESULT:    -6.466      3.444      5.969
REMARK INTER + INTRA:          -8.979
REMARK INTER:                  -9.179
REMARK INTRA:                   0.200
REMARK UNBOUND:                -0.623
REMARK  Name = 
REMARK  7 active torsions:
REMARK  status: ('A' for Active; 'I' for Inactive)
REMARK    1  A    between atoms: C_1  and  S_2
REMARK    2  A    between atoms: S_2  and  C_3
REMARK    3  A    between atoms: C_6  and  C_7
REMARK    4  A    between atoms: C_7  and  C_8
REMARK    5  A    between atoms: C_7  and  N_9
REMARK    6  A    between atoms: N_9  and  C_10
REMARK    7  A    between atoms: C_13  and  C_14
REMARK                            x       y       z     vdW  Elec       q    Type
REMARK                         _______ _______ _______ _____ _____    ______ ____
ROOT
ATOM      1  N   UNL     1      43.672   5.327  11.237  0.00  0.00    +0.000 N 
ATOM      2  H   UNL     1      42.915   5.690  11.817  0.00  0.00    +0.000 HD
ENDROOT
BRANCH   1   3
ATOM      3  C   UNL     1      44.904   5.638  11.837  0.00  0.00    +0.000 A 
ATOM      4  C   UNL     1      45.450   4.935  12.916  0.00  0.00    +0.000 A 
ATOM      5  C   UNL     1      46.711   5.253  13.436  0.00  0.00    +0.000 A 
ATOM      6  C   UNL     1      47.478   6.270  12.866  0.00  0.00    +0.000 A 
ATOM      7  C   UNL     1      46.973   6.959  11.761  0.00  0.00    +0.000 A 
ATOM      8  C   UNL     1      45.710   6.628  11.247  0.00  0.00    +0.000 A 
BRANCH   6   9
ATOM      9  C   UNL     1      48.793   6.583  13.487  0.00  0.00    +0.000 C 
ATOM     10  N   UNL     1      49.786   7.046  12.673  0.00  0.00    +0.000 N 
ATOM     11  O   UNL     1      49.000   6.401  14.683  0.00  0.00    +0.000 OA
ATOM     12  H   UNL     1      49.743   6.977  11.668  0.00  0.00    +0.000 HD
ATOM     13  H   UNL     1      50.701   7.143  13.100  0.00  0.00    +0.000 HD
ENDBRANCH   6   9
ENDBRANCH   1   3
BRANCH   1  14
ATOM     14  C   UNL     1      43.379   3.937  10.826  0.00  0.00    +0.000 C 
ATOM     15  C   UNL     1      43.469   2.970  12.012  0.00  0.00    +0.000 C 
BRANCH  14  19
ATOM     16  C   UNL     1      46.252   2.585   7.914  0.00  0.00    +0.000 A 
ATOM     17  C   UNL     1      45.918   3.936   7.954  0.00  0.00    +0.000 A 
ATOM     18  C   UNL     1      44.963   4.390   8.867  0.00  0.00    +0.000 A 
ATOM     19  C   UNL     1      44.360   3.478   9.737  0.00  0.00    +0.000 A 
ATOM     20  N   UNL     1      44.647   2.152   9.687  0.00  0.00    +0.000 NA
ATOM     21  C   UNL     1      45.571   1.741   8.783  0.00  0.00    +0.000 A 
BRANCH  16  23
ATOM     22  C   UNL     1      46.961   2.902   5.275  0.00  0.00    +0.000 C 
ATOM     23  S   UNL     1      47.473   1.998   6.763  0.00  0.00    +0.000 S 
ENDBRANCH  16  23
ENDBRANCH  14  19
ENDBRANCH   1  14
TORSDOF 5
ENDMDL
MODEL 4
REMARK VINA RESULT:    -6.197      3.752      6.736
REMARK INTER + INTRA:          -8.631
REMARK INTER:                  -8.076
REMARK INTRA:                  -0.555
REMARK UNBOUND:                -0.623
REMARK  Name = 
REMARK  7 active torsions:
REMARK  status: ('A' for Active; 'I' for Inactive)
REMARK    1  A    between atoms: C_1  and  S_2
REMARK    2  A    between atoms: S_2  and  C_3
REMARK    3  A    between atoms: C_6  and  C_7
REMARK    4  A    between atoms: C_7  and  C_8
REMARK    5  A    between atoms: C_7  and  N_9
REMARK    6  A    between atoms: N_9  and  C_10
REMARK    7  A    between atoms: C_13  and  C_14
REMARK                            x       y       z     vdW  Elec       q    Type
REMARK                         _______ _______ _______ _____ _____    ______ ____
ROOT
ATOM      1  N   UNL     1      45.290   3.756  12.472  0.00  0.00    +0.000 N 
ATOM      2  H   UNL     1      46.058   3.121  12.254  0.00  0.00    +0.000 HD
ENDROOT
BRANCH   1   3
ATOM      3  C   UNL     1      45.809   5.029  12.760  0.00  0.00    +0.000 A 
ATOM      4  C   UNL     1      45.112   6.225  12.551  0.00  0.00    +0.000 A 
ATOM      5  C   UNL     1      45.657   7.464  12.912  0.00  0.00    +0.000 A 
ATOM      6  C   UNL     1      46.909   7.538  13.523  0.00  0.00    +0.000 A 
ATOM      7  C   UNL     1      47.607   6.356  13.780  0.00  0.00    +0.000 A 
ATOM      8  C   UNL     1      47.048   5.120  13.418  0.00  0.00    +0.000 A 
BRANCH   6   9
ATOM      9  C   UNL     1      47.448   8.886  13.848  0.00  0.00    +0.000 C 
ATOM     10  N   UNL     1      47.560   9.225  15.165  0.00  0.00    +0.000 N 
ATOM     11  O   UNL     1      47.750   9.687  12.970  0.00  0.00    +0.000 OA
ATOM     12  H   UNL     1      47.102   8.709  15.901  0.00  0.00    +0.000 HD
ATOM     13  H   UNL     1      47.822  10.186  15.356  0.00  0.00    +0.000 HD
ENDBRANCH   6   9
ENDBRANCH   1   3
BRANCH   1  14
ATOM     14  C   UNL     1      44.206   3.606  11.477  0.00  0.00    +0.000 C 
ATOM     15  C   UNL     1      43.330   2.385  11.780  0.00  0.00    +0.000 C 
BRANCH  14  19
ATOM     16  C   UNL     1      45.992   3.106   7.588  0.00  0.00    +0.000 A 
ATOM     17  C   UNL     1      45.747   4.394   8.057  0.00  0.00    +0.000 A 
ATOM     18  C   UNL     1      45.136   4.578   9.300  0.00  0.00    +0.000 A 
ATOM     19  C   UNL     1      44.787   3.461  10.063  0.00  0.00    +0.000 A 
ATOM     20  N   UNL     1      44.986   2.198   9.607  0.00  0.00    +0.000 NA
ATOM     21  C   UNL     1      45.571   2.053   8.391  0.00  0.00    +0.000 A 
BRANCH  16  23
ATOM     22  C   UNL     1      48.307   2.045   6.550  0.00  0.00    +0.000 C 
ATOM     23  S   UNL     1      46.778   2.861   6.013  0.00  0.00    +0.000 S 
ENDBRANCH  16  23
ENDBRANCH  14  19
ENDBRANCH   1  14
TORSDOF 5
ENDMDL
MODEL 5
REMARK VINA RESULT:    -6.120      3.508      6.428
REMARK INTER + INTRA:          -8.532
REMARK INTER:                  -8.873
REMARK INTRA:                   0.341
REMARK UNBOUND:                -0.623
REMARK  Name = 
REMARK  7 active torsions:
REMARK  status: ('A' for Active; 'I' for Inactive)
REMARK    1  A    between atoms: C_1  and  S_2
REMARK    2  A    between atoms: S_2  and  C_3
REMARK    3  A    between atoms: C_6  and  C_7
REMARK    4  A    between atoms: C_7  and  C_8
REMARK    5  A    between atoms: C_7  and  N_9
REMARK    6  A    between atoms: N_9  and  C_10
REMARK    7  A    between atoms: C_13  and  C_14
REMARK                            x       y       z     vdW  Elec       q    Type
REMARK                         _______ _______ _______ _____ _____    ______ ____
ROOT
ATOM      1  N   UNL     1      44.798   6.149  10.910  0.00  0.00    +0.000 N 
ATOM      2  H   UNL     1      44.279   7.010  11.081  0.00  0.00    +0.000 HD
ENDROOT
BRANCH   1   3
ATOM      3  C   UNL     1      45.473   5.774  12.083  0.00  0.00    +0.000 A 
ATOM      4  C   UNL     1      45.166   4.634  12.834  0.00  0.00    +0.000 A 
ATOM      5  C   UNL     1      45.912   4.277  13.966  0.00  0.00    +0.000 A 
ATOM      6  C   UNL     1      47.012   5.040  14.360  0.00  0.00    +0.000 A 
ATOM      7  C   UNL     1      47.365   6.159  13.602  0.00  0.00    +0.000 A 
ATOM      8  C   UNL     1      46.612   6.503  12.469  0.00  0.00    +0.000 A 
BRANCH   6   9
ATOM      9  C   UNL     1      47.740   4.628  15.590  0.00  0.00    +0.000 C 
ATOM     10  N   UNL     1      47.291   3.525  16.256  0.00  0.00    +0.000 N 
ATOM     11  O   UNL     1      48.691   5.273  16.020  0.00  0.00    +0.000 OA
ATOM     12  H   UNL     1      46.384   3.118  16.086  0.00  0.00    +0.000 HD
ATOM     13  H   UNL     1      47.733   3.335  17.148  0.00  0.00    +0.000 HD
ENDBRANCH   6   9
ENDBRANCH   1   3
BRANCH   1  14
ATOM     14  C   UNL     1      43.944   5.170  10.203  0.00  0.00    +0.000 C 
ATOM     15  C   UNL     1      43.046   4.400  11.178  0.00  0.00    +0.000 C 
BRANCH  14  19
ATOM     16  C   UNL     1      46.269   2.409   7.850  0.00  0.00    +0.000 A 
ATOM     17  C   UNL     1      45.448   1.911   8.858  0.00  0.00    +0.000 A 
ATOM     18  C   UNL     1      44.712   2.791   9.656  0.00  0.00    +0.000 A 
ATOM     19  C   UNL     1      44.805   4.165   9.424  0.00  0.00    +0.000 A 
ATOM     20  N   UNL     1      45.628   4.671   8.470  0.00  0.00    +0.000 NA
ATOM     21  C   UNL     1      46.337   3.791   7.719  0.00  0.00    +0.000 A 
BRANCH  16  23
ATOM     22  C   UNL     1      47.617   2.413   5.453  0.00  0.00    +0.000 C 
ATOM     23  S   UNL     1      47.201   1.298   6.823  0.00  0.00    +0.000 S 
ENDBRANCH  16  23
ENDBRANCH  14  19
ENDBRANCH   1  14
TORSDOF 5
ENDMDL
MODEL 6
REMARK VINA RESULT:    -5.646      3.746      6.811
REMARK INTER + INTRA:          -7.920
REMARK INTER:                  -7.364
REMARK INTRA:                  -0.555
REMARK UNBOUND:                -0.623
REMARK  Name = 
REMARK  7 active torsions:
REMARK  status: ('A' for Active; 'I' for Inactive)
REMARK    1  A    between atoms: C_1  and  S_2
REMARK    2  A    between atoms: S_2  and  C_3
REMARK    3  A    between atoms: C_6  and  C_7
REMARK    4  A    between atoms: C_7  and  C_8
REMARK    5  A    between atoms: C_7  and  N_9
REMARK    6  A    between atoms: N_9  and  C_10
REMARK    7  A    between atoms: C_13  and  C_14
REMARK                            x       y       z     vdW  Elec       q    Type
REMARK                         _______ _______ _______ _____ _____    ______ ____
ROOT
ATOM      1  N   UNL     1      44.915   4.489  12.917  0.00  0.00    +0.000 N 
ATOM      2  H   UNL     1      45.113   3.496  12.791  0.00  0.00    +0.000 HD
ENDROOT
BRANCH   1   3
ATOM      3  C   UNL     1      46.050   5.124  13.448  0.00  0.00    +0.000 A 
ATOM      4  C   UNL     1      46.531   6.363  13.012  0.00  0.00    +0.000 A 
ATOM      5  C   UNL     1      47.635   6.977  13.618  0.00  0.00    +0.000 A 
ATOM      6  C   UNL     1      48.272   6.377  14.705  0.00  0.00    +0.000 A 
ATOM      7  C   UNL     1      47.785   5.160  15.187  0.00  0.00    +0.000 A 
ATOM      8  C   UNL     1      46.676   4.558  14.573  0.00  0.00    +0.000 A 
BRANCH   6   9
ATOM      9  C   UNL     1      49.460   7.062  15.282  0.00  0.00    +0.000 C 
ATOM     10  N   UNL     1      49.868   8.227  14.699  0.00  0.00    +0.000 N 
ATOM     11  O   UNL     1      50.081   6.586  16.227  0.00  0.00    +0.000 OA
ATOM     12  H   UNL     1      49.549   8.521  13.789  0.00  0.00    +0.000 HD
ATOM     13  H   UNL     1      50.742   8.611  15.039  0.00  0.00    +0.000 HD
ENDBRANCH   6   9
ENDBRANCH   1   3
BRANCH   1  14
ATOM     14  C   UNL     1      44.259   5.036  11.709  0.00  0.00    +0.000 C 
ATOM     15  C   UNL     1      42.750   4.768  11.721  0.00  0.00    +0.000 C 
BRANCH  14  19
ATOM     16  C   UNL     1      45.833   3.422   8.038  0.00  0.00    +0.000 A 
ATOM     17  C   UNL     1      45.202   2.565   8.935  0.00  0.00    +0.000 A 
ATOM     18  C   UNL     1      44.715   3.061  10.147  0.00  0.00    +0.000 A 
ATOM     19  C   UNL     1      44.862   4.419  10.439  0.00  0.00    +0.000 A 
ATOM     20  N   UNL     1      45.507   5.263   9.593  0.00  0.00    +0.000 NA
ATOM     21  C   UNL     1      45.977   4.748   8.429  0.00  0.00    +0.000 A 
BRANCH  16  23
ATOM     22  C   UNL     1      47.382   1.364   7.075  0.00  0.00    +0.000 C 
ATOM     23  S   UNL     1      46.447   2.804   6.489  0.00  0.00    +0.000 S 
ENDBRANCH  16  23
ENDBRANCH  14  19
ENDBRANCH   1  14
TORSDOF 5
ENDMDL
MODEL 7
REMARK VINA RESULT:    -5.554      4.425      6.340
REMARK INTER + INTRA:          -7.801
REMARK INTER:                  -7.299
REMARK INTRA:                  -0.502
REMARK UNBOUND:                -0.623
REMARK  Name = 
REMARK  7 active torsions:
REMARK  status: ('A' for Active; 'I' for Inactive)
REMARK    1  A    between atoms: C_1  and  S_2
REMARK    2  A    between atoms: S_2  and  C_3
REMARK    3  A    between atoms: C_6  and  C_7
REMARK    4  A    between atoms: C_7  and  C_8
REMARK    5  A    between atoms: C_7  and  N_9
REMARK    6  A    between atoms: N_9  and  C_10
REMARK    7  A    between atoms: C_13  and  C_14
REMARK                            x       y       z     vdW  Elec       q    Type
REMARK                         _______ _______ _______ _____ _____    ______ ____
ROOT
ATOM      1  N   UNL     1      47.523   5.115  15.309  0.00  0.00    +0.000 N 
ATOM      2  H   UNL     1      48.477   5.268  14.980  0.00  0.00    +0.000 HD
ENDROOT
BRANCH   1   3
ATOM      3  C   UNL     1      46.687   4.869  14.208  0.00  0.00    +0.000 A 
ATOM      4  C   UNL     1      46.082   5.872  13.443  0.00  0.00    +0.000 A 
ATOM      5  C   UNL     1      45.304   5.568  12.318  0.00  0.00    +0.000 A 
ATOM      6  C   UNL     1      45.135   4.246  11.907  0.00  0.00    +0.000 A 
ATOM      7  C   UNL     1      45.764   3.229  12.629  0.00  0.00    +0.000 A 
ATOM      8  C   UNL     1      46.544   3.546  13.752  0.00  0.00    +0.000 A 
BRANCH   6   9
ATOM      9  C   UNL     1      44.268   3.987  10.726  0.00  0.00    +0.000 C 
ATOM     10  N   UNL     1      44.019   5.029   9.881  0.00  0.00    +0.000 N 
ATOM     11  O   UNL     1      43.760   2.888  10.530  0.00  0.00    +0.000 OA
ATOM     12  H   UNL     1      44.204   5.989  10.129  0.00  0.00    +0.000 HD
ATOM     13  H   UNL     1      43.336   4.855   9.151  0.00  0.00    +0.000 HD
ENDBRANCH   6   9
ENDBRANCH   1   3
BRANCH   1  14
ATOM     14  C   UNL     1      47.523   4.187  16.461  0.00  0.00    +0.000 C 
ATOM     15  C   UNL     1      46.853   4.816  17.688  0.00  0.00    +0.000 C 
BRANCH  14  19
ATOM     16  C   UNL     1      51.473   2.930  17.634  0.00  0.00    +0.000 A 
ATOM     17  C   UNL     1      51.122   4.270  17.774  0.00  0.00    +0.000 A 
ATOM     18  C   UNL     1      49.859   4.706  17.367  0.00  0.00    +0.000 A 
ATOM     19  C   UNL     1      48.957   3.784  16.831  0.00  0.00    +0.000 A 
ATOM     20  N   UNL     1      49.294   2.481  16.653  0.00  0.00    +0.000 NA
ATOM     21  C   UNL     1      50.532   2.091  17.049  0.00  0.00    +0.000 A 
BRANCH  16  23
ATOM     22  C   UNL     1      52.952   0.612  17.699  0.00  0.00    +0.000 C 
ATOM     23  S   UNL     1      53.074   2.363  18.158  0.00  0.00    +0.000 S 
ENDBRANCH  16  23
ENDBRANCH  14  19
ENDBRANCH   1  14
TORSDOF 5
ENDMDL
MODEL 8
REMARK VINA RESULT:    -5.537      3.759      6.381
REMARK INTER + INTRA:          -7.779
REMARK INTER:                  -7.090
REMARK INTRA:                  -0.689
REMARK UNBOUND:                -0.623
REMARK  Name = 
REMARK  7 active torsions:
REMARK  status: ('A' for Active; 'I' for Inactive)
REMARK    1  A    between atoms: C_1  and  S_2
REMARK    2  A    between atoms: S_2  and  C_3
REMARK    3  A    between atoms: C_6  and  C_7
REMARK    4  A    between atoms: C_7  and  C_8
REMARK    5  A    between atoms: C_7  and  N_9
REMARK    6  A    between atoms: N_9  and  C_10
REMARK    7  A    between atoms: C_13  and  C_14
REMARK                            x       y       z     vdW  Elec       q    Type
REMARK                         _______ _______ _______ _____ _____    ______ ____
ROOT
ATOM      1  N   UNL     1      44.888   5.846  12.727  0.00  0.00    +0.000 N 
ATOM      2  H   UNL     1      45.196   4.927  13.045  0.00  0.00    +0.000 HD
ENDROOT
BRANCH   1   3
ATOM      3  C   UNL     1      46.002   6.694  12.614  0.00  0.00    +0.000 A 
ATOM      4  C   UNL     1      47.324   6.245  12.529  0.00  0.00    +0.000 A 
ATOM      5  C   UNL     1      48.393   7.135  12.359  0.00  0.00    +0.000 A 
ATOM      6  C   UNL     1      48.162   8.505  12.238  0.00  0.00    +0.000 A 
ATOM      7  C   UNL     1      46.848   8.976  12.277  0.00  0.00    +0.000 A 
ATOM      8  C   UNL     1      45.786   8.073  12.443  0.00  0.00    +0.000 A 
BRANCH   6   9
ATOM      9  C   UNL     1      49.342   9.401  12.095  0.00  0.00    +0.000 C 
ATOM     10  N   UNL     1      49.118  10.688  11.700  0.00  0.00    +0.000 N 
ATOM     11  O   UNL     1      50.483   8.997  12.289  0.00  0.00    +0.000 OA
ATOM     12  H   UNL     1      48.244  10.990  11.297  0.00  0.00    +0.000 HD
ATOM     13  H   UNL     1      49.944  11.241  11.502  0.00  0.00    +0.000 HD
ENDBRANCH   6   9
ENDBRANCH   1   3
BRANCH   1  14
ATOM     14  C   UNL     1      43.947   5.706  11.594  0.00  0.00    +0.000 C 
ATOM     15  C   UNL     1      42.575   5.209  12.062  0.00  0.00    +0.000 C 
BRANCH  14  19
ATOM     16  C   UNL     1      45.605   2.866   8.811  0.00  0.00    +0.000 A 
ATOM     17  C   UNL     1      45.841   4.223   8.610  0.00  0.00    +0.000 A 
ATOM     18  C   UNL     1      45.284   5.163   9.481  0.00  0.00    +0.000 A 
ATOM     19  C   UNL     1      44.501   4.725  10.550  0.00  0.00    +0.000 A 
ATOM     20  N   UNL     1      44.230   3.408  10.741  0.00  0.00    +0.000 NA
ATOM     21  C   UNL     1      44.778   2.521   9.873  0.00  0.00    +0.000 A 
BRANCH  16  23
ATOM     22  C   UNL     1      46.744   2.728   6.311  0.00  0.00    +0.000 C 
ATOM     23  S   UNL     1      46.318   1.661   7.716  0.00  0.00    +0.000 S 
ENDBRANCH  16  23
ENDBRANCH  14  19
ENDBRANCH   1  14
TORSDOF 5
ENDMDL
MODEL 9
REMARK VINA RESULT:    -5.473      3.269      5.140
REMARK INTER + INTRA:          -7.696
REMARK INTER:                  -7.278
REMARK INTRA:                  -0.418
REMARK UNBOUND:                -0.623
REMARK  Name = 
REMARK  7 active torsions:
REMARK  status: ('A' for Active; 'I' for Inactive)
REMARK    1  A    between atoms: C_1  and  S_2
REMARK    2  A    between atoms: S_2  and  C_3
REMARK    3  A    between atoms: C_6  and  C_7
REMARK    4  A    between atoms: C_7  and  C_8
REMARK    5  A    between atoms: C_7  and  N_9
REMARK    6  A    between atoms: N_9  and  C_10
REMARK    7  A    between atoms: C_13  and  C_14
REMARK                            x       y       z     vdW  Elec       q    Type
REMARK                         _______ _______ _______ _____ _____    ______ ____
ROOT
ATOM      1  N   UNL     1      46.555   7.468  13.440  0.00  0.00    +0.000 N 
ATOM      2  H   UNL     1      46.167   8.301  12.997  0.00  0.00    +0.000 HD
ENDROOT
BRANCH   1   3
ATOM      3  C   UNL     1      46.013   6.324  12.830  0.00  0.00    +0.000 A 
ATOM      4  C   UNL     1      45.676   5.154  13.518  0.00  0.00    +0.000 A 
ATOM      5  C   UNL     1      45.084   4.064  12.867  0.00  0.00    +0.000 A 
ATOM      6  C   UNL     1      44.783   4.128  11.506  0.00  0.00    +0.000 A 
ATOM      7  C   UNL     1      45.071   5.301  10.805  0.00  0.00    +0.000 A 
ATOM      8  C   UNL     1      45.660   6.388  11.470  0.00  0.00    +0.000 A 
BRANCH   6   9
ATOM      9  C   UNL     1      44.188   2.925  10.865  0.00  0.00    +0.000 C 
ATOM     10  N   UNL     1      44.864   2.360   9.823  0.00  0.00    +0.000 N 
ATOM     11  O   UNL     1      43.109   2.469  11.230  0.00  0.00    +0.000 OA
ATOM     12  H   UNL     1      45.609   2.834   9.336  0.00  0.00    +0.000 HD
ATOM     13  H   UNL     1      44.382   1.613   9.334  0.00  0.00    +0.000 HD
ENDBRANCH   6   9
ENDBRANCH   1   3
BRANCH   1  14
ATOM     14  C   UNL     1      48.020   7.603  13.588  0.00  0.00    +0.000 C 
ATOM     15  C   UNL     1      48.770   6.699  12.604  0.00  0.00    +0.000 C 
BRANCH  14  19
ATOM     16  C   UNL     1      49.069   6.498  17.618  0.00  0.00    +0.000 A 
ATOM     17  C   UNL     1      48.916   7.847  17.307  0.00  0.00    +0.000 A 
ATOM     18  C   UNL     1      48.611   8.229  15.998  0.00  0.00    +0.000 A 
ATOM     19  C   UNL     1      48.454   7.247  15.018  0.00  0.00    +0.000 A 
ATOM     20  N   UNL     1      48.634   5.930  15.295  0.00  0.00    +0.000 NA
ATOM     21  C   UNL     1      48.940   5.592  16.573  0.00  0.00    +0.000 A 
BRANCH  16  23
ATOM     22  C   UNL     1      48.675   4.358  19.301  0.00  0.00    +0.000 C 
ATOM     23  S   UNL     1      49.447   6.000  19.282  0.00  0.00    +0.000 S 
ENDBRANCH  16  23
ENDBRANCH  14  19
ENDBRANCH   1  14
TORSDOF 5
ENDMDL
