MODEL 1
REMARK VINA RESULT:    -8.604      0.000      0.000
REMARK INTER + INTRA:         -11.579
REMARK INTER:                 -11.622
REMARK INTRA:                   0.043
REMARK UNBOUND:                 0.043
REMARK  Name = 
REMARK  8 active torsions:
REMARK  status: ('A' for Active; 'I' for Inactive)
REMARK    1  A    between atoms: C_1  and  O_2
REMARK    2  A    between atoms: O_2  and  C_3
REMARK    3  A    between atoms: C_7  and  C_8
REMARK    4  A    between atoms: C_12  and  C_13
REMARK    5  A    between atoms: C_13  and  N_14
REMARK    6  A    between atoms: N_14  and  C_15
REMARK    7  A    between atoms: C_18  and  C_19
REMARK    8  A    between atoms: C_25  and  C_26
REMARK                            x       y       z     vdW  Elec       q    Type
REMARK                         _______ _______ _______ _____ _____    ______ ____
ROOT
ATOM      1  C   UNL     1      44.225   4.858  11.650  0.00  0.00    +0.000 C 
ATOM      2  C   UNL     1      42.993   4.935  12.532  0.00  0.00    +0.000 C 
ATOM      3  C   UNL     1      43.725   3.634  12.438  0.00  0.00    +0.000 C 
ATOM      4  C   UNL     1      43.078   2.473  11.755  0.00  0.00    +0.000 C 
ENDROOT
BRANCH   1   9
ATOM      5  C   UNL     1      47.269   5.710  13.897  0.00  0.00    +0.000 A 
ATOM      6  C   UNL     1      47.882   6.704  13.119  0.00  0.00    +0.000 A 
ATOM      7  C   UNL     1      47.355   7.082  11.883  0.00  0.00    +0.000 A 
ATOM      8  C   UNL     1      46.187   6.488  11.407  0.00  0.00    +0.000 A 
ATOM      9  C   UNL     1      45.522   5.500  12.145  0.00  0.00    +0.000 A 
ATOM     10  C   UNL     1      46.100   5.118  13.375  0.00  0.00    +0.000 A 
BRANCH   5  15
ATOM     11  C   UNL     1      49.204   5.723  17.177  0.00  0.00    +0.000 A 
ATOM     12  C   UNL     1      48.811   4.479  17.651  0.00  0.00    +0.000 A 
ATOM     13  N   UNL     1      47.970   3.646  16.999  0.00  0.00    +0.000 NA
ATOM     14  C   UNL     1      47.496   4.083  15.808  0.00  0.00    +0.000 A 
ATOM     15  C   UNL     1      47.816   5.306  15.213  0.00  0.00    +0.000 A 
ATOM     16  C   UNL     1      48.698   6.128  15.940  0.00  0.00    +0.000 A 
BRANCH  11  18
ATOM     17  C   UNL     1      50.670   5.719  19.048  0.00  0.00    +0.000 C 
ATOM     18  O   UNL     1      50.058   6.426  17.976  0.00  0.00    +0.000 OA
ENDBRANCH  11  18
ENDBRANCH   5  15
ENDBRANCH   1   9
BRANCH   1  19
ATOM     19  N   UNL     1      44.148   4.727  10.188  0.00  0.00    +0.000 N 
ATOM     20  H   UNL     1      43.206   4.746   9.807  0.00  0.00    +0.000 HD
BRANCH  19  21
ATOM     21  C   UNL     1      45.068   4.093   9.339  0.00  0.00    +0.000 A 
ATOM     22  C   UNL     1      45.825   4.727   8.354  0.00  0.00    +0.000 A 
ATOM     23  C   UNL     1      46.636   3.976   7.495  0.00  0.00    +0.000 A 
ATOM     24  C   UNL     1      46.638   2.593   7.625  0.00  0.00    +0.000 A 
ATOM     25  N   UNL     1      45.908   1.925   8.555  0.00  0.00    +0.000 NA
ATOM     26  C   UNL     1      45.150   2.694   9.369  0.00  0.00    +0.000 A 
BRANCH  24  27
ATOM     27  C   UNL     1      47.438   1.736   6.690  0.00  0.00    +0.000 C 
ATOM     28  N   UNL     1      48.551   2.341   6.166  0.00  0.00    +0.000 N 
ATOM     29  O   UNL     1      47.138   0.581   6.423  0.00  0.00    +0.000 OA
ATOM     30  H   UNL     1      48.775   3.289   6.446  0.00  0.00    +0.000 HD
ATOM     31  H   UNL     1      49.174   1.821   5.565  0.00  0.00    +0.000 HD
ENDBRANCH  24  27
ENDBRANCH  19  21
ENDBRANCH   1  19
TORSDOF 6
ENDMDL
MODEL 2
REMARK VINA RESULT:    -8.561      2.046      8.112
REMARK INTER + INTRA:         -11.521
REMARK INTER:                 -10.578
REMARK INTRA:                  -0.944
REMARK UNBOUND:                 0.043
REMARK  Name = 
REMARK  8 active torsions:
REMARK  status: ('A' for Active; 'I' for Inactive)
REMARK    1  A    between atoms: C_1  and  O_2
REMARK    2  A    between atoms: O_2  and  C_3
REMARK    3  A    between atoms: C_7  and  C_8
REMARK    4  A    between atoms: C_12  and  C_13
REMARK    5  A    between atoms: C_13  and  N_14
REMARK    6  A    between atoms: N_14  and  C_15
REMARK    7  A    between atoms: C_18  and  C_19
REMARK    8  A    between atoms: C_25  and  C_26
REMARK                            x       y       z     vdW  Elec       q    Type
REMARK                         _______ _______ _______ _____ _____    ______ ____
ROOT
ATOM      1  C   UNL     1      46.331   7.494  12.530  0.00  0.00    +0.000 C 
ATOM      2  C   UNL     1      45.870   8.834  13.072  0.00  0.00    +0.000 C 
ATOM      3  C   UNL     1      46.686   8.812  11.819  0.00  0.00    +0.000 C 
ATOM      4  C   UNL     1      48.075   9.362  11.834  0.00  0.00    +0.000 C 
ENDROOT
BRANCH   1   9
ATOM      5  C   UNL     1      44.822   4.765  10.225  0.00  0.00    +0.000 A 
ATOM      6  C   UNL     1      43.454   4.963  10.467  0.00  0.00    +0.000 A 
ATOM      7  C   UNL     1      43.012   5.930  11.371  0.00  0.00    +0.000 A 
ATOM      8  C   UNL     1      43.932   6.739  12.038  0.00  0.00    +0.000 A 
ATOM      9  C   UNL     1      45.310   6.598  11.828  0.00  0.00    +0.000 A 
ATOM     10  C   UNL     1      45.724   5.588  10.931  0.00  0.00    +0.000 A 
BRANCH   5  15
ATOM     11  C   UNL     1      46.281   3.116   7.117  0.00  0.00    +0.000 A 
ATOM     12  C   UNL     1      46.153   1.791   7.510  0.00  0.00    +0.000 A 
ATOM     13  N   UNL     1      45.642   1.393   8.696  0.00  0.00    +0.000 NA
ATOM     14  C   UNL     1      45.236   2.377   9.535  0.00  0.00    +0.000 A 
ATOM     15  C   UNL     1      45.300   3.746   9.262  0.00  0.00    +0.000 A 
ATOM     16  C   UNL     1      45.842   4.096   8.010  0.00  0.00    +0.000 A 
BRANCH  11  18
ATOM     17  C   UNL     1      47.874   2.453   5.482  0.00  0.00    +0.000 C 
ATOM     18  O   UNL     1      46.824   3.326   5.883  0.00  0.00    +0.000 OA
ENDBRANCH  11  18
ENDBRANCH   5  15
ENDBRANCH   1   9
BRANCH   1  19
ATOM     19  N   UNL     1      47.478   6.764  13.088  0.00  0.00    +0.000 N 
ATOM     20  H   UNL     1      48.159   6.451  12.402  0.00  0.00    +0.000 HD
BRANCH  19  21
ATOM     21  C   UNL     1      47.518   6.019  14.277  0.00  0.00    +0.000 A 
ATOM     22  C   UNL     1      48.370   6.266  15.353  0.00  0.00    +0.000 A 
ATOM     23  C   UNL     1      48.394   5.393  16.449  0.00  0.00    +0.000 A 
ATOM     24  C   UNL     1      47.582   4.266  16.416  0.00  0.00    +0.000 A 
ATOM     25  N   UNL     1      46.747   3.971  15.387  0.00  0.00    +0.000 NA
ATOM     26  C   UNL     1      46.750   4.850  14.359  0.00  0.00    +0.000 A 
BRANCH  24  27
ATOM     27  C   UNL     1      47.616   3.265  17.532  0.00  0.00    +0.000 C 
ATOM     28  N   UNL     1      48.730   3.329  18.328  0.00  0.00    +0.000 N 
ATOM     29  O   UNL     1      46.717   2.461  17.733  0.00  0.00    +0.000 OA
ATOM     30  H   UNL     1      49.431   4.036  18.140  0.00  0.00    +0.000 HD
ATOM     31  H   UNL     1      48.812   2.724  19.133  0.00  0.00    +0.000 HD
ENDBRANCH  24  27
ENDBRANCH  19  21
ENDBRANCH   1  19
TORSDOF 6
ENDMDL
MODEL 3
REMARK VINA RESULT:    -8.270      2.202      8.098
REMARK INTER + INTRA:         -11.128
REMARK INTER:                 -10.283
REMARK INTRA:                  -0.845
REMARK UNBOUND:                 0.043
REMARK  Name = 
REMARK  8 active torsions:
REMARK  status: ('A' for Active; 'I' for Inactive)
REMARK    1  A    between atoms: C_1  and  O_2
REMARK    2  A    between atoms: O_2  and  C_3
REMARK    3  A    between atoms: C_7  and  C_8
REMARK    4  A    between atoms: C_12  and  C_13
REMARK    5  A    between atoms: C_13  and  N_14
REMARK    6  A    between atoms: N_14  and  C_15
REMARK    7  A    between atoms: C_18  and  C_19
REMARK    8  A    between atoms: C_25  and  C_26
REMARK                            x       y       z     vdW  Elec       q    Type
REMARK                         _______ _______ _______ _____ _____    ______ ____
ROOT
ATOM      1  C   UNL     1      48.474   8.115  12.548  0.00  0.00    +0.000 C 
ATOM      2  C   UNL     1      48.896   9.563  12.713  0.00  0.00    +0.000 C 
ATOM      3  C   UNL     1      49.366   8.813  11.507  0.00  0.00    +0.000 C 
ATOM      4  C   UNL     1      50.815   8.479  11.365  0.00  0.00    +0.000 C 
ENDROOT
BRANCH   1   9
ATOM      5  C   UNL     1      45.413   6.312  10.992  0.00  0.00    +0.000 A 
ATOM      6  C   UNL     1      44.408   7.255  11.258  0.00  0.00    +0.000 A 
ATOM      7  C   UNL     1      44.687   8.436  11.947  0.00  0.00    +0.000 A 
ATOM      8  C   UNL     1      45.988   8.711  12.367  0.00  0.00    +0.000 A 
ATOM      9  C   UNL     1      47.037   7.816  12.119  0.00  0.00    +0.000 A 
ATOM     10  C   UNL     1      46.713   6.616  11.448  0.00  0.00    +0.000 A 
BRANCH   5  15
ATOM     11  C   UNL     1      45.369   3.619   8.299  0.00  0.00    +0.000 A 
ATOM     12  C   UNL     1      44.536   2.709   8.934  0.00  0.00    +0.000 A 
ATOM     13  N   UNL     1      43.998   2.894  10.160  0.00  0.00    +0.000 NA
ATOM     14  C   UNL     1      44.311   4.055  10.784  0.00  0.00    +0.000 A 
ATOM     15  C   UNL     1      45.128   5.059  10.256  0.00  0.00    +0.000 A 
ATOM     16  C   UNL     1      45.656   4.807   8.975  0.00  0.00    +0.000 A 
BRANCH  11  18
ATOM     17  C   UNL     1      47.164   2.802   6.973  0.00  0.00    +0.000 C 
ATOM     18  O   UNL     1      45.819   3.258   7.063  0.00  0.00    +0.000 OA
ENDBRANCH  11  18
ENDBRANCH   5  15
ENDBRANCH   1   9
BRANCH   1  19
ATOM     19  N   UNL     1      49.118   7.012  13.275  0.00  0.00    +0.000 N 
ATOM     20  H   UNL     1      49.725   6.425  12.710  0.00  0.00    +0.000 HD
BRANCH  19  21
ATOM     21  C   UNL     1      48.651   6.364  14.430  0.00  0.00    +0.000 A 
ATOM     22  C   UNL     1      49.066   6.640  15.732  0.00  0.00    +0.000 A 
ATOM     23  C   UNL     1      48.608   5.858  16.799  0.00  0.00    +0.000 A 
ATOM     24  C   UNL     1      47.767   4.786  16.523  0.00  0.00    +0.000 A 
ATOM     25  N   UNL     1      47.347   4.464  15.273  0.00  0.00    +0.000 NA
ATOM     26  C   UNL     1      47.806   5.256  14.277  0.00  0.00    +0.000 A 
BRANCH  24  27
ATOM     27  C   UNL     1      47.299   3.877  17.619  0.00  0.00    +0.000 C 
ATOM     28  N   UNL     1      47.780   4.184  18.866  0.00  0.00    +0.000 N 
ATOM     29  O   UNL     1      46.534   2.943  17.429  0.00  0.00    +0.000 OA
ATOM     30  H   UNL     1      48.385   4.990  18.976  0.00  0.00    +0.000 HD
ATOM     31  H   UNL     1      47.478   3.653  19.670  0.00  0.00    +0.000 HD
ENDBRANCH  24  27
ENDBRANCH  19  21
ENDBRANCH   1  19
TORSDOF 6
ENDMDL
MODEL 4
REMARK VINA RESULT:    -8.058      3.034      4.461
REMARK INTER + INTRA:         -10.841
REMARK INTER:                  -9.915
REMARK INTRA:                  -0.927
REMARK UNBOUND:                 0.043
REMARK  Name = 
REMARK  8 active torsions:
REMARK  status: ('A' for Active; 'I' for Inactive)
REMARK    1  A    between atoms: C_1  and  O_2
REMARK    2  A    between atoms: O_2  and  C_3
REMARK    3  A    between atoms: C_7  and  C_8
REMARK    4  A    between atoms: C_12  and  C_13
REMARK    5  A    between atoms: C_13  and  N_14
REMARK    6  A    between atoms: N_14  and  C_15
REMARK    7  A    between atoms: C_18  and  C_19
REMARK    8  A    between atoms: C_25  and  C_26
REMARK                            x       y       z     vdW  Elec       q    Type
REMARK                         _______ _______ _______ _____ _____    ______ ____
ROOT
ATOM      1  C   UNL     1      44.664   5.661  11.366  0.00  0.00    +0.000 C 
ATOM      2  C   UNL     1      43.957   6.861  10.765  0.00  0.00    +0.000 C 
ATOM      3  C   UNL     1      43.382   6.236  11.995  0.00  0.00    +0.000 C 
ATOM      4  C   UNL     1      42.076   5.514  11.913  0.00  0.00    +0.000 C 
ENDROOT
BRANCH   1   9
ATOM      5  C   UNL     1      48.132   7.072  12.378  0.00  0.00    +0.000 A 
ATOM      6  C   UNL     1      48.394   6.294  13.517  0.00  0.00    +0.000 A 
ATOM      7  C   UNL     1      47.472   5.353  13.978  0.00  0.00    +0.000 A 
ATOM      8  C   UNL     1      46.273   5.152  13.295  0.00  0.00    +0.000 A 
ATOM      9  C   UNL     1      45.961   5.888  12.144  0.00  0.00    +0.000 A 
ATOM     10  C   UNL     1      46.901   6.855  11.724  0.00  0.00    +0.000 A 
BRANCH   5  15
ATOM     11  C   UNL     1      51.327   8.674  11.064  0.00  0.00    +0.000 A 
ATOM     12  C   UNL     1      50.875   9.982  10.969  0.00  0.00    +0.000 A 
ATOM     13  N   UNL     1      49.624  10.382  11.288  0.00  0.00    +0.000 NA
ATOM     14  C   UNL     1      48.779   9.418  11.727  0.00  0.00    +0.000 A 
ATOM     15  C   UNL     1      49.106   8.067  11.877  0.00  0.00    +0.000 A 
ATOM     16  C   UNL     1      50.425   7.715  11.530  0.00  0.00    +0.000 A 
BRANCH  11  18
ATOM     17  C   UNL     1      52.898   8.420   9.298  0.00  0.00    +0.000 C 
ATOM     18  O   UNL     1      52.622   8.459  10.693  0.00  0.00    +0.000 OA
ENDBRANCH  11  18
ENDBRANCH   5  15
ENDBRANCH   1   9
BRANCH   1  19
ATOM     19  N   UNL     1      44.530   4.304  10.818  0.00  0.00    +0.000 N 
ATOM     20  H   UNL     1      44.330   3.584  11.507  0.00  0.00    +0.000 HD
BRANCH  19  21
ATOM     21  C   UNL     1      45.116   3.795   9.649  0.00  0.00    +0.000 A 
ATOM     22  C   UNL     1      45.277   2.442   9.352  0.00  0.00    +0.000 A 
ATOM     23  C   UNL     1      45.970   2.049   8.201  0.00  0.00    +0.000 A 
ATOM     24  C   UNL     1      46.521   3.034   7.390  0.00  0.00    +0.000 A 
ATOM     25  N   UNL     1      46.408   4.364   7.642  0.00  0.00    +0.000 NA
ATOM     26  C   UNL     1      45.719   4.694   8.758  0.00  0.00    +0.000 A 
BRANCH  24  27
ATOM     27  C   UNL     1      47.328   2.669   6.181  0.00  0.00    +0.000 C 
ATOM     28  N   UNL     1      48.545   2.100   6.452  0.00  0.00    +0.000 N 
ATOM     29  O   UNL     1      46.933   2.846   5.037  0.00  0.00    +0.000 OA
ATOM     30  H   UNL     1      48.812   1.944   7.417  0.00  0.00    +0.000 HD
ATOM     31  H   UNL     1      49.133   1.779   5.697  0.00  0.00    +0.000 HD
ENDBRANCH  24  27
ENDBRANCH  19  21
ENDBRANCH   1  19
TORSDOF 6
ENDMDL
MODEL 5
REMARK VINA RESULT:    -7.708      3.076      8.536
REMARK INTER + INTRA:         -10.368
REMARK INTER:                  -9.730
REMARK INTRA:                  -0.639
REMARK UNBOUND:                 0.043
REMARK  Name = 
REMARK  8 active torsions:
REMARK  status: ('A' for Active; 'I' for Inactive)
REMARK    1  A    between atoms: C_1  and  O_2
REMARK    2  A    between atoms: O_2  and  C_3
REMARK    3  A    between atoms: C_7  and  C_8
REMARK    4  A    between atoms: C_12  and  C_13
REMARK    5  A    between atoms: C_13  and  N_14
REMARK    6  A    between atoms: N_14  and  C_15
REMARK    7  A    between atoms: C_18  and  C_19
REMARK    8  A    between atoms: C_25  and  C_26
REMARK                            x       y       z     vdW  Elec       q    Type
REMARK                         _______ _______ _______ _____ _____    ______ ____
ROOT
ATOM      1  C   UNL     1      48.199   4.750  16.950  0.00  0.00    +0.000 C 
ATOM      2  C   UNL     1      47.256   3.725  17.551  0.00  0.00    +0.000 C 
ATOM      3  C   UNL     1      47.216   5.126  18.072  0.00  0.00    +0.000 C 
ATOM      4  C   UNL     1      47.684   5.408  19.463  0.00  0.00    +0.000 C 
ENDROOT
BRANCH   1   9
ATOM      5  C   UNL     1      46.586   5.176  13.449  0.00  0.00    +0.000 A 
ATOM      6  C   UNL     1      47.324   6.269  12.967  0.00  0.00    +0.000 A 
ATOM      7  C   UNL     1      48.302   6.883  13.750  0.00  0.00    +0.000 A 
ATOM      8  C   UNL     1      48.580   6.402  15.029  0.00  0.00    +0.000 A 
ATOM      9  C   UNL     1      47.887   5.306  15.560  0.00  0.00    +0.000 A 
ATOM     10  C   UNL     1      46.881   4.730  14.754  0.00  0.00    +0.000 A 
BRANCH   5  15
ATOM     11  C   UNL     1      44.393   4.175  10.501  0.00  0.00    +0.000 A 
ATOM     12  C   UNL     1      43.586   3.251  11.150  0.00  0.00    +0.000 A 
ATOM     13  N   UNL     1      43.701   2.925  12.457  0.00  0.00    +0.000 NA
ATOM     14  C   UNL     1      44.677   3.559  13.151  0.00  0.00    +0.000 A 
ATOM     15  C   UNL     1      45.551   4.514  12.623  0.00  0.00    +0.000 A 
ATOM     16  C   UNL     1      45.379   4.811  11.257  0.00  0.00    +0.000 A 
BRANCH  11  18
ATOM     17  C   UNL     1      44.895   3.614   8.246  0.00  0.00    +0.000 C 
ATOM     18  O   UNL     1      44.131   4.372   9.176  0.00  0.00    +0.000 OA
ENDBRANCH  11  18
ENDBRANCH   5  15
ENDBRANCH   1   9
BRANCH   1  19
ATOM     19  N   UNL     1      49.619   4.833  17.317  0.00  0.00    +0.000 N 
ATOM     20  H   UNL     1      50.085   5.690  17.031  0.00  0.00    +0.000 HD
BRANCH  19  21
ATOM     21  C   UNL     1      50.512   3.769  17.521  0.00  0.00    +0.000 A 
ATOM     22  C   UNL     1      51.788   3.882  18.071  0.00  0.00    +0.000 A 
ATOM     23  C   UNL     1      52.632   2.766  18.132  0.00  0.00    +0.000 A 
ATOM     24  C   UNL     1      52.181   1.564  17.600  0.00  0.00    +0.000 A 
ATOM     25  N   UNL     1      50.955   1.404  17.039  0.00  0.00    +0.000 NA
ATOM     26  C   UNL     1      50.172   2.506  17.015  0.00  0.00    +0.000 A 
BRANCH  24  27
ATOM     27  C   UNL     1      53.067   0.355  17.580  0.00  0.00    +0.000 C 
ATOM     28  N   UNL     1      52.784  -0.581  18.541  0.00  0.00    +0.000 N 
ATOM     29  O   UNL     1      53.963   0.198  16.764  0.00  0.00    +0.000 OA
ATOM     30  H   UNL     1      52.008  -0.420  19.173  0.00  0.00    +0.000 HD
ATOM     31  H   UNL     1      53.299  -1.449  18.570  0.00  0.00    +0.000 HD
ENDBRANCH  24  27
ENDBRANCH  19  21
ENDBRANCH   1  19
TORSDOF 6
ENDMDL
MODEL 6
REMARK VINA RESULT:    -7.464      3.137      3.865
REMARK INTER + INTRA:         -10.039
REMARK INTER:                  -8.963
REMARK INTRA:                  -1.075
REMARK UNBOUND:                 0.043
REMARK  Name = 
REMARK  8 active torsions:
REMARK  status: ('A' for Active; 'I' for Inactive)
REMARK    1  A    between atoms: C_1  and  O_2
REMARK    2  A    between atoms: O_2  and  C_3
REMARK    3  A    between atoms: C_7  and  C_8
REMARK    4  A    between atoms: C_12  and  C_13
REMARK    5  A    between atoms: C_13  and  N_14
REMARK    6  A    between atoms: N_14  and  C_15
REMARK    7  A    between atoms: C_18  and  C_19
REMARK    8  A    between atoms: C_25  and  C_26
REMARK                            x       y       z     vdW  Elec       q    Type
REMARK                         _______ _______ _______ _____ _____    ______ ____
ROOT
ATOM      1  C   UNL     1      44.305   5.878  11.582  0.00  0.00    +0.000 C 
ATOM      2  C   UNL     1      42.833   5.898  11.215  0.00  0.00    +0.000 C 
ATOM      3  C   UNL     1      43.213   5.622  12.635  0.00  0.00    +0.000 C 
ATOM      4  C   UNL     1      42.979   4.262  13.209  0.00  0.00    +0.000 C 
ENDROOT
BRANCH   1   9
ATOM      5  C   UNL     1      47.150   8.447  12.164  0.00  0.00    +0.000 A 
ATOM      6  C   UNL     1      46.450   9.646  11.953  0.00  0.00    +0.000 A 
ATOM      7  C   UNL     1      45.100   9.642  11.602  0.00  0.00    +0.000 A 
ATOM      8  C   UNL     1      44.411   8.436  11.476  0.00  0.00    +0.000 A 
ATOM      9  C   UNL     1      45.052   7.208  11.688  0.00  0.00    +0.000 A 
ATOM     10  C   UNL     1      46.426   7.247  12.010  0.00  0.00    +0.000 A 
BRANCH   5  15
ATOM     11  C   UNL     1      50.952   8.342  11.971  0.00  0.00    +0.000 A 
ATOM     12  C   UNL     1      51.228   8.415  13.329  0.00  0.00    +0.000 A 
ATOM     13  N   UNL     1      50.286   8.503  14.294  0.00  0.00    +0.000 NA
ATOM     14  C   UNL     1      48.998   8.518  13.877  0.00  0.00    +0.000 A 
ATOM     15  C   UNL     1      48.581   8.441  12.544  0.00  0.00    +0.000 A 
ATOM     16  C   UNL     1      49.610   8.350  11.587  0.00  0.00    +0.000 A 
BRANCH  11  18
ATOM     17  C   UNL     1      52.015   7.240  10.153  0.00  0.00    +0.000 C 
ATOM     18  O   UNL     1      52.034   8.261  11.143  0.00  0.00    +0.000 OA
ENDBRANCH  11  18
ENDBRANCH   5  15
ENDBRANCH   1   9
BRANCH   1  19
ATOM     19  N   UNL     1      45.177   4.728  11.303  0.00  0.00    +0.000 N 
ATOM     20  H   UNL     1      45.933   4.594  11.968  0.00  0.00    +0.000 HD
BRANCH  19  21
ATOM     21  C   UNL     1      45.436   4.136  10.056  0.00  0.00    +0.000 A 
ATOM     22  C   UNL     1      45.309   2.778   9.768  0.00  0.00    +0.000 A 
ATOM     23  C   UNL     1      45.694   2.284   8.515  0.00  0.00    +0.000 A 
ATOM     24  C   UNL     1      46.236   3.169   7.591  0.00  0.00    +0.000 A 
ATOM     25  N   UNL     1      46.395   4.497   7.827  0.00  0.00    +0.000 NA
ATOM     26  C   UNL     1      45.997   4.928   9.045  0.00  0.00    +0.000 A 
BRANCH  24  27
ATOM     27  C   UNL     1      46.724   2.684   6.259  0.00  0.00    +0.000 C 
ATOM     28  N   UNL     1      46.867   3.660   5.308  0.00  0.00    +0.000 N 
ATOM     29  O   UNL     1      46.993   1.512   6.034  0.00  0.00    +0.000 OA
ATOM     30  H   UNL     1      46.664   4.622   5.555  0.00  0.00    +0.000 HD
ATOM     31  H   UNL     1      47.238   3.430   4.397  0.00  0.00    +0.000 HD
ENDBRANCH  24  27
ENDBRANCH  19  21
ENDBRANCH   1  19
TORSDOF 6
ENDMDL
MODEL 7
REMARK VINA RESULT:    -7.429      2.657      8.361
REMARK INTER + INTRA:          -9.992
REMARK INTER:                  -8.881
REMARK INTRA:                  -1.111
REMARK UNBOUND:                 0.043
REMARK  Name = 
REMARK  8 active torsions:
REMARK  status: ('A' for Active; 'I' for Inactive)
REMARK    1  A    between atoms: C_1  and  O_2
REMARK    2  A    between atoms: O_2  and  C_3
REMARK    3  A    between atoms: C_7  and  C_8
REMARK    4  A    between atoms: C_12  and  C_13
REMARK    5  A    between atoms: C_13  and  N_14
REMARK    6  A    between atoms: N_14  and  C_15
REMARK    7  A    between atoms: C_18  and  C_19
REMARK    8  A    between atoms: C_25  and  C_26
REMARK                            x       y       z     vdW  Elec       q    Type
REMARK                         _______ _______ _______ _____ _____    ______ ____
ROOT
ATOM      1  C   UNL     1      49.200   8.123  12.453  0.00  0.00    +0.000 C 
ATOM      2  C   UNL     1      49.910   9.377  11.981  0.00  0.00    +0.000 C 
ATOM      3  C   UNL     1      50.010   8.141  11.145  0.00  0.00    +0.000 C 
ATOM      4  C   UNL     1      51.322   7.436  11.025  0.00  0.00    +0.000 C 
ENDROOT
BRANCH   1   9
ATOM      5  C   UNL     1      45.631   6.674  12.002  0.00  0.00    +0.000 A 
ATOM      6  C   UNL     1      44.882   7.861  11.980  0.00  0.00    +0.000 A 
ATOM      7  C   UNL     1      45.494   9.106  12.135  0.00  0.00    +0.000 A 
ATOM      8  C   UNL     1      46.876   9.192  12.293  0.00  0.00    +0.000 A 
ATOM      9  C   UNL     1      47.679   8.044  12.309  0.00  0.00    +0.000 A 
ATOM     10  C   UNL     1      47.024   6.799  12.182  0.00  0.00    +0.000 A 
BRANCH   5  15
ATOM     11  C   UNL     1      44.316   3.456  10.445  0.00  0.00    +0.000 A 
ATOM     12  C   UNL     1      43.766   2.888  11.586  0.00  0.00    +0.000 A 
ATOM     13  N   UNL     1      43.794   3.458  12.811  0.00  0.00    +0.000 NA
ATOM     14  C   UNL     1      44.406   4.663  12.899  0.00  0.00    +0.000 A 
ATOM     15  C   UNL     1      44.992   5.349  11.831  0.00  0.00    +0.000 A 
ATOM     16  C   UNL     1      44.928   4.704  10.581  0.00  0.00    +0.000 A 
BRANCH  11  18
ATOM     17  C   UNL     1      45.308   1.933   8.914  0.00  0.00    +0.000 C 
ATOM     18  O   UNL     1      44.194   2.732   9.296  0.00  0.00    +0.000 OA
ENDBRANCH  11  18
ENDBRANCH   5  15
ENDBRANCH   1   9
BRANCH   1  19
ATOM     19  N   UNL     1      49.742   7.252  13.505  0.00  0.00    +0.000 N 
ATOM     20  H   UNL     1      50.189   6.403  13.169  0.00  0.00    +0.000 HD
BRANCH  19  21
ATOM     21  C   UNL     1      49.307   7.149  14.836  0.00  0.00    +0.000 A 
ATOM     22  C   UNL     1      49.578   8.073  15.845  0.00  0.00    +0.000 A 
ATOM     23  C   UNL     1      49.180   7.815  17.163  0.00  0.00    +0.000 A 
ATOM     24  C   UNL     1      48.548   6.609  17.441  0.00  0.00    +0.000 A 
ATOM     25  N   UNL     1      48.276   5.669  16.499  0.00  0.00    +0.000 NA
ATOM     26  C   UNL     1      48.668   5.969  15.240  0.00  0.00    +0.000 A 
BRANCH  24  27
ATOM     27  C   UNL     1      48.158   6.253  18.844  0.00  0.00    +0.000 C 
ATOM     28  N   UNL     1      47.241   5.239  18.947  0.00  0.00    +0.000 N 
ATOM     29  O   UNL     1      48.628   6.807  19.827  0.00  0.00    +0.000 OA
ATOM     30  H   UNL     1      46.907   4.789  18.102  0.00  0.00    +0.000 HD
ATOM     31  H   UNL     1      46.959   4.902  19.855  0.00  0.00    +0.000 HD
ENDBRANCH  24  27
ENDBRANCH  19  21
ENDBRANCH   1  19
TORSDOF 6
ENDMDL
MODEL 8
REMARK VINA RESULT:    -7.384      2.473      8.443
REMARK INTER + INTRA:          -9.931
REMARK INTER:                  -8.921
REMARK INTRA:                  -1.009
REMARK UNBOUND:                 0.043
REMARK  Name = 
REMARK  8 active torsions:
REMARK  status: ('A' for Active; 'I' for Inactive)
REMARK    1  A    between atoms: C_1  and  O_2
REMARK    2  A    between atoms: O_2  and  C_3
REMARK    3  A    between atoms: C_7  and  C_8
REMARK    4  A    between atoms: C_12  and  C_13
REMARK    5  A    between atoms: C_13  and  N_14
REMARK    6  A    between atoms: N_14  and  C_15
REMARK    7  A    between atoms: C_18  and  C_19
REMARK    8  A    between atoms: C_25  and  C_26
REMARK                            x       y       z     vdW  Elec       q    Type
REMARK                         _______ _______ _______ _____ _____    ______ ____
ROOT
ATOM      1  C   UNL     1      49.369   8.384  12.642  0.00  0.00    +0.000 C 
ATOM      2  C   UNL     1      49.952   9.763  12.402  0.00  0.00    +0.000 C 
ATOM      3  C   UNL     1      50.221   8.688  11.398  0.00  0.00    +0.000 C 
ATOM      4  C   UNL     1      51.607   8.151  11.246  0.00  0.00    +0.000 C 
ENDROOT
BRANCH   1   9
ATOM      5  C   UNL     1      46.043   6.849  11.368  0.00  0.00    +0.000 A 
ATOM      6  C   UNL     1      45.125   7.773  11.894  0.00  0.00    +0.000 A 
ATOM      7  C   UNL     1      45.550   8.854  12.668  0.00  0.00    +0.000 A 
ATOM      8  C   UNL     1      46.909   9.049  12.914  0.00  0.00    +0.000 A 
ATOM      9  C   UNL     1      47.873   8.169  12.404  0.00  0.00    +0.000 A 
ATOM     10  C   UNL     1      47.406   7.068  11.653  0.00  0.00    +0.000 A 
BRANCH   5  15
ATOM     11  C   UNL     1      44.388   3.605  10.255  0.00  0.00    +0.000 A 
ATOM     12  C   UNL     1      44.837   3.587   8.942  0.00  0.00    +0.000 A 
ATOM     13  N   UNL     1      45.623   4.539   8.391  0.00  0.00    +0.000 NA
ATOM     14  C   UNL     1      45.977   5.566   9.200  0.00  0.00    +0.000 A 
ATOM     15  C   UNL     1      45.602   5.703  10.540  0.00  0.00    +0.000 A 
ATOM     16  C   UNL     1      44.786   4.678  11.055  0.00  0.00    +0.000 A 
BRANCH  11  18
ATOM     17  C   UNL     1      43.331   2.420  12.023  0.00  0.00    +0.000 C 
ATOM     18  O   UNL     1      43.599   2.558  10.633  0.00  0.00    +0.000 OA
ENDBRANCH  11  18
ENDBRANCH   5  15
ENDBRANCH   1   9
BRANCH   1  19
ATOM     19  N   UNL     1      49.964   7.423  13.581  0.00  0.00    +0.000 N 
ATOM     20  H   UNL     1      50.511   6.685  13.146  0.00  0.00    +0.000 HD
BRANCH  19  21
ATOM     21  C   UNL     1      49.497   7.076  14.858  0.00  0.00    +0.000 A 
ATOM     22  C   UNL     1      49.940   7.634  16.057  0.00  0.00    +0.000 A 
ATOM     23  C   UNL     1      49.476   7.137  17.281  0.00  0.00    +0.000 A 
ATOM     24  C   UNL     1      48.599   6.058  17.269  0.00  0.00    +0.000 A 
ATOM     25  N   UNL     1      48.150   5.468  16.131  0.00  0.00    +0.000 NA
ATOM     26  C   UNL     1      48.617   5.991  14.975  0.00  0.00    +0.000 A 
BRANCH  24  27
ATOM     27  C   UNL     1      48.122   5.444  18.550  0.00  0.00    +0.000 C 
ATOM     28  N   UNL     1      46.760   5.321  18.657  0.00  0.00    +0.000 N 
ATOM     29  O   UNL     1      48.880   5.065  19.432  0.00  0.00    +0.000 OA
ATOM     30  H   UNL     1      46.176   5.620  17.883  0.00  0.00    +0.000 HD
ATOM     31  H   UNL     1      46.354   4.874  19.465  0.00  0.00    +0.000 HD
ENDBRANCH  24  27
ENDBRANCH  19  21
ENDBRANCH   1  19
TORSDOF 6
ENDMDL
MODEL 9
REMARK VINA RESULT:    -7.253      2.744      4.825
REMARK INTER + INTRA:          -9.755
REMARK INTER:                  -8.848
REMARK INTRA:                  -0.907
REMARK UNBOUND:                 0.043
REMARK  Name = 
REMARK  8 active torsions:
REMARK  status: ('A' for Active; 'I' for Inactive)
REMARK    1  A    between atoms: C_1  and  O_2
REMARK    2  A    between atoms: O_2  and  C_3
REMARK    3  A    between atoms: C_7  and  C_8
REMARK    4  A    between atoms: C_12  and  C_13
REMARK    5  A    between atoms: C_13  and  N_14
REMARK    6  A    between atoms: N_14  and  C_15
REMARK    7  A    between atoms: C_18  and  C_19
REMARK    8  A    between atoms: C_25  and  C_26
REMARK                            x       y       z     vdW  Elec       q    Type
REMARK                         _______ _______ _______ _____ _____    ______ ____
ROOT
ATOM      1  C   UNL     1      47.798   8.236  13.410  0.00  0.00    +0.000 C 
ATOM      2  C   UNL     1      48.840   8.285  12.309  0.00  0.00    +0.000 C 
ATOM      3  C   UNL     1      48.227   9.568  12.771  0.00  0.00    +0.000 C 
ATOM      4  C   UNL     1      47.323  10.325  11.852  0.00  0.00    +0.000 C 
ENDROOT
BRANCH   1   9
ATOM      5  C   UNL     1      49.096   6.432  16.589  0.00  0.00    +0.000 A 
ATOM      6  C   UNL     1      49.065   7.494  17.507  0.00  0.00    +0.000 A 
ATOM      7  C   UNL     1      48.665   8.774  17.120  0.00  0.00    +0.000 A 
ATOM      8  C   UNL     1      48.264   9.016  15.806  0.00  0.00    +0.000 A 
ATOM      9  C   UNL     1      48.261   7.994  14.847  0.00  0.00    +0.000 A 
ATOM     10  C   UNL     1      48.702   6.719  15.265  0.00  0.00    +0.000 A 
BRANCH   5  15
ATOM     11  C   UNL     1      51.199   3.480  17.756  0.00  0.00    +0.000 A 
ATOM     12  C   UNL     1      50.218   2.500  17.711  0.00  0.00    +0.000 A 
ATOM     13  N   UNL     1      48.937   2.720  17.341  0.00  0.00    +0.000 NA
ATOM     14  C   UNL     1      48.621   3.992  16.998  0.00  0.00    +0.000 A 
ATOM     15  C   UNL     1      49.512   5.070  16.991  0.00  0.00    +0.000 A 
ATOM     16  C   UNL     1      50.831   4.775  17.385  0.00  0.00    +0.000 A 
BRANCH  11  18
ATOM     17  C   UNL     1      52.816   1.740  17.829  0.00  0.00    +0.000 C 
ATOM     18  O   UNL     1      52.437   3.071  18.158  0.00  0.00    +0.000 OA
ENDBRANCH  11  18
ENDBRANCH   5  15
ENDBRANCH   1   9
BRANCH   1  19
ATOM     19  N   UNL     1      46.401   7.853  13.164  0.00  0.00    +0.000 N 
ATOM     20  H   UNL     1      45.732   8.220  13.836  0.00  0.00    +0.000 HD
BRANCH  19  21
ATOM     21  C   UNL     1      45.935   6.706  12.501  0.00  0.00    +0.000 A 
ATOM     22  C   UNL     1      45.541   6.653  11.164  0.00  0.00    +0.000 A 
ATOM     23  C   UNL     1      44.995   5.477  10.636  0.00  0.00    +0.000 A 
ATOM     24  C   UNL     1      44.822   4.387  11.482  0.00  0.00    +0.000 A 
ATOM     25  N   UNL     1      45.173   4.392  12.793  0.00  0.00    +0.000 NA
ATOM     26  C   UNL     1      45.708   5.546  13.254  0.00  0.00    +0.000 A 
BRANCH  24  27
ATOM     27  C   UNL     1      44.183   3.126  10.986  0.00  0.00    +0.000 C 
ATOM     28  N   UNL     1      44.939   2.410  10.094  0.00  0.00    +0.000 N 
ATOM     29  O   UNL     1      43.080   2.747  11.354  0.00  0.00    +0.000 OA
ATOM     30  H   UNL     1      45.862   2.748   9.846  0.00  0.00    +0.000 HD
ATOM     31  H   UNL     1      44.607   1.522   9.746  0.00  0.00    +0.000 HD
ENDBRANCH  24  27
ENDBRANCH  19  21
ENDBRANCH   1  19
TORSDOF 6
ENDMDL
