MODEL 1
REMARK VINA RESULT:    -8.242      0.000      0.000
REMARK INTER + INTRA:         -10.580
REMARK INTER:                 -10.170
REMARK INTRA:                  -0.410
REMARK UNBOUND:                -0.410
REMARK  Name = 
REMARK  4 active torsions:
REMARK  status: ('A' for Active; 'I' for Inactive)
REMARK    1  A    between atoms: C_2  and  C_4
REMARK    2  A    between atoms: C_7  and  N_8
REMARK    3  A    between atoms: N_8  and  C_9
REMARK    4  A    between atoms: C_9  and  C_10
REMARK                            x       y       z     vdW  Elec       q    Type
REMARK                         _______ _______ _______ _____ _____    ______ ____
ROOT
ATOM      1  C   UNL     1      46.619   2.689   7.494  0.00  0.00    +0.000 A 
ATOM      2  C   UNL     1      46.243   4.029   7.623  0.00  0.00    +0.000 A 
ATOM      3  C   UNL     1      45.246   4.401   8.535  0.00  0.00    +0.000 A 
ATOM      4  C   UNL     1      44.613   3.443   9.329  0.00  0.00    +0.000 A 
ATOM      5  C   UNL     1      45.016   2.105   9.212  0.00  0.00    +0.000 A 
ATOM      6  C   UNL     1      45.994   1.723   8.289  0.00  0.00    +0.000 A 
ENDROOT
BRANCH   1   8
ATOM      7  N   UNL     1      47.856   3.034   5.423  0.00  0.00    +0.000 N 
ATOM      8  C   UNL     1      47.649   2.245   6.523  0.00  0.00    +0.000 C 
ATOM      9  O   UNL     1      48.315   1.231   6.702  0.00  0.00    +0.000 OA
ATOM     10  H   UNL     1      48.631   2.773   4.828  0.00  0.00    +0.000 HD
ATOM     11  H   UNL     1      47.532   3.990   5.379  0.00  0.00    +0.000 HD
ENDBRANCH   1   8
BRANCH   4  12
ATOM     12  N   UNL     1      43.641   3.751  10.302  0.00  0.00    +0.000 N 
ATOM     13  H   UNL     1      43.278   2.895  10.724  0.00  0.00    +0.000 HD
BRANCH  12  14
ATOM     14  C   UNL     1      43.801   4.852  11.290  0.00  0.00    +0.000 C 
ATOM     15  C   UNL     1      42.479   5.300  11.912  0.00  0.00    +0.000 C 
ATOM     16  C   UNL     1      43.228   6.233  11.019  0.00  0.00    +0.000 C 
BRANCH  14  17
ATOM     17  C   UNL     1      44.993   4.711  12.245  0.00  0.00    +0.000 A 
ATOM     18  C   UNL     1      45.426   3.461  12.702  0.00  0.00    +0.000 A 
ATOM     19  N   UNL     1      46.497   3.268  13.513  0.00  0.00    +0.000 NA
ATOM     20  C   UNL     1      47.146   4.396  13.868  0.00  0.00    +0.000 A 
ATOM     21  C   UNL     1      46.733   5.645  13.450  0.00  0.00    +0.000 A 
ATOM     22  N   UNL     1      45.659   5.831  12.645  0.00  0.00    +0.000 NA
ENDBRANCH  14  17
ENDBRANCH  12  14
ENDBRANCH   4  12
TORSDOF 4
ENDMDL
MODEL 2
REMARK VINA RESULT:    -6.965      1.484      2.396
REMARK INTER + INTRA:          -9.004
REMARK INTER:                  -9.484
REMARK INTRA:                   0.480
REMARK UNBOUND:                -0.410
REMARK  Name = 
REMARK  4 active torsions:
REMARK  status: ('A' for Active; 'I' for Inactive)
REMARK    1  A    between atoms: C_2  and  C_4
REMARK    2  A    between atoms: C_7  and  N_8
REMARK    3  A    between atoms: N_8  and  C_9
REMARK    4  A    between atoms: C_9  and  C_10
REMARK                            x       y       z     vdW  Elec       q    Type
REMARK                         _______ _______ _______ _____ _____    ______ ____
ROOT
ATOM      1  C   UNL     1      46.388   2.514   7.799  0.00  0.00    +0.000 A 
ATOM      2  C   UNL     1      46.355   3.909   7.866  0.00  0.00    +0.000 A 
ATOM      3  C   UNL     1      45.450   4.556   8.720  0.00  0.00    +0.000 A 
ATOM      4  C   UNL     1      44.571   3.821   9.516  0.00  0.00    +0.000 A 
ATOM      5  C   UNL     1      44.631   2.420   9.461  0.00  0.00    +0.000 A 
ATOM      6  C   UNL     1      45.515   1.769   8.595  0.00  0.00    +0.000 A 
ENDROOT
BRANCH   1   8
ATOM      7  N   UNL     1      48.367   2.488   6.375  0.00  0.00    +0.000 N 
ATOM      8  C   UNL     1      47.309   1.786   6.890  0.00  0.00    +0.000 C 
ATOM      9  O   UNL     1      47.157   0.599   6.627  0.00  0.00    +0.000 OA
ATOM     10  H   UNL     1      49.040   1.952   5.844  0.00  0.00    +0.000 HD
ATOM     11  H   UNL     1      48.674   3.366   6.772  0.00  0.00    +0.000 HD
ENDBRANCH   1   8
BRANCH   4  12
ATOM     12  N   UNL     1      43.673   4.402  10.433  0.00  0.00    +0.000 N 
ATOM     13  H   UNL     1      42.769   3.928  10.394  0.00  0.00    +0.000 HD
BRANCH  12  14
ATOM     14  C   UNL     1      44.059   4.783  11.818  0.00  0.00    +0.000 C 
ATOM     15  C   UNL     1      44.787   3.669  12.569  0.00  0.00    +0.000 C 
ATOM     16  C   UNL     1      43.430   4.098  13.020  0.00  0.00    +0.000 C 
BRANCH  14  17
ATOM     17  C   UNL     1      44.627   6.199  11.976  0.00  0.00    +0.000 A 
ATOM     18  C   UNL     1      44.141   7.274  11.224  0.00  0.00    +0.000 A 
ATOM     19  N   UNL     1      44.573   8.555  11.349  0.00  0.00    +0.000 NA
ATOM     20  C   UNL     1      45.536   8.739  12.274  0.00  0.00    +0.000 A 
ATOM     21  C   UNL     1      46.050   7.696  13.019  0.00  0.00    +0.000 A 
ATOM     22  N   UNL     1      45.619   6.418  12.886  0.00  0.00    +0.000 NA
ENDBRANCH  14  17
ENDBRANCH  12  14
ENDBRANCH   4  12
TORSDOF 4
ENDMDL
MODEL 3
REMARK VINA RESULT:    -6.000      3.448      6.368
REMARK INTER + INTRA:          -7.813
REMARK INTER:                  -7.485
REMARK INTRA:                  -0.328
REMARK UNBOUND:                -0.410
REMARK  Name = 
REMARK  4 active torsions:
REMARK  status: ('A' for Active; 'I' for Inactive)
REMARK    1  A    between atoms: C_2  and  C_4
REMARK    2  A    between atoms: C_7  and  N_8
REMARK    3  A    between atoms: N_8  and  C_9
REMARK    4  A    between atoms: C_9  and  C_10
REMARK                            x       y       z     vdW  Elec       q    Type
REMARK                         _______ _______ _______ _____ _____    ______ ____
ROOT
ATOM      1  C   UNL     1      47.533   8.356  13.177  0.00  0.00    +0.000 A 
ATOM      2  C   UNL     1      47.974   7.354  12.309  0.00  0.00    +0.000 A 
ATOM      3  C   UNL     1      47.055   6.638  11.528  0.00  0.00    +0.000 A 
ATOM      4  C   UNL     1      45.689   6.913  11.604  0.00  0.00    +0.000 A 
ATOM      5  C   UNL     1      45.259   7.939  12.459  0.00  0.00    +0.000 A 
ATOM      6  C   UNL     1      46.167   8.642  13.257  0.00  0.00    +0.000 A 
ENDROOT
BRANCH   1   8
ATOM      7  N   UNL     1      47.965   9.622  15.216  0.00  0.00    +0.000 N 
ATOM      8  C   UNL     1      48.465   9.121  14.042  0.00  0.00    +0.000 C 
ATOM      9  O   UNL     1      49.643   9.280  13.745  0.00  0.00    +0.000 OA
ATOM     10  H   UNL     1      48.637  10.048  15.839  0.00  0.00    +0.000 HD
ATOM     11  H   UNL     1      47.099   9.289  15.615  0.00  0.00    +0.000 HD
ENDBRANCH   1   8
BRANCH   4  12
ATOM     12  N   UNL     1      44.716   6.270  10.813  0.00  0.00    +0.000 N 
ATOM     13  H   UNL     1      44.742   6.629   9.857  0.00  0.00    +0.000 HD
BRANCH  12  14
ATOM     14  C   UNL     1      44.464   4.805  10.866  0.00  0.00    +0.000 C 
ATOM     15  C   UNL     1      43.029   4.454  11.259  0.00  0.00    +0.000 C 
ATOM     16  C   UNL     1      44.151   4.115  12.183  0.00  0.00    +0.000 C 
BRANCH  14  17
ATOM     17  C   UNL     1      45.078   3.990   9.722  0.00  0.00    +0.000 A 
ATOM     18  C   UNL     1      45.094   2.591   9.741  0.00  0.00    +0.000 A 
ATOM     19  N   UNL     1      45.584   1.814   8.742  0.00  0.00    +0.000 NA
ATOM     20  C   UNL     1      46.076   2.496   7.687  0.00  0.00    +0.000 A 
ATOM     21  C   UNL     1      46.093   3.875   7.646  0.00  0.00    +0.000 A 
ATOM     22  N   UNL     1      45.607   4.645   8.649  0.00  0.00    +0.000 NA
ENDBRANCH  14  17
ENDBRANCH  12  14
ENDBRANCH   4  12
TORSDOF 4
ENDMDL
MODEL 4
REMARK VINA RESULT:    -5.827      2.498      4.266
REMARK INTER + INTRA:          -7.600
REMARK INTER:                  -7.555
REMARK INTRA:                  -0.045
REMARK UNBOUND:                -0.410
REMARK  Name = 
REMARK  4 active torsions:
REMARK  status: ('A' for Active; 'I' for Inactive)
REMARK    1  A    between atoms: C_2  and  C_4
REMARK    2  A    between atoms: C_7  and  N_8
REMARK    3  A    between atoms: N_8  and  C_9
REMARK    4  A    between atoms: C_9  and  C_10
REMARK                            x       y       z     vdW  Elec       q    Type
REMARK                         _______ _______ _______ _____ _____    ______ ____
ROOT
ATOM      1  C   UNL     1      44.986   3.766  10.206  0.00  0.00    +0.000 A 
ATOM      2  C   UNL     1      45.332   5.109  10.032  0.00  0.00    +0.000 A 
ATOM      3  C   UNL     1      45.693   5.896  11.135  0.00  0.00    +0.000 A 
ATOM      4  C   UNL     1      45.712   5.355  12.421  0.00  0.00    +0.000 A 
ATOM      5  C   UNL     1      45.388   3.999  12.581  0.00  0.00    +0.000 A 
ATOM      6  C   UNL     1      45.006   3.214  11.490  0.00  0.00    +0.000 A 
ENDROOT
BRANCH   1   8
ATOM      7  N   UNL     1      44.280   3.521   7.885  0.00  0.00    +0.000 N 
ATOM      8  C   UNL     1      44.571   2.902   9.073  0.00  0.00    +0.000 C 
ATOM      9  O   UNL     1      44.517   1.682   9.174  0.00  0.00    +0.000 OA
ATOM     10  H   UNL     1      44.102   2.911   7.099  0.00  0.00    +0.000 HD
ATOM     11  H   UNL     1      44.569   4.469   7.689  0.00  0.00    +0.000 HD
ENDBRANCH   1   8
BRANCH   4  12
ATOM     12  N   UNL     1      46.114   6.072  13.566  0.00  0.00    +0.000 N 
ATOM     13  H   UNL     1      45.449   5.926  14.327  0.00  0.00    +0.000 HD
BRANCH  12  14
ATOM     14  C   UNL     1      47.522   6.123  14.040  0.00  0.00    +0.000 C 
ATOM     15  C   UNL     1      48.130   7.524  13.976  0.00  0.00    +0.000 C 
ATOM     16  C   UNL     1      48.656   6.450  13.084  0.00  0.00    +0.000 C 
BRANCH  14  17
ATOM     17  C   UNL     1      47.821   5.306  15.303  0.00  0.00    +0.000 A 
ATOM     18  C   UNL     1      47.001   4.245  15.705  0.00  0.00    +0.000 A 
ATOM     19  N   UNL     1      47.236   3.460  16.786  0.00  0.00    +0.000 NA
ATOM     20  C   UNL     1      48.348   3.773  17.481  0.00  0.00    +0.000 A 
ATOM     21  C   UNL     1      49.167   4.825  17.122  0.00  0.00    +0.000 A 
ATOM     22  N   UNL     1      48.925   5.609  16.044  0.00  0.00    +0.000 NA
ENDBRANCH  14  17
ENDBRANCH  12  14
ENDBRANCH   4  12
TORSDOF 4
ENDMDL
MODEL 5
REMARK VINA RESULT:    -5.638      3.458      5.468
REMARK INTER + INTRA:          -7.367
REMARK INTER:                  -6.978
REMARK INTRA:                  -0.388
REMARK UNBOUND:                -0.410
REMARK  Name = 
REMARK  4 active torsions:
REMARK  status: ('A' for Active; 'I' for Inactive)
REMARK    1  A    between atoms: C_2  and  C_4
REMARK    2  A    between atoms: C_7  and  N_8
REMARK    3  A    between atoms: N_8  and  C_9
REMARK    4  A    between atoms: C_9  and  C_10
REMARK                            x       y       z     vdW  Elec       q    Type
REMARK                         _______ _______ _______ _____ _____    ______ ____
ROOT
ATOM      1  C   UNL     1      44.587   4.120  11.601  0.00  0.00    +0.000 A 
ATOM      2  C   UNL     1      44.323   5.364  11.022  0.00  0.00    +0.000 A 
ATOM      3  C   UNL     1      44.890   6.529  11.557  0.00  0.00    +0.000 A 
ATOM      4  C   UNL     1      45.726   6.467  12.673  0.00  0.00    +0.000 A 
ATOM      5  C   UNL     1      46.006   5.211  13.230  0.00  0.00    +0.000 A 
ATOM      6  C   UNL     1      45.426   4.047  12.716  0.00  0.00    +0.000 A 
ENDROOT
BRANCH   1   8
ATOM      7  N   UNL     1      44.627   2.243  10.046  0.00  0.00    +0.000 N 
ATOM      8  C   UNL     1      43.988   2.863  11.087  0.00  0.00    +0.000 C 
ATOM      9  O   UNL     1      42.979   2.375  11.583  0.00  0.00    +0.000 OA
ATOM     10  H   UNL     1      44.265   1.337   9.778  0.00  0.00    +0.000 HD
ATOM     11  H   UNL     1      45.582   2.459   9.797  0.00  0.00    +0.000 HD
ENDBRANCH   1   8
BRANCH   4  12
ATOM     12  N   UNL     1      46.371   7.590  13.231  0.00  0.00    +0.000 N 
ATOM     13  H   UNL     1      45.986   7.797  14.154  0.00  0.00    +0.000 HD
BRANCH  12  14
ATOM     14  C   UNL     1      47.842   7.798  13.165  0.00  0.00    +0.000 C 
ATOM     15  C   UNL     1      48.251   8.911  12.201  0.00  0.00    +0.000 C 
ATOM     16  C   UNL     1      48.616   7.498  11.892  0.00  0.00    +0.000 C 
BRANCH  14  17
ATOM     17  C   UNL     1      48.573   7.757  14.512  0.00  0.00    +0.000 A 
ATOM     18  C   UNL     1      48.361   8.731  15.494  0.00  0.00    +0.000 A 
ATOM     19  N   UNL     1      48.945   8.727  16.719  0.00  0.00    +0.000 NA
ATOM     20  C   UNL     1      49.775   7.688  16.945  0.00  0.00    +0.000 A 
ATOM     21  C   UNL     1      50.020   6.721  15.991  0.00  0.00    +0.000 A 
ATOM     22  N   UNL     1      49.438   6.734  14.767  0.00  0.00    +0.000 NA
ENDBRANCH  14  17
ENDBRANCH  12  14
ENDBRANCH   4  12
TORSDOF 4
ENDMDL
MODEL 6
REMARK VINA RESULT:    -5.369      3.472      5.717
REMARK INTER + INTRA:          -7.035
REMARK INTER:                  -6.694
REMARK INTRA:                  -0.341
REMARK UNBOUND:                -0.410
REMARK  Name = 
REMARK  4 active torsions:
REMARK  status: ('A' for Active; 'I' for Inactive)
REMARK    1  A    between atoms: C_2  and  C_4
REMARK    2  A    between atoms: C_7  and  N_8
REMARK    3  A    between atoms: N_8  and  C_9
REMARK    4  A    between atoms: C_9  and  C_10
REMARK                            x       y       z     vdW  Elec       q    Type
REMARK                         _______ _______ _______ _____ _____    ______ ____
ROOT
ATOM      1  C   UNL     1      44.667   5.171  11.328  0.00  0.00    +0.000 A 
ATOM      2  C   UNL     1      44.898   6.498  10.958  0.00  0.00    +0.000 A 
ATOM      3  C   UNL     1      45.634   7.349  11.795  0.00  0.00    +0.000 A 
ATOM      4  C   UNL     1      46.146   6.887  13.008  0.00  0.00    +0.000 A 
ATOM      5  C   UNL     1      45.931   5.545  13.357  0.00  0.00    +0.000 A 
ATOM      6  C   UNL     1      45.180   4.697  12.538  0.00  0.00    +0.000 A 
ENDROOT
BRANCH   1   8
ATOM      7  N   UNL     1      43.942   4.407   9.129  0.00  0.00    +0.000 N 
ATOM      8  C   UNL     1      43.871   4.242  10.487  0.00  0.00    +0.000 C 
ATOM      9  O   UNL     1      43.198   3.341  10.975  0.00  0.00    +0.000 OA
ATOM     10  H   UNL     1      43.478   3.703   8.571  0.00  0.00    +0.000 HD
ATOM     11  H   UNL     1      44.676   4.945   8.691  0.00  0.00    +0.000 HD
ENDBRANCH   1   8
BRANCH   4  12
ATOM     12  N   UNL     1      46.937   7.670  13.873  0.00  0.00    +0.000 N 
ATOM     13  H   UNL     1      46.425   7.876  14.732  0.00  0.00    +0.000 HD
BRANCH  12  14
ATOM     14  C   UNL     1      48.380   7.406  14.117  0.00  0.00    +0.000 C 
ATOM     15  C   UNL     1      49.299   8.462  13.505  0.00  0.00    +0.000 C 
ATOM     16  C   UNL     1      49.317   7.069  12.969  0.00  0.00    +0.000 C 
BRANCH  14  17
ATOM     17  C   UNL     1      48.731   6.931  15.533  0.00  0.00    +0.000 A 
ATOM     18  C   UNL     1      48.803   7.821  16.610  0.00  0.00    +0.000 A 
ATOM     19  N   UNL     1      49.067   7.457  17.891  0.00  0.00    +0.000 NA
ATOM     20  C   UNL     1      49.266   6.136  18.073  0.00  0.00    +0.000 A 
ATOM     21  C   UNL     1      49.221   5.235  17.027  0.00  0.00    +0.000 A 
ATOM     22  N   UNL     1      48.963   5.605  15.750  0.00  0.00    +0.000 NA
ENDBRANCH  14  17
ENDBRANCH  12  14
ENDBRANCH   4  12
TORSDOF 4
ENDMDL
