MODEL 1
REMARK VINA RESULT:    -7.903      0.000      0.000
REMARK INTER + INTRA:         -11.480
REMARK INTER:                 -10.676
REMARK INTRA:                  -0.804
REMARK UNBOUND:                -0.804
REMARK  Name = 
REMARK  6 active torsions:
REMARK  status: ('A' for Active; 'I' for Inactive)
REMARK    1  A    between atoms: C_2  and  C_25
REMARK    2  A    between atoms: N_3  and  C_4
REMARK    3  A    between atoms: C_4  and  C_5
REMARK    4  A    between atoms: C_8  and  C_9
REMARK    5  A    between atoms: C_9  and  N_10
REMARK    6  A    between atoms: C_11  and  C_13
REMARK                            x       y       z     vdW  Elec       q    Type
REMARK                         _______ _______ _______ _____ _____    ______ ____
ROOT
ATOM      1  C   UNL     1      44.666   5.260  11.222  0.00  0.00    +0.000 A 
ATOM      2  C   UNL     1      45.656   4.738  12.058  0.00  0.00    +0.000 A 
ATOM      3  C   UNL     1      46.456   5.596  12.807  0.00  0.00    +0.000 A 
ATOM      4  C   UNL     1      46.251   6.969  12.704  0.00  0.00    +0.000 A 
ATOM      5  N   UNL     1      45.271   7.500  11.929  0.00  0.00    +0.000 NA
ATOM      6  C   UNL     1      44.506   6.642  11.217  0.00  0.00    +0.000 A 
ENDROOT
BRANCH   1   7
ATOM      7  C   UNL     1      43.836   4.377  10.346  0.00  0.00    +0.000 C 
BRANCH   7  10
ATOM      8  O   UNL     1      45.496   4.753   8.150  0.00  0.00    +0.000 OA
ATOM      9  C   UNL     1      45.394   3.623   8.621  0.00  0.00    +0.000 C 
ATOM     10  N   UNL     1      44.592   3.338   9.702  0.00  0.00    +0.000 N 
ATOM     11  H   UNL     1      44.630   2.392  10.073  0.00  0.00    +0.000 HD
BRANCH   9  12
ATOM     12  C   UNL     1      46.114   2.485   8.086  0.00  0.00    +0.000 A 
ATOM     13  N   UNL     1      45.902   1.220   8.413  0.00  0.00    +0.000 NA
ATOM     14  C   UNL     1      46.788   0.496   7.646  0.00  0.00    +0.000 A 
ATOM     15  C   UNL     1      47.555   1.327   6.865  0.00  0.00    +0.000 A 
ATOM     16  N   UNL     1      47.116   2.588   7.152  0.00  0.00    +0.000 N 
ATOM     17  H   UNL     1      47.447   3.461   6.763  0.00  0.00    +0.000 HD
ENDBRANCH   9  12
ENDBRANCH   7  10
ENDBRANCH   1   7
BRANCH   4  18
ATOM     18  C   UNL     1      47.124   7.928  13.477  0.00  0.00    +0.000 C 
BRANCH  18  19
ATOM     19  N   UNL     1      47.630   7.344  14.698  0.00  0.00    +0.000 N 
ATOM     20  C   UNL     1      48.926   6.928  14.835  0.00  0.00    +0.000 C 
ATOM     21  O   UNL     1      49.741   7.027  13.920  0.00  0.00    +0.000 OA
ATOM     22  H   UNL     1      46.926   7.048  15.368  0.00  0.00    +0.000 HD
BRANCH  20  23
ATOM     23  C   UNL     1      49.318   6.423  16.158  0.00  0.00    +0.000 A 
ATOM     24  C   UNL     1      50.309   7.081  16.875  0.00  0.00    +0.000 A 
ATOM     25  S   UNL     1      50.613   6.401  18.408  0.00  0.00    +0.000 S 
ATOM     26  C   UNL     1      49.463   5.175  18.152  0.00  0.00    +0.000 A 
ATOM     27  N   UNL     1      49.240   4.218  19.094  0.00  0.00    +0.000 NA
ATOM     28  C   UNL     1      48.369   3.329  18.756  0.00  0.00    +0.000 A 
ATOM     29  N   UNL     1      47.690   3.315  17.565  0.00  0.00    +0.000 N 
ATOM     30  C   UNL     1      47.840   4.290  16.610  0.00  0.00    +0.000 A 
ATOM     31  O   UNL     1      47.152   4.297  15.594  0.00  0.00    +0.000 OA
ATOM     32  C   UNL     1      48.838   5.295  16.924  0.00  0.00    +0.000 A 
ATOM     33  H   UNL     1      47.003   2.602  17.368  0.00  0.00    +0.000 HD
ENDBRANCH  20  23
ENDBRANCH  18  19
ENDBRANCH   4  18
TORSDOF 6
ENDMDL
MODEL 2
REMARK VINA RESULT:    -7.671      4.488      9.348
REMARK INTER + INTRA:         -11.166
REMARK INTER:                 -10.459
REMARK INTRA:                  -0.707
REMARK UNBOUND:                -0.804
REMARK  Name = 
REMARK  6 active torsions:
REMARK  status: ('A' for Active; 'I' for Inactive)
REMARK    1  A    between atoms: C_2  and  C_25
REMARK    2  A    between atoms: N_3  and  C_4
REMARK    3  A    between atoms: C_4  and  C_5
REMARK    4  A    between atoms: C_8  and  C_9
REMARK    5  A    between atoms: C_9  and  N_10
REMARK    6  A    between atoms: C_11  and  C_13
REMARK                            x       y       z     vdW  Elec       q    Type
REMARK                         _______ _______ _______ _____ _____    ______ ____
ROOT
ATOM      1  C   UNL     1      51.328   3.015  17.746  0.00  0.00    +0.000 A 
ATOM      2  C   UNL     1      50.630   1.991  17.102  0.00  0.00    +0.000 A 
ATOM      3  C   UNL     1      49.273   2.137  16.832  0.00  0.00    +0.000 A 
ATOM      4  C   UNL     1      48.633   3.313  17.215  0.00  0.00    +0.000 A 
ATOM      5  N   UNL     1      49.296   4.339  17.807  0.00  0.00    +0.000 NA
ATOM      6  C   UNL     1      50.615   4.171  18.052  0.00  0.00    +0.000 A 
ENDROOT
BRANCH   1   7
ATOM      7  C   UNL     1      52.767   2.868  18.120  0.00  0.00    +0.000 C 
BRANCH   7  10
ATOM      8  O   UNL     1      54.491   1.107  16.836  0.00  0.00    +0.000 OA
ATOM      9  C   UNL     1      53.972   0.753  17.893  0.00  0.00    +0.000 C 
ATOM     10  N   UNL     1      53.102   1.552  18.597  0.00  0.00    +0.000 N 
ATOM     11  H   UNL     1      52.782   1.211  19.500  0.00  0.00    +0.000 HD
BRANCH   9  12
ATOM     12  C   UNL     1      54.234  -0.536  18.499  0.00  0.00    +0.000 A 
ATOM     13  N   UNL     1      54.556  -0.736  19.768  0.00  0.00    +0.000 NA
ATOM     14  C   UNL     1      54.683  -2.101  19.897  0.00  0.00    +0.000 A 
ATOM     15  C   UNL     1      54.457  -2.732  18.696  0.00  0.00    +0.000 A 
ATOM     16  N   UNL     1      54.172  -1.726  17.817  0.00  0.00    +0.000 N 
ATOM     17  H   UNL     1      53.948  -1.810  16.835  0.00  0.00    +0.000 HD
ENDBRANCH   9  12
ENDBRANCH   7  10
ENDBRANCH   1   7
BRANCH   4  18
ATOM     18  C   UNL     1      47.154   3.490  16.968  0.00  0.00    +0.000 C 
BRANCH  18  19
ATOM     19  N   UNL     1      46.886   4.450  15.922  0.00  0.00    +0.000 N 
ATOM     20  C   UNL     1      46.975   4.139  14.593  0.00  0.00    +0.000 C 
ATOM     21  O   UNL     1      47.292   3.015  14.209  0.00  0.00    +0.000 OA
ATOM     22  H   UNL     1      46.851   5.422  16.217  0.00  0.00    +0.000 HD
BRANCH  20  23
ATOM     23  C   UNL     1      46.601   5.195  13.643  0.00  0.00    +0.000 A 
ATOM     24  C   UNL     1      47.514   6.197  13.340  0.00  0.00    +0.000 A 
ATOM     25  S   UNL     1      46.947   7.317  12.187  0.00  0.00    +0.000 S 
ATOM     26  C   UNL     1      45.442   6.531  12.085  0.00  0.00    +0.000 A 
ATOM     27  N   UNL     1      44.460   7.007  11.271  0.00  0.00    +0.000 NA
ATOM     28  C   UNL     1      43.358   6.337  11.317  0.00  0.00    +0.000 A 
ATOM     29  N   UNL     1      43.152   5.226  12.095  0.00  0.00    +0.000 N 
ATOM     30  C   UNL     1      44.132   4.678  12.886  0.00  0.00    +0.000 A 
ATOM     31  O   UNL     1      43.943   3.632  13.499  0.00  0.00    +0.000 OA
ATOM     32  C   UNL     1      45.381   5.416  12.900  0.00  0.00    +0.000 A 
ATOM     33  H   UNL     1      42.272   4.732  12.070  0.00  0.00    +0.000 HD
ENDBRANCH  20  23
ENDBRANCH  18  19
ENDBRANCH   4  18
TORSDOF 6
ENDMDL
MODEL 3
REMARK VINA RESULT:    -7.135      1.193      1.453
REMARK INTER + INTRA:         -10.441
REMARK INTER:                  -9.421
REMARK INTRA:                  -1.020
REMARK UNBOUND:                -0.804
REMARK  Name = 
REMARK  6 active torsions:
REMARK  status: ('A' for Active; 'I' for Inactive)
REMARK    1  A    between atoms: C_2  and  C_25
REMARK    2  A    between atoms: N_3  and  C_4
REMARK    3  A    between atoms: C_4  and  C_5
REMARK    4  A    between atoms: C_8  and  C_9
REMARK    5  A    between atoms: C_9  and  N_10
REMARK    6  A    between atoms: C_11  and  C_13
REMARK                            x       y       z     vdW  Elec       q    Type
REMARK                         _______ _______ _______ _____ _____    ______ ____
ROOT
ATOM      1  C   UNL     1      45.337   6.543  11.470  0.00  0.00    +0.000 A 
ATOM      2  C   UNL     1      46.594   6.040  11.812  0.00  0.00    +0.000 A 
ATOM      3  C   UNL     1      47.403   6.737  12.705  0.00  0.00    +0.000 A 
ATOM      4  C   UNL     1      46.936   7.934  13.242  0.00  0.00    +0.000 A 
ATOM      5  N   UNL     1      45.703   8.425  12.956  0.00  0.00    +0.000 NA
ATOM      6  C   UNL     1      44.938   7.723  12.090  0.00  0.00    +0.000 A 
ENDROOT
BRANCH   1   7
ATOM      7  C   UNL     1      44.470   5.864  10.459  0.00  0.00    +0.000 C 
BRANCH   7  10
ATOM      8  O   UNL     1      44.115   3.182   9.825  0.00  0.00    +0.000 OA
ATOM      9  C   UNL     1      44.962   3.823   9.207  0.00  0.00    +0.000 C 
ATOM     10  N   UNL     1      45.214   5.153   9.454  0.00  0.00    +0.000 N 
ATOM     11  H   UNL     1      45.876   5.623   8.842  0.00  0.00    +0.000 HD
BRANCH   9  12
ATOM     12  C   UNL     1      45.769   3.240   8.156  0.00  0.00    +0.000 A 
ATOM     13  N   UNL     1      46.190   3.872   7.071  0.00  0.00    +0.000 NA
ATOM     14  C   UNL     1      46.936   2.944   6.379  0.00  0.00    +0.000 A 
ATOM     15  C   UNL     1      46.952   1.737   7.036  0.00  0.00    +0.000 A 
ATOM     16  N   UNL     1      46.209   1.939   8.164  0.00  0.00    +0.000 N 
ATOM     17  H   UNL     1      46.002   1.271   8.895  0.00  0.00    +0.000 HD
ENDBRANCH   9  12
ENDBRANCH   7  10
ENDBRANCH   1   7
BRANCH   4  18
ATOM     18  C   UNL     1      47.801   8.732  14.187  0.00  0.00    +0.000 C 
BRANCH  18  19
ATOM     19  N   UNL     1      48.101   8.005  15.399  0.00  0.00    +0.000 N 
ATOM     20  C   UNL     1      49.376   7.662  15.758  0.00  0.00    +0.000 C 
ATOM     21  O   UNL     1      50.347   7.954  15.064  0.00  0.00    +0.000 OA
ATOM     22  H   UNL     1      47.307   7.564  15.854  0.00  0.00    +0.000 HD
BRANCH  20  23
ATOM     23  C   UNL     1      49.536   6.990  17.054  0.00  0.00    +0.000 A 
ATOM     24  C   UNL     1      50.222   7.631  18.077  0.00  0.00    +0.000 A 
ATOM     25  S   UNL     1      50.279   6.741  19.530  0.00  0.00    +0.000 S 
ATOM     26  C   UNL     1      49.426   5.445  18.831  0.00  0.00    +0.000 A 
ATOM     27  N   UNL     1      49.152   4.322  19.550  0.00  0.00    +0.000 NA
ATOM     28  C   UNL     1      48.532   3.404  18.888  0.00  0.00    +0.000 A 
ATOM     29  N   UNL     1      48.150   3.511  17.576  0.00  0.00    +0.000 N 
ATOM     30  C   UNL     1      48.353   4.647  16.830  0.00  0.00    +0.000 A 
ATOM     31  O   UNL     1      47.919   4.744  15.687  0.00  0.00    +0.000 OA
ATOM     32  C   UNL     1      49.082   5.697  17.516  0.00  0.00    +0.000 A 
ATOM     33  H   UNL     1      47.647   2.764  17.119  0.00  0.00    +0.000 HD
ENDBRANCH  20  23
ENDBRANCH  18  19
ENDBRANCH   4  18
TORSDOF 6
ENDMDL
MODEL 4
REMARK VINA RESULT:    -7.046      3.704      8.349
REMARK INTER + INTRA:         -10.321
REMARK INTER:                  -9.348
REMARK INTRA:                  -0.973
REMARK UNBOUND:                -0.804
REMARK  Name = 
REMARK  6 active torsions:
REMARK  status: ('A' for Active; 'I' for Inactive)
REMARK    1  A    between atoms: C_2  and  C_25
REMARK    2  A    between atoms: N_3  and  C_4
REMARK    3  A    between atoms: C_4  and  C_5
REMARK    4  A    between atoms: C_8  and  C_9
REMARK    5  A    between atoms: C_9  and  N_10
REMARK    6  A    between atoms: C_11  and  C_13
REMARK                            x       y       z     vdW  Elec       q    Type
REMARK                         _______ _______ _______ _____ _____    ______ ____
ROOT
ATOM      1  C   UNL     1      49.752   4.669  17.563  0.00  0.00    +0.000 A 
ATOM      2  C   UNL     1      48.493   4.433  17.008  0.00  0.00    +0.000 A 
ATOM      3  C   UNL     1      48.024   5.243  15.977  0.00  0.00    +0.000 A 
ATOM      4  C   UNL     1      48.830   6.282  15.519  0.00  0.00    +0.000 A 
ATOM      5  N   UNL     1      50.073   6.509  16.015  0.00  0.00    +0.000 NA
ATOM      6  C   UNL     1      50.503   5.703  17.011  0.00  0.00    +0.000 A 
ENDROOT
BRANCH   1   7
ATOM      7  C   UNL     1      50.261   3.870  18.720  0.00  0.00    +0.000 C 
BRANCH   7  10
ATOM      8  O   UNL     1      50.531   1.585  17.163  0.00  0.00    +0.000 OA
ATOM      9  C   UNL     1      51.541   2.078  17.660  0.00  0.00    +0.000 C 
ATOM     10  N   UNL     1      51.506   3.203  18.450  0.00  0.00    +0.000 N 
ATOM     11  H   UNL     1      52.397   3.587  18.754  0.00  0.00    +0.000 HD
BRANCH   9  12
ATOM     12  C   UNL     1      52.863   1.524  17.456  0.00  0.00    +0.000 A 
ATOM     13  N   UNL     1      53.986   2.221  17.389  0.00  0.00    +0.000 NA
ATOM     14  C   UNL     1      54.983   1.287  17.215  0.00  0.00    +0.000 A 
ATOM     15  C   UNL     1      54.461   0.017  17.156  0.00  0.00    +0.000 A 
ATOM     16  N   UNL     1      53.114   0.181  17.311  0.00  0.00    +0.000 N 
ATOM     17  H   UNL     1      52.401  -0.537  17.325  0.00  0.00    +0.000 HD
ENDBRANCH   9  12
ENDBRANCH   7  10
ENDBRANCH   1   7
BRANCH   4  18
ATOM     18  C   UNL     1      48.339   7.200  14.426  0.00  0.00    +0.000 C 
BRANCH  18  19
ATOM     19  N   UNL     1      47.078   6.763  13.871  0.00  0.00    +0.000 N 
ATOM     20  C   UNL     1      46.789   6.848  12.537  0.00  0.00    +0.000 C 
ATOM     21  O   UNL     1      47.592   7.305  11.726  0.00  0.00    +0.000 OA
ATOM     22  H   UNL     1      46.334   6.603  14.545  0.00  0.00    +0.000 HD
BRANCH  20  23
ATOM     23  C   UNL     1      45.498   6.296  12.107  0.00  0.00    +0.000 A 
ATOM     24  C   UNL     1      44.548   7.138  11.541  0.00  0.00    +0.000 A 
ATOM     25  S   UNL     1      43.125   6.338  11.052  0.00  0.00    +0.000 S 
ATOM     26  C   UNL     1      43.707   4.843  11.619  0.00  0.00    +0.000 A 
ATOM     27  N   UNL     1      42.947   3.718  11.524  0.00  0.00    +0.000 NA
ATOM     28  C   UNL     1      43.494   2.662  12.025  0.00  0.00    +0.000 A 
ATOM     29  N   UNL     1      44.737   2.626  12.603  0.00  0.00    +0.000 N 
ATOM     30  C   UNL     1      45.560   3.723  12.669  0.00  0.00    +0.000 A 
ATOM     31  O   UNL     1      46.701   3.637  13.110  0.00  0.00    +0.000 OA
ATOM     32  C   UNL     1      44.978   4.948  12.153  0.00  0.00    +0.000 A 
ATOM     33  H   UNL     1      45.120   1.762  12.958  0.00  0.00    +0.000 HD
ENDBRANCH  20  23
ENDBRANCH  18  19
ENDBRANCH   4  18
TORSDOF 6
ENDMDL
MODEL 5
REMARK VINA RESULT:    -6.830      3.845      5.892
REMARK INTER + INTRA:         -10.030
REMARK INTER:                  -9.308
REMARK INTRA:                  -0.722
REMARK UNBOUND:                -0.804
REMARK  Name = 
REMARK  6 active torsions:
REMARK  status: ('A' for Active; 'I' for Inactive)
REMARK    1  A    between atoms: C_2  and  C_25
REMARK    2  A    between atoms: N_3  and  C_4
REMARK    3  A    between atoms: C_4  and  C_5
REMARK    4  A    between atoms: C_8  and  C_9
REMARK    5  A    between atoms: C_9  and  N_10
REMARK    6  A    between atoms: C_11  and  C_13
REMARK                            x       y       z     vdW  Elec       q    Type
REMARK                         _______ _______ _______ _____ _____    ______ ____
ROOT
ATOM      1  C   UNL     1      45.521   7.004  11.831  0.00  0.00    +0.000 A 
ATOM      2  C   UNL     1      46.854   6.720  12.134  0.00  0.00    +0.000 A 
ATOM      3  C   UNL     1      47.163   5.668  12.992  0.00  0.00    +0.000 A 
ATOM      4  C   UNL     1      46.125   4.915  13.535  0.00  0.00    +0.000 A 
ATOM      5  N   UNL     1      44.823   5.146  13.225  0.00  0.00    +0.000 NA
ATOM      6  C   UNL     1      44.554   6.171  12.386  0.00  0.00    +0.000 A 
ENDROOT
BRANCH   1   7
ATOM      7  C   UNL     1      45.144   8.170  10.975  0.00  0.00    +0.000 C 
BRANCH   7  10
ATOM      8  O   UNL     1      44.301  10.730  10.298  0.00  0.00    +0.000 OA
ATOM      9  C   UNL     1      43.525  10.000  10.911  0.00  0.00    +0.000 C 
ATOM     10  N   UNL     1      43.854   8.721  11.295  0.00  0.00    +0.000 N 
ATOM     11  H   UNL     1      43.124   8.161  11.728  0.00  0.00    +0.000 HD
BRANCH   9  12
ATOM     12  C   UNL     1      42.188  10.416  11.281  0.00  0.00    +0.000 A 
ATOM     13  N   UNL     1      41.074  10.063  10.658  0.00  0.00    +0.000 NA
ATOM     14  C   UNL     1      40.058  10.666  11.365  0.00  0.00    +0.000 A 
ATOM     15  C   UNL     1      40.558  11.405  12.411  0.00  0.00    +0.000 A 
ATOM     16  N   UNL     1      41.912  11.237  12.347  0.00  0.00    +0.000 N 
ATOM     17  H   UNL     1      42.613  11.630  12.960  0.00  0.00    +0.000 HD
ENDBRANCH   9  12
ENDBRANCH   7  10
ENDBRANCH   1   7
BRANCH   4  18
ATOM     18  C   UNL     1      46.423   3.789  14.494  0.00  0.00    +0.000 C 
BRANCH  18  19
ATOM     19  N   UNL     1      47.493   4.119  15.409  0.00  0.00    +0.000 N 
ATOM     20  C   UNL     1      47.436   3.833  16.745  0.00  0.00    +0.000 C 
ATOM     21  O   UNL     1      46.464   3.275  17.249  0.00  0.00    +0.000 OA
ATOM     22  H   UNL     1      48.185   4.774  15.056  0.00  0.00    +0.000 HD
BRANCH  20  23
ATOM     23  C   UNL     1      48.628   4.159  17.539  0.00  0.00    +0.000 A 
ATOM     24  C   UNL     1      48.611   5.270  18.373  0.00  0.00    +0.000 A 
ATOM     25  S   UNL     1      50.050   5.484  19.261  0.00  0.00    +0.000 S 
ATOM     26  C   UNL     1      50.767   4.126  18.529  0.00  0.00    +0.000 A 
ATOM     27  N   UNL     1      52.041   3.758  18.836  0.00  0.00    +0.000 NA
ATOM     28  C   UNL     1      52.473   2.733  18.182  0.00  0.00    +0.000 A 
ATOM     29  N   UNL     1      51.742   2.034  17.256  0.00  0.00    +0.000 N 
ATOM     30  C   UNL     1      50.436   2.334  16.957  0.00  0.00    +0.000 A 
ATOM     31  O   UNL     1      49.782   1.634  16.190  0.00  0.00    +0.000 OA
ATOM     32  C   UNL     1      49.912   3.503  17.637  0.00  0.00    +0.000 A 
ATOM     33  H   UNL     1      52.130   1.225  16.792  0.00  0.00    +0.000 HD
ENDBRANCH  20  23
ENDBRANCH  18  19
ENDBRANCH   4  18
TORSDOF 6
ENDMDL
MODEL 6
REMARK VINA RESULT:    -6.713      3.372      4.631
REMARK INTER + INTRA:          -9.871
REMARK INTER:                  -9.033
REMARK INTRA:                  -0.838
REMARK UNBOUND:                -0.804
REMARK  Name = 
REMARK  6 active torsions:
REMARK  status: ('A' for Active; 'I' for Inactive)
REMARK    1  A    between atoms: C_2  and  C_25
REMARK    2  A    between atoms: N_3  and  C_4
REMARK    3  A    between atoms: C_4  and  C_5
REMARK    4  A    between atoms: C_8  and  C_9
REMARK    5  A    between atoms: C_9  and  N_10
REMARK    6  A    between atoms: C_11  and  C_13
REMARK                            x       y       z     vdW  Elec       q    Type
REMARK                         _______ _______ _______ _____ _____    ______ ____
ROOT
ATOM      1  C   UNL     1      47.504   6.445  13.600  0.00  0.00    +0.000 A 
ATOM      2  C   UNL     1      48.342   7.230  14.394  0.00  0.00    +0.000 A 
ATOM      3  C   UNL     1      48.767   6.760  15.634  0.00  0.00    +0.000 A 
ATOM      4  C   UNL     1      48.339   5.504  16.059  0.00  0.00    +0.000 A 
ATOM      5  N   UNL     1      47.557   4.705  15.291  0.00  0.00    +0.000 NA
ATOM      6  C   UNL     1      47.164   5.187  14.089  0.00  0.00    +0.000 A 
ENDROOT
BRANCH   1   7
ATOM      7  C   UNL     1      46.966   6.944  12.297  0.00  0.00    +0.000 C 
BRANCH   7  10
ATOM      8  O   UNL     1      44.341   6.369  11.594  0.00  0.00    +0.000 OA
ATOM      9  C   UNL     1      45.240   5.686  11.109  0.00  0.00    +0.000 C 
ATOM     10  N   UNL     1      46.568   5.890  11.403  0.00  0.00    +0.000 N 
ATOM     11  H   UNL     1      47.249   5.330  10.896  0.00  0.00    +0.000 HD
BRANCH   9  12
ATOM     12  C   UNL     1      44.986   4.606  10.179  0.00  0.00    +0.000 A 
ATOM     13  N   UNL     1      44.720   3.352  10.511  0.00  0.00    +0.000 NA
ATOM     14  C   UNL     1      44.525   2.695   9.317  0.00  0.00    +0.000 A 
ATOM     15  C   UNL     1      44.693   3.548   8.253  0.00  0.00    +0.000 A 
ATOM     16  N   UNL     1      44.984   4.759   8.814  0.00  0.00    +0.000 N 
ATOM     17  H   UNL     1      45.168   5.632   8.337  0.00  0.00    +0.000 HD
ENDBRANCH   9  12
ENDBRANCH   7  10
ENDBRANCH   1   7
BRANCH   4  18
ATOM     18  C   UNL     1      48.754   4.979  17.413  0.00  0.00    +0.000 C 
BRANCH  18  19
ATOM     19  N   UNL     1      50.107   4.470  17.411  0.00  0.00    +0.000 N 
ATOM     20  C   UNL     1      50.862   4.377  18.547  0.00  0.00    +0.000 C 
ATOM     21  O   UNL     1      50.431   4.724  19.644  0.00  0.00    +0.000 OA
ATOM     22  H   UNL     1      50.548   4.400  16.498  0.00  0.00    +0.000 HD
BRANCH  20  23
ATOM     23  C   UNL     1      52.193   3.771  18.405  0.00  0.00    +0.000 A 
ATOM     24  C   UNL     1      53.318   4.499  18.772  0.00  0.00    +0.000 A 
ATOM     25  S   UNL     1      54.779   3.640  18.592  0.00  0.00    +0.000 S 
ATOM     26  C   UNL     1      53.966   2.279  17.975  0.00  0.00    +0.000 A 
ATOM     27  N   UNL     1      54.654   1.170  17.590  0.00  0.00    +0.000 NA
ATOM     28  C   UNL     1      53.918   0.226  17.107  0.00  0.00    +0.000 A 
ATOM     29  N   UNL     1      52.554   0.287  16.983  0.00  0.00    +0.000 N 
ATOM     30  C   UNL     1      51.814   1.362  17.410  0.00  0.00    +0.000 A 
ATOM     31  O   UNL     1      50.588   1.347  17.368  0.00  0.00    +0.000 OA
ATOM     32  C   UNL     1      52.597   2.468  17.928  0.00  0.00    +0.000 A 
ATOM     33  H   UNL     1      52.031  -0.495  16.616  0.00  0.00    +0.000 HD
ENDBRANCH  20  23
ENDBRANCH  18  19
ENDBRANCH   4  18
TORSDOF 6
ENDMDL
MODEL 7
REMARK VINA RESULT:    -6.497      4.162      5.127
REMARK INTER + INTRA:          -9.581
REMARK INTER:                  -9.018
REMARK INTRA:                  -0.563
REMARK UNBOUND:                -0.804
REMARK  Name = 
REMARK  6 active torsions:
REMARK  status: ('A' for Active; 'I' for Inactive)
REMARK    1  A    between atoms: C_2  and  C_25
REMARK    2  A    between atoms: N_3  and  C_4
REMARK    3  A    between atoms: C_4  and  C_5
REMARK    4  A    between atoms: C_8  and  C_9
REMARK    5  A    between atoms: C_9  and  N_10
REMARK    6  A    between atoms: C_11  and  C_13
REMARK                            x       y       z     vdW  Elec       q    Type
REMARK                         _______ _______ _______ _____ _____    ______ ____
ROOT
ATOM      1  C   UNL     1      44.491   4.746  11.418  0.00  0.00    +0.000 A 
ATOM      2  C   UNL     1      43.875   5.409  12.482  0.00  0.00    +0.000 A 
ATOM      3  C   UNL     1      44.421   6.593  12.972  0.00  0.00    +0.000 A 
ATOM      4  C   UNL     1      45.581   7.092  12.386  0.00  0.00    +0.000 A 
ATOM      5  N   UNL     1      46.177   6.488  11.327  0.00  0.00    +0.000 NA
ATOM      6  C   UNL     1      45.622   5.344  10.869  0.00  0.00    +0.000 A 
ENDROOT
BRANCH   1   7
ATOM      7  C   UNL     1      43.980   3.436  10.911  0.00  0.00    +0.000 C 
BRANCH   7  10
ATOM      8  O   UNL     1      44.278   3.711   8.163  0.00  0.00    +0.000 OA
ATOM      9  C   UNL     1      45.015   2.927   8.756  0.00  0.00    +0.000 C 
ATOM     10  N   UNL     1      44.938   2.719  10.114  0.00  0.00    +0.000 N 
ATOM     11  H   UNL     1      45.639   2.112  10.532  0.00  0.00    +0.000 HD
BRANCH   9  12
ATOM     12  C   UNL     1      46.039   2.155   8.083  0.00  0.00    +0.000 A 
ATOM     13  N   UNL     1      46.193   0.843   8.171  0.00  0.00    +0.000 NA
ATOM     14  C   UNL     1      47.261   0.549   7.353  0.00  0.00    +0.000 A 
ATOM     15  C   UNL     1      47.771   1.690   6.781  0.00  0.00    +0.000 A 
ATOM     16  N   UNL     1      46.985   2.703   7.252  0.00  0.00    +0.000 N 
ATOM     17  H   UNL     1      47.059   3.690   7.043  0.00  0.00    +0.000 HD
ENDBRANCH   9  12
ENDBRANCH   7  10
ENDBRANCH   1   7
BRANCH   4  18
ATOM     18  C   UNL     1      46.217   8.355  12.916  0.00  0.00    +0.000 C 
BRANCH  18  19
ATOM     19  N   UNL     1      47.418   8.707  12.194  0.00  0.00    +0.000 N 
ATOM     20  C   UNL     1      47.846   9.999  12.057  0.00  0.00    +0.000 C 
ATOM     21  O   UNL     1      47.227  10.943  12.544  0.00  0.00    +0.000 OA
ATOM     22  H   UNL     1      47.804   7.976  11.602  0.00  0.00    +0.000 HD
BRANCH  20  23
ATOM     23  C   UNL     1      49.124  10.199  11.361  0.00  0.00    +0.000 A 
ATOM     24  C   UNL     1      49.264  11.265  10.482  0.00  0.00    +0.000 A 
ATOM     25  S   UNL     1      50.818  11.387   9.794  0.00  0.00    +0.000 S 
ATOM     26  C   UNL     1      51.348   9.992  10.610  0.00  0.00    +0.000 A 
ATOM     27  N   UNL     1      52.614   9.521  10.438  0.00  0.00    +0.000 NA
ATOM     28  C   UNL     1      52.872   8.436  11.088  0.00  0.00    +0.000 A 
ATOM     29  N   UNL     1      51.983   7.786  11.904  0.00  0.00    +0.000 N 
ATOM     30  C   UNL     1      50.717   8.256  12.152  0.00  0.00    +0.000 A 
ATOM     31  O   UNL     1      49.978   7.699  12.958  0.00  0.00    +0.000 OA
ATOM     32  C   UNL     1      50.361   9.454  11.416  0.00  0.00    +0.000 A 
ATOM     33  H   UNL     1      52.253   6.951  12.404  0.00  0.00    +0.000 HD
ENDBRANCH  20  23
ENDBRANCH  18  19
ENDBRANCH   4  18
TORSDOF 6
ENDMDL
MODEL 8
REMARK VINA RESULT:    -6.487      4.634      7.632
REMARK INTER + INTRA:          -9.566
REMARK INTER:                  -8.693
REMARK INTRA:                  -0.873
REMARK UNBOUND:                -0.804
REMARK  Name = 
REMARK  6 active torsions:
REMARK  status: ('A' for Active; 'I' for Inactive)
REMARK    1  A    between atoms: C_2  and  C_25
REMARK    2  A    between atoms: N_3  and  C_4
REMARK    3  A    between atoms: C_4  and  C_5
REMARK    4  A    between atoms: C_8  and  C_9
REMARK    5  A    between atoms: C_9  and  N_10
REMARK    6  A    between atoms: C_11  and  C_13
REMARK                            x       y       z     vdW  Elec       q    Type
REMARK                         _______ _______ _______ _____ _____    ______ ____
ROOT
ATOM      1  C   UNL     1      50.351   8.711  11.501  0.00  0.00    +0.000 A 
ATOM      2  C   UNL     1      49.959   7.411  11.827  0.00  0.00    +0.000 A 
ATOM      3  C   UNL     1      48.688   7.178  12.345  0.00  0.00    +0.000 A 
ATOM      4  C   UNL     1      47.827   8.258  12.529  0.00  0.00    +0.000 A 
ATOM      5  N   UNL     1      48.170   9.525  12.183  0.00  0.00    +0.000 NA
ATOM      6  C   UNL     1      49.409   9.720  11.678  0.00  0.00    +0.000 A 
ENDROOT
BRANCH   1   7
ATOM      7  C   UNL     1      51.731   9.013  11.013  0.00  0.00    +0.000 C 
BRANCH   7  10
ATOM      8  O   UNL     1      53.919   7.301  11.030  0.00  0.00    +0.000 OA
ATOM      9  C   UNL     1      53.236   7.368  10.011  0.00  0.00    +0.000 C 
ATOM     10  N   UNL     1      52.138   8.191   9.905  0.00  0.00    +0.000 N 
ATOM     11  H   UNL     1      51.586   8.124   9.054  0.00  0.00    +0.000 HD
BRANCH   9  12
ATOM     12  C   UNL     1      53.517   6.582   8.828  0.00  0.00    +0.000 A 
ATOM     13  N   UNL     1      53.602   7.054   7.594  0.00  0.00    +0.000 NA
ATOM     14  C   UNL     1      53.908   5.964   6.810  0.00  0.00    +0.000 A 
ATOM     15  C   UNL     1      53.990   4.820   7.568  0.00  0.00    +0.000 A 
ATOM     16  N   UNL     1      53.742   5.226   8.849  0.00  0.00    +0.000 N 
ATOM     17  H   UNL     1      53.721   4.657   9.684  0.00  0.00    +0.000 HD
ENDBRANCH   9  12
ENDBRANCH   7  10
ENDBRANCH   1   7
BRANCH   4  18
ATOM     18  C   UNL     1      46.455   8.044  13.120  0.00  0.00    +0.000 C 
BRANCH  18  19
ATOM     19  N   UNL     1      45.906   6.752  12.774  0.00  0.00    +0.000 N 
ATOM     20  C   UNL     1      45.023   6.576  11.745  0.00  0.00    +0.000 C 
ATOM     21  O   UNL     1      44.641   7.515  11.049  0.00  0.00    +0.000 OA
ATOM     22  H   UNL     1      46.029   6.023  13.471  0.00  0.00    +0.000 HD
BRANCH  20  23
ATOM     23  C   UNL     1      44.608   5.196  11.463  0.00  0.00    +0.000 A 
ATOM     24  C   UNL     1      43.844   4.507  12.397  0.00  0.00    +0.000 A 
ATOM     25  S   UNL     1      43.404   2.937  11.901  0.00  0.00    +0.000 S 
ATOM     26  C   UNL     1      44.256   3.103  10.438  0.00  0.00    +0.000 A 
ATOM     27  N   UNL     1      44.304   2.082   9.539  0.00  0.00    +0.000 NA
ATOM     28  C   UNL     1      45.014   2.328   8.490  0.00  0.00    +0.000 A 
ATOM     29  N   UNL     1      45.672   3.508   8.252  0.00  0.00    +0.000 N 
ATOM     30  C   UNL     1      45.604   4.584   9.103  0.00  0.00    +0.000 A 
ATOM     31  O   UNL     1      46.130   5.654   8.817  0.00  0.00    +0.000 OA
ATOM     32  C   UNL     1      44.848   4.347  10.319  0.00  0.00    +0.000 A 
ATOM     33  H   UNL     1      46.195   3.647   7.400  0.00  0.00    +0.000 HD
ENDBRANCH  20  23
ENDBRANCH  18  19
ENDBRANCH   4  18
TORSDOF 6
ENDMDL
MODEL 9
REMARK VINA RESULT:    -6.293      1.936      2.669
REMARK INTER + INTRA:          -9.304
REMARK INTER:                  -8.285
REMARK INTRA:                  -1.019
REMARK UNBOUND:                -0.804
REMARK  Name = 
REMARK  6 active torsions:
REMARK  status: ('A' for Active; 'I' for Inactive)
REMARK    1  A    between atoms: C_2  and  C_25
REMARK    2  A    between atoms: N_3  and  C_4
REMARK    3  A    between atoms: C_4  and  C_5
REMARK    4  A    between atoms: C_8  and  C_9
REMARK    5  A    between atoms: C_9  and  N_10
REMARK    6  A    between atoms: C_11  and  C_13
REMARK                            x       y       z     vdW  Elec       q    Type
REMARK                         _______ _______ _______ _____ _____    ______ ____
ROOT
ATOM      1  C   UNL     1      45.590   7.606  12.248  0.00  0.00    +0.000 A 
ATOM      2  C   UNL     1      45.830   8.964  12.467  0.00  0.00    +0.000 A 
ATOM      3  C   UNL     1      46.863   9.360  13.311  0.00  0.00    +0.000 A 
ATOM      4  C   UNL     1      47.642   8.382  13.926  0.00  0.00    +0.000 A 
ATOM      5  N   UNL     1      47.454   7.058  13.699  0.00  0.00    +0.000 NA
ATOM      6  C   UNL     1      46.446   6.703  12.871  0.00  0.00    +0.000 A 
ENDROOT
BRANCH   1   7
ATOM      7  C   UNL     1      44.444   7.139  11.408  0.00  0.00    +0.000 C 
BRANCH   7  10
ATOM      8  O   UNL     1      43.098   4.712  11.542  0.00  0.00    +0.000 OA
ATOM      9  C   UNL     1      44.025   4.824  10.744  0.00  0.00    +0.000 C 
ATOM     10  N   UNL     1      44.755   5.983  10.611  0.00  0.00    +0.000 N 
ATOM     11  H   UNL     1      45.452   6.012   9.871  0.00  0.00    +0.000 HD
BRANCH   9  12
ATOM     12  C   UNL     1      44.434   3.749   9.864  0.00  0.00    +0.000 A 
ATOM     13  N   UNL     1      44.075   2.480   9.985  0.00  0.00    +0.000 NA
ATOM     14  C   UNL     1      44.671   1.834   8.925  0.00  0.00    +0.000 A 
ATOM     15  C   UNL     1      45.412   2.710   8.169  0.00  0.00    +0.000 A 
ATOM     16  N   UNL     1      45.252   3.923   8.774  0.00  0.00    +0.000 N 
ATOM     17  H   UNL     1      45.648   4.811   8.495  0.00  0.00    +0.000 HD
ENDBRANCH   9  12
ENDBRANCH   7  10
ENDBRANCH   1   7
BRANCH   4  18
ATOM     18  C   UNL     1      48.749   8.777  14.873  0.00  0.00    +0.000 C 
BRANCH  18  19
ATOM     19  N   UNL     1      49.491   7.634  15.354  0.00  0.00    +0.000 N 
ATOM     20  C   UNL     1      50.078   7.601  16.588  0.00  0.00    +0.000 C 
ATOM     21  O   UNL     1      50.008   8.549  17.367  0.00  0.00    +0.000 OA
ATOM     22  H   UNL     1      49.749   6.950  14.647  0.00  0.00    +0.000 HD
BRANCH  20  23
ATOM     23  C   UNL     1      50.736   6.344  16.970  0.00  0.00    +0.000 A 
ATOM     24  C   UNL     1      52.091   6.347  17.276  0.00  0.00    +0.000 A 
ATOM     25  S   UNL     1      52.693   4.823  17.746  0.00  0.00    +0.000 S 
ATOM     26  C   UNL     1      51.174   4.093  17.514  0.00  0.00    +0.000 A 
ATOM     27  N   UNL     1      51.001   2.759  17.725  0.00  0.00    +0.000 NA
ATOM     28  C   UNL     1      49.809   2.330  17.477  0.00  0.00    +0.000 A 
ATOM     29  N   UNL     1      48.771   3.116  17.049  0.00  0.00    +0.000 N 
ATOM     30  C   UNL     1      48.884   4.474  16.879  0.00  0.00    +0.000 A 
ATOM     31  O   UNL     1      47.912   5.161  16.581  0.00  0.00    +0.000 OA
ATOM     32  C   UNL     1      50.215   5.003  17.107  0.00  0.00    +0.000 A 
ATOM     33  H   UNL     1      47.853   2.723  16.893  0.00  0.00    +0.000 HD
ENDBRANCH  20  23
ENDBRANCH  18  19
ENDBRANCH   4  18
TORSDOF 6
ENDMDL
