MODEL 1
REMARK VINA RESULT:    -7.575      0.000      0.000
REMARK INTER + INTRA:         -11.318
REMARK INTER:                 -10.233
REMARK INTRA:                  -1.086
REMARK UNBOUND:                -1.086
REMARK  Name = 
REMARK  7 active torsions:
REMARK  status: ('A' for Active; 'I' for Inactive)
REMARK    1  A    between atoms: C_1  and  N_2
REMARK    2  A    between atoms: N_2  and  C_3
REMARK    3  A    between atoms: C_3  and  C_4
REMARK    4  A    between atoms: C_7  and  C_8
REMARK    5  A    between atoms: N_10  and  C_11
REMARK    6  A    between atoms: C_11  and  C_12
REMARK    7  A    between atoms: C_19  and  C_21
REMARK                            x       y       z     vdW  Elec       q    Type
REMARK                         _______ _______ _______ _____ _____    ______ ____
ROOT
ATOM      1  C   UNL     1      47.218   5.861  13.434  0.00  0.00    +0.000 A 
ATOM      2  C   UNL     1      46.673   4.740  14.066  0.00  0.00    +0.000 A 
ATOM      3  C   UNL     1      47.137   4.360  15.322  0.00  0.00    +0.000 A 
ATOM      4  C   UNL     1      48.138   5.126  15.908  0.00  0.00    +0.000 A 
ATOM      5  N   UNL     1      48.685   6.229  15.327  0.00  0.00    +0.000 NA
ATOM      6  C   UNL     1      48.214   6.564  14.106  0.00  0.00    +0.000 A 
ENDROOT
BRANCH   4   7
ATOM      7  C   UNL     1      48.692   4.716  17.239  0.00  0.00    +0.000 C 
ATOM      8  O   UNL     1      47.957   4.320  18.140  0.00  0.00    +0.000 OA
ATOM      9  N   UNL     1      50.059   4.805  17.369  0.00  0.00    +0.000 N 
ATOM     10  H   UNL     1      50.570   5.322  16.656  0.00  0.00    +0.000 HD
BRANCH   9  11
ATOM     11  C   UNL     1      50.702   4.497  18.620  0.00  0.00    +0.000 C 
BRANCH  11  12
ATOM     12  C   UNL     1      51.669   3.383  18.427  0.00  0.00    +0.000 A 
ATOM     13  N   UNL     1      52.913   3.325  18.865  0.00  0.00    +0.000 NA
ATOM     14  C   UNL     1      53.388   2.099  18.481  0.00  0.00    +0.000 A 
ATOM     15  C   UNL     1      52.431   1.404  17.784  0.00  0.00    +0.000 A 
ATOM     16  N   UNL     1      51.341   2.228  17.756  0.00  0.00    +0.000 N 
ATOM     17  H   UNL     1      50.449   2.026  17.327  0.00  0.00    +0.000 HD
ENDBRANCH  11  12
ENDBRANCH   9  11
ENDBRANCH   4   7
BRANCH   1  18
ATOM     18  C   UNL     1      46.761   6.286  12.066  0.00  0.00    +0.000 C 
BRANCH  18  20
ATOM     19  C   UNL     1      45.527   8.498  12.092  0.00  0.00    +0.000 C 
ATOM     20  N   UNL     1      45.510   7.045  11.968  0.00  0.00    +0.000 N 
ATOM     21  C   UNL     1      44.313   6.491  11.469  0.00  0.00    +0.000 C 
ATOM     22  O   UNL     1      43.354   7.207  11.184  0.00  0.00    +0.000 OA
BRANCH  21  23
ATOM     23  C   UNL     1      44.195   5.033  11.323  0.00  0.00    +0.000 A 
ATOM     24  C   UNL     1      43.471   4.215  12.175  0.00  0.00    +0.000 A 
ATOM     25  S   UNL     1      43.458   2.575  11.705  0.00  0.00    +0.000 S 
ATOM     26  C   UNL     1      44.296   2.927  10.271  0.00  0.00    +0.000 A 
ATOM     27  N   UNL     1      44.526   1.960   9.342  0.00  0.00    +0.000 NA
ATOM     28  C   UNL     1      45.123   2.384   8.284  0.00  0.00    +0.000 A 
ATOM     29  N   UNL     1      45.541   3.673   8.075  0.00  0.00    +0.000 N 
ATOM     30  C   UNL     1      45.452   4.654   9.041  0.00  0.00    +0.000 A 
ATOM     31  O   UNL     1      46.049   5.715   8.920  0.00  0.00    +0.000 OA
ATOM     32  C   UNL     1      44.674   4.255  10.204  0.00  0.00    +0.000 A 
ATOM     33  H   UNL     1      46.070   3.917   7.251  0.00  0.00    +0.000 HD
ENDBRANCH  21  23
ENDBRANCH  18  20
ENDBRANCH   1  18
TORSDOF 6
ENDMDL
MODEL 2
REMARK VINA RESULT:    -7.367      1.733      1.900
REMARK INTER + INTRA:         -11.037
REMARK INTER:                  -9.844
REMARK INTRA:                  -1.193
REMARK UNBOUND:                -1.086
REMARK  Name = 
REMARK  7 active torsions:
REMARK  status: ('A' for Active; 'I' for Inactive)
REMARK    1  A    between atoms: C_1  and  N_2
REMARK    2  A    between atoms: N_2  and  C_3
REMARK    3  A    between atoms: C_3  and  C_4
REMARK    4  A    between atoms: C_7  and  C_8
REMARK    5  A    between atoms: N_10  and  C_11
REMARK    6  A    between atoms: C_11  and  C_12
REMARK    7  A    between atoms: C_19  and  C_21
REMARK                            x       y       z     vdW  Elec       q    Type
REMARK                         _______ _______ _______ _____ _____    ______ ____
ROOT
ATOM      1  C   UNL     1      47.351   5.769  13.639  0.00  0.00    +0.000 A 
ATOM      2  C   UNL     1      46.766   4.607  14.150  0.00  0.00    +0.000 A 
ATOM      3  C   UNL     1      47.103   4.168  15.427  0.00  0.00    +0.000 A 
ATOM      4  C   UNL     1      48.018   4.918  16.157  0.00  0.00    +0.000 A 
ATOM      5  N   UNL     1      48.599   6.059  15.696  0.00  0.00    +0.000 NA
ATOM      6  C   UNL     1      48.253   6.452  14.450  0.00  0.00    +0.000 A 
ENDROOT
BRANCH   4   7
ATOM      7  C   UNL     1      48.436   4.446  17.516  0.00  0.00    +0.000 C 
ATOM      8  O   UNL     1      48.931   3.334  17.680  0.00  0.00    +0.000 OA
ATOM      9  N   UNL     1      48.238   5.339  18.545  0.00  0.00    +0.000 N 
ATOM     10  H   UNL     1      47.650   6.150  18.361  0.00  0.00    +0.000 HD
BRANCH   9  11
ATOM     11  C   UNL     1      48.544   4.977  19.904  0.00  0.00    +0.000 C 
BRANCH  11  12
ATOM     12  C   UNL     1      49.946   5.364  20.224  0.00  0.00    +0.000 A 
ATOM     13  N   UNL     1      50.514   6.536  20.012  0.00  0.00    +0.000 NA
ATOM     14  C   UNL     1      51.788   6.428  20.504  0.00  0.00    +0.000 A 
ATOM     15  C   UNL     1      52.009   5.170  21.008  0.00  0.00    +0.000 A 
ATOM     16  N   UNL     1      50.831   4.501  20.826  0.00  0.00    +0.000 N 
ATOM     17  H   UNL     1      50.638   3.546  21.093  0.00  0.00    +0.000 HD
ENDBRANCH  11  12
ENDBRANCH   9  11
ENDBRANCH   4   7
BRANCH   1  18
ATOM     18  C   UNL     1      47.032   6.260  12.254  0.00  0.00    +0.000 C 
BRANCH  18  20
ATOM     19  C   UNL     1      46.002   8.573  12.186  0.00  0.00    +0.000 C 
ATOM     20  N   UNL     1      45.860   7.125  12.087  0.00  0.00    +0.000 N 
ATOM     21  C   UNL     1      44.641   6.669  11.545  0.00  0.00    +0.000 C 
ATOM     22  O   UNL     1      43.763   7.461  11.205  0.00  0.00    +0.000 OA
BRANCH  21  23
ATOM     23  C   UNL     1      44.398   5.224  11.419  0.00  0.00    +0.000 A 
ATOM     24  C   UNL     1      43.641   4.475  12.305  0.00  0.00    +0.000 A 
ATOM     25  S   UNL     1      43.477   2.839  11.854  0.00  0.00    +0.000 S 
ATOM     26  C   UNL     1      44.289   3.108  10.387  0.00  0.00    +0.000 A 
ATOM     27  N   UNL     1      44.406   2.119   9.462  0.00  0.00    +0.000 NA
ATOM     28  C   UNL     1      44.997   2.483   8.378  0.00  0.00    +0.000 A 
ATOM     29  N   UNL     1      45.512   3.732   8.141  0.00  0.00    +0.000 N 
ATOM     30  C   UNL     1      45.537   4.725   9.099  0.00  0.00    +0.000 A 
ATOM     31  O   UNL     1      46.214   5.733   8.945  0.00  0.00    +0.000 OA
ATOM     32  C   UNL     1      44.772   4.401  10.292  0.00  0.00    +0.000 A 
ATOM     33  H   UNL     1      46.029   3.926   7.297  0.00  0.00    +0.000 HD
ENDBRANCH  21  23
ENDBRANCH  18  20
ENDBRANCH   1  18
TORSDOF 6
ENDMDL
MODEL 3
REMARK VINA RESULT:    -7.216      2.851      9.077
REMARK INTER + INTRA:         -10.833
REMARK INTER:                  -9.737
REMARK INTRA:                  -1.097
REMARK UNBOUND:                -1.086
REMARK  Name = 
REMARK  7 active torsions:
REMARK  status: ('A' for Active; 'I' for Inactive)
REMARK    1  A    between atoms: C_1  and  N_2
REMARK    2  A    between atoms: N_2  and  C_3
REMARK    3  A    between atoms: C_3  and  C_4
REMARK    4  A    between atoms: C_7  and  C_8
REMARK    5  A    between atoms: N_10  and  C_11
REMARK    6  A    between atoms: C_11  and  C_12
REMARK    7  A    between atoms: C_19  and  C_21
REMARK                            x       y       z     vdW  Elec       q    Type
REMARK                         _______ _______ _______ _____ _____    ______ ____
ROOT
ATOM      1  C   UNL     1      48.255   5.812  15.282  0.00  0.00    +0.000 A 
ATOM      2  C   UNL     1      47.967   6.516  14.109  0.00  0.00    +0.000 A 
ATOM      3  C   UNL     1      46.978   6.049  13.249  0.00  0.00    +0.000 A 
ATOM      4  C   UNL     1      46.302   4.887  13.599  0.00  0.00    +0.000 A 
ATOM      5  N   UNL     1      46.547   4.182  14.737  0.00  0.00    +0.000 NA
ATOM      6  C   UNL     1      47.519   4.661  15.545  0.00  0.00    +0.000 A 
ENDROOT
BRANCH   4   7
ATOM      7  C   UNL     1      45.263   4.333  12.670  0.00  0.00    +0.000 C 
ATOM      8  O   UNL     1      44.750   3.236  12.870  0.00  0.00    +0.000 OA
ATOM      9  N   UNL     1      44.927   5.137  11.605  0.00  0.00    +0.000 N 
ATOM     10  H   UNL     1      45.530   5.932  11.402  0.00  0.00    +0.000 HD
BRANCH   9  11
ATOM     11  C   UNL     1      43.986   4.688  10.611  0.00  0.00    +0.000 C 
BRANCH  11  12
ATOM     12  C   UNL     1      44.689   3.864   9.590  0.00  0.00    +0.000 A 
ATOM     13  N   UNL     1      45.228   4.287   8.462  0.00  0.00    +0.000 NA
ATOM     14  C   UNL     1      45.792   3.183   7.879  0.00  0.00    +0.000 A 
ATOM     15  C   UNL     1      45.581   2.066   8.650  0.00  0.00    +0.000 A 
ATOM     16  N   UNL     1      44.880   2.510   9.736  0.00  0.00    +0.000 N 
ATOM     17  H   UNL     1      44.564   1.949  10.514  0.00  0.00    +0.000 HD
ENDBRANCH  11  12
ENDBRANCH   9  11
ENDBRANCH   4   7
BRANCH   1  18
ATOM     18  C   UNL     1      49.335   6.270  16.223  0.00  0.00    +0.000 C 
BRANCH  18  20
ATOM     19  C   UNL     1      47.764   6.918  18.102  0.00  0.00    +0.000 C 
ATOM     20  N   UNL     1      49.019   6.324  17.654  0.00  0.00    +0.000 N 
ATOM     21  C   UNL     1      49.717   5.574  18.622  0.00  0.00    +0.000 C 
ATOM     22  O   UNL     1      49.286   5.462  19.769  0.00  0.00    +0.000 OA
BRANCH  21  23
ATOM     23  C   UNL     1      51.001   4.949  18.269  0.00  0.00    +0.000 A 
ATOM     24  C   UNL     1      52.232   5.579  18.358  0.00  0.00    +0.000 A 
ATOM     25  S   UNL     1      53.548   4.574  17.950  0.00  0.00    +0.000 S 
ATOM     26  C   UNL     1      52.531   3.224  17.781  0.00  0.00    +0.000 A 
ATOM     27  N   UNL     1      53.045   1.990  17.535  0.00  0.00    +0.000 NA
ATOM     28  C   UNL     1      52.160   1.056  17.487  0.00  0.00    +0.000 A 
ATOM     29  N   UNL     1      50.809   1.240  17.628  0.00  0.00    +0.000 N 
ATOM     30  C   UNL     1      50.232   2.487  17.743  0.00  0.00    +0.000 A 
ATOM     31  O   UNL     1      49.023   2.637  17.620  0.00  0.00    +0.000 OA
ATOM     32  C   UNL     1      51.197   3.559  17.927  0.00  0.00    +0.000 A 
ATOM     33  H   UNL     1      50.167   0.471  17.504  0.00  0.00    +0.000 HD
ENDBRANCH  21  23
ENDBRANCH  18  20
ENDBRANCH   1  18
TORSDOF 6
ENDMDL
MODEL 4
REMARK VINA RESULT:    -7.083      3.342      9.045
REMARK INTER + INTRA:         -10.654
REMARK INTER:                  -9.526
REMARK INTRA:                  -1.128
REMARK UNBOUND:                -1.086
REMARK  Name = 
REMARK  7 active torsions:
REMARK  status: ('A' for Active; 'I' for Inactive)
REMARK    1  A    between atoms: C_1  and  N_2
REMARK    2  A    between atoms: N_2  and  C_3
REMARK    3  A    between atoms: C_3  and  C_4
REMARK    4  A    between atoms: C_7  and  C_8
REMARK    5  A    between atoms: N_10  and  C_11
REMARK    6  A    between atoms: C_11  and  C_12
REMARK    7  A    between atoms: C_19  and  C_21
REMARK                            x       y       z     vdW  Elec       q    Type
REMARK                         _______ _______ _______ _____ _____    ______ ____
ROOT
ATOM      1  C   UNL     1      47.015   7.326  13.397  0.00  0.00    +0.000 A 
ATOM      2  C   UNL     1      46.071   7.998  12.614  0.00  0.00    +0.000 A 
ATOM      3  C   UNL     1      45.299   7.287  11.701  0.00  0.00    +0.000 A 
ATOM      4  C   UNL     1      45.496   5.914  11.605  0.00  0.00    +0.000 A 
ATOM      5  N   UNL     1      46.398   5.225  12.358  0.00  0.00    +0.000 NA
ATOM      6  C   UNL     1      47.134   5.949  13.230  0.00  0.00    +0.000 A 
ENDROOT
BRANCH   4   7
ATOM      7  C   UNL     1      44.713   5.127  10.598  0.00  0.00    +0.000 C 
ATOM      8  O   UNL     1      43.565   4.761  10.831  0.00  0.00    +0.000 OA
ATOM      9  N   UNL     1      45.361   4.863   9.413  0.00  0.00    +0.000 N 
ATOM     10  H   UNL     1      46.366   5.027   9.375  0.00  0.00    +0.000 HD
BRANCH   9  11
ATOM     11  C   UNL     1      44.734   4.063   8.393  0.00  0.00    +0.000 C 
BRANCH  11  12
ATOM     12  C   UNL     1      45.767   3.281   7.662  0.00  0.00    +0.000 A 
ATOM     13  N   UNL     1      46.453   3.666   6.602  0.00  0.00    +0.000 NA
ATOM     14  C   UNL     1      47.307   2.634   6.314  0.00  0.00    +0.000 A 
ATOM     15  C   UNL     1      47.131   1.598   7.197  0.00  0.00    +0.000 A 
ATOM     16  N   UNL     1      46.151   2.019   8.051  0.00  0.00    +0.000 N 
ATOM     17  H   UNL     1      45.778   1.502   8.834  0.00  0.00    +0.000 HD
ENDBRANCH  11  12
ENDBRANCH   9  11
ENDBRANCH   4   7
BRANCH   1  18
ATOM     18  C   UNL     1      47.886   8.064  14.375  0.00  0.00    +0.000 C 
BRANCH  18  20
ATOM     19  C   UNL     1      50.267   8.195  13.519  0.00  0.00    +0.000 C 
ATOM     20  N   UNL     1      49.295   7.669  14.471  0.00  0.00    +0.000 N 
ATOM     21  C   UNL     1      49.838   7.035  15.607  0.00  0.00    +0.000 C 
ATOM     22  O   UNL     1      51.055   6.927  15.751  0.00  0.00    +0.000 OA
BRANCH  21  23
ATOM     23  C   UNL     1      48.937   6.459  16.616  0.00  0.00    +0.000 A 
ATOM     24  C   UNL     1      48.434   5.168  16.575  0.00  0.00    +0.000 A 
ATOM     25  S   UNL     1      47.476   4.762  17.926  0.00  0.00    +0.000 S 
ATOM     26  C   UNL     1      47.819   6.245  18.680  0.00  0.00    +0.000 A 
ATOM     27  N   UNL     1      47.380   6.504  19.940  0.00  0.00    +0.000 NA
ATOM     28  C   UNL     1      47.762   7.644  20.402  0.00  0.00    +0.000 A 
ATOM     29  N   UNL     1      48.513   8.563  19.715  0.00  0.00    +0.000 N 
ATOM     30  C   UNL     1      48.866   8.401  18.391  0.00  0.00    +0.000 A 
ATOM     31  O   UNL     1      49.317   9.334  17.740  0.00  0.00    +0.000 OA
ATOM     32  C   UNL     1      48.564   7.079  17.867  0.00  0.00    +0.000 A 
ATOM     33  H   UNL     1      48.713   9.468  20.114  0.00  0.00    +0.000 HD
ENDBRANCH  21  23
ENDBRANCH  18  20
ENDBRANCH   1  18
TORSDOF 6
ENDMDL
MODEL 5
REMARK VINA RESULT:    -7.043      3.389      8.754
REMARK INTER + INTRA:         -10.600
REMARK INTER:                  -9.405
REMARK INTRA:                  -1.195
REMARK UNBOUND:                -1.086
REMARK  Name = 
REMARK  7 active torsions:
REMARK  status: ('A' for Active; 'I' for Inactive)
REMARK    1  A    between atoms: C_1  and  N_2
REMARK    2  A    between atoms: N_2  and  C_3
REMARK    3  A    between atoms: C_3  and  C_4
REMARK    4  A    between atoms: C_7  and  C_8
REMARK    5  A    between atoms: N_10  and  C_11
REMARK    6  A    between atoms: C_11  and  C_12
REMARK    7  A    between atoms: C_19  and  C_21
REMARK                            x       y       z     vdW  Elec       q    Type
REMARK                         _______ _______ _______ _____ _____    ______ ____
ROOT
ATOM      1  C   UNL     1      47.074   7.346  13.293  0.00  0.00    +0.000 A 
ATOM      2  C   UNL     1      46.336   7.804  12.197  0.00  0.00    +0.000 A 
ATOM      3  C   UNL     1      45.662   6.894  11.389  0.00  0.00    +0.000 A 
ATOM      4  C   UNL     1      45.747   5.544  11.711  0.00  0.00    +0.000 A 
ATOM      5  N   UNL     1      46.446   5.063  12.775  0.00  0.00    +0.000 NA
ATOM      6  C   UNL     1      47.093   5.975  13.534  0.00  0.00    +0.000 A 
ENDROOT
BRANCH   4   7
ATOM      7  C   UNL     1      45.070   4.536  10.833  0.00  0.00    +0.000 C 
ATOM      8  O   UNL     1      44.511   3.551  11.308  0.00  0.00    +0.000 OA
ATOM      9  N   UNL     1      45.112   4.797   9.482  0.00  0.00    +0.000 N 
ATOM     10  H   UNL     1      45.755   5.518   9.159  0.00  0.00    +0.000 HD
BRANCH   9  11
ATOM     11  C   UNL     1      44.551   3.869   8.535  0.00  0.00    +0.000 C 
BRANCH  11  12
ATOM     12  C   UNL     1      45.615   2.957   8.034  0.00  0.00    +0.000 A 
ATOM     13  N   UNL     1      45.822   1.705   8.395  0.00  0.00    +0.000 NA
ATOM     14  C   UNL     1      46.878   1.268   7.639  0.00  0.00    +0.000 A 
ATOM     15  C   UNL     1      47.334   2.269   6.817  0.00  0.00    +0.000 A 
ATOM     16  N   UNL     1      46.524   3.339   7.075  0.00  0.00    +0.000 N 
ATOM     17  H   UNL     1      46.574   4.247   6.636  0.00  0.00    +0.000 HD
ENDBRANCH  11  12
ENDBRANCH   9  11
ENDBRANCH   4   7
BRANCH   1  18
ATOM     18  C   UNL     1      47.837   8.296  14.173  0.00  0.00    +0.000 C 
BRANCH  18  20
ATOM     19  C   UNL     1      50.084   8.130  13.016  0.00  0.00    +0.000 C 
ATOM     20  N   UNL     1      49.294   8.146  14.242  0.00  0.00    +0.000 N 
ATOM     21  C   UNL     1      50.026   8.307  15.436  0.00  0.00    +0.000 C 
ATOM     22  O   UNL     1      51.252   8.403  15.419  0.00  0.00    +0.000 OA
BRANCH  21  23
ATOM     23  C   UNL     1      49.318   8.320  16.725  0.00  0.00    +0.000 A 
ATOM     24  C   UNL     1      48.994   9.467  17.431  0.00  0.00    +0.000 A 
ATOM     25  S   UNL     1      48.106   9.167  18.856  0.00  0.00    +0.000 S 
ATOM     26  C   UNL     1      47.999   7.510  18.501  0.00  0.00    +0.000 A 
ATOM     27  N   UNL     1      47.264   6.675  19.284  0.00  0.00    +0.000 NA
ATOM     28  C   UNL     1      47.229   5.459  18.863  0.00  0.00    +0.000 A 
ATOM     29  N   UNL     1      47.884   4.989  17.753  0.00  0.00    +0.000 N 
ATOM     30  C   UNL     1      48.746   5.766  17.008  0.00  0.00    +0.000 A 
ATOM     31  O   UNL     1      49.497   5.262  16.183  0.00  0.00    +0.000 OA
ATOM     32  C   UNL     1      48.721   7.174  17.371  0.00  0.00    +0.000 A 
ATOM     33  H   UNL     1      47.871   4.006  17.524  0.00  0.00    +0.000 HD
ENDBRANCH  21  23
ENDBRANCH  18  20
ENDBRANCH   1  18
TORSDOF 6
ENDMDL
MODEL 6
REMARK VINA RESULT:    -6.764      2.694      8.530
REMARK INTER + INTRA:         -10.223
REMARK INTER:                  -8.989
REMARK INTRA:                  -1.233
REMARK UNBOUND:                -1.086
REMARK  Name = 
REMARK  7 active torsions:
REMARK  status: ('A' for Active; 'I' for Inactive)
REMARK    1  A    between atoms: C_1  and  N_2
REMARK    2  A    between atoms: N_2  and  C_3
REMARK    3  A    between atoms: C_3  and  C_4
REMARK    4  A    between atoms: C_7  and  C_8
REMARK    5  A    between atoms: N_10  and  C_11
REMARK    6  A    between atoms: C_11  and  C_12
REMARK    7  A    between atoms: C_19  and  C_21
REMARK                            x       y       z     vdW  Elec       q    Type
REMARK                         _______ _______ _______ _____ _____    ______ ____
ROOT
ATOM      1  C   UNL     1      48.237   7.680  14.461  0.00  0.00    +0.000 A 
ATOM      2  C   UNL     1      48.116   6.301  14.273  0.00  0.00    +0.000 A 
ATOM      3  C   UNL     1      47.150   5.804  13.403  0.00  0.00    +0.000 A 
ATOM      4  C   UNL     1      46.335   6.716  12.742  0.00  0.00    +0.000 A 
ATOM      5  N   UNL     1      46.432   8.065  12.892  0.00  0.00    +0.000 NA
ATOM      6  C   UNL     1      47.377   8.511  13.749  0.00  0.00    +0.000 A 
ENDROOT
BRANCH   4   7
ATOM      7  C   UNL     1      45.255   6.211  11.834  0.00  0.00    +0.000 C 
ATOM      8  O   UNL     1      44.414   6.971  11.361  0.00  0.00    +0.000 OA
ATOM      9  N   UNL     1      45.282   4.861  11.566  0.00  0.00    +0.000 N 
ATOM     10  H   UNL     1      45.882   4.276  12.145  0.00  0.00    +0.000 HD
BRANCH   9  11
ATOM     11  C   UNL     1      44.261   4.249  10.757  0.00  0.00    +0.000 C 
BRANCH  11  12
ATOM     12  C   UNL     1      44.891   3.502   9.634  0.00  0.00    +0.000 A 
ATOM     13  N   UNL     1      45.432   4.013   8.544  0.00  0.00    +0.000 NA
ATOM     14  C   UNL     1      45.914   2.947   7.831  0.00  0.00    +0.000 A 
ATOM     15  C   UNL     1      45.650   1.768   8.482  0.00  0.00    +0.000 A 
ATOM     16  N   UNL     1      45.000   2.131   9.628  0.00  0.00    +0.000 N 
ATOM     17  H   UNL     1      44.665   1.508  10.349  0.00  0.00    +0.000 HD
ENDBRANCH  11  12
ENDBRANCH   9  11
ENDBRANCH   4   7
BRANCH   1  18
ATOM     18  C   UNL     1      49.251   8.252  15.413  0.00  0.00    +0.000 C 
BRANCH  18  20
ATOM     19  C   UNL     1      47.865   9.464  17.154  0.00  0.00    +0.000 C 
ATOM     20  N   UNL     1      48.848   8.442  16.810  0.00  0.00    +0.000 N 
ATOM     21  C   UNL     1      49.130   7.504  17.824  0.00  0.00    +0.000 C 
ATOM     22  O   UNL     1      48.585   7.577  18.925  0.00  0.00    +0.000 OA
BRANCH  21  23
ATOM     23  C   UNL     1      50.120   6.445  17.577  0.00  0.00    +0.000 A 
ATOM     24  C   UNL     1      51.493   6.628  17.613  0.00  0.00    +0.000 A 
ATOM     25  S   UNL     1      52.383   5.196  17.360  0.00  0.00    +0.000 S 
ATOM     26  C   UNL     1      50.968   4.259  17.338  0.00  0.00    +0.000 A 
ATOM     27  N   UNL     1      51.030   2.903  17.258  0.00  0.00    +0.000 NA
ATOM     28  C   UNL     1      49.882   2.323  17.307  0.00  0.00    +0.000 A 
ATOM     29  N   UNL     1      48.675   2.968  17.397  0.00  0.00    +0.000 N 
ATOM     30  C   UNL     1      48.554   4.341  17.345  0.00  0.00    +0.000 A 
ATOM     31  O   UNL     1      47.465   4.873  17.179  0.00  0.00    +0.000 OA
ATOM     32  C   UNL     1      49.829   5.039  17.415  0.00  0.00    +0.000 A 
ATOM     33  H   UNL     1      47.809   2.451  17.356  0.00  0.00    +0.000 HD
ENDBRANCH  21  23
ENDBRANCH  18  20
ENDBRANCH   1  18
TORSDOF 6
ENDMDL
MODEL 7
REMARK VINA RESULT:    -6.684      2.245      8.650
REMARK INTER + INTRA:         -10.115
REMARK INTER:                  -9.182
REMARK INTRA:                  -0.933
REMARK UNBOUND:                -1.086
REMARK  Name = 
REMARK  7 active torsions:
REMARK  status: ('A' for Active; 'I' for Inactive)
REMARK    1  A    between atoms: C_1  and  N_2
REMARK    2  A    between atoms: N_2  and  C_3
REMARK    3  A    between atoms: C_3  and  C_4
REMARK    4  A    between atoms: C_7  and  C_8
REMARK    5  A    between atoms: N_10  and  C_11
REMARK    6  A    between atoms: C_11  and  C_12
REMARK    7  A    between atoms: C_19  and  C_21
REMARK                            x       y       z     vdW  Elec       q    Type
REMARK                         _______ _______ _______ _____ _____    ______ ____
ROOT
ATOM      1  C   UNL     1      48.349   6.876  14.724  0.00  0.00    +0.000 A 
ATOM      2  C   UNL     1      47.864   7.953  13.977  0.00  0.00    +0.000 A 
ATOM      3  C   UNL     1      46.845   7.749  13.052  0.00  0.00    +0.000 A 
ATOM      4  C   UNL     1      46.339   6.463  12.908  0.00  0.00    +0.000 A 
ATOM      5  N   UNL     1      46.780   5.392  13.625  0.00  0.00    +0.000 NA
ATOM      6  C   UNL     1      47.774   5.627  14.510  0.00  0.00    +0.000 A 
ENDROOT
BRANCH   4   7
ATOM      7  C   UNL     1      45.274   6.202  11.886  0.00  0.00    +0.000 C 
ATOM      8  O   UNL     1      45.059   6.996  10.975  0.00  0.00    +0.000 OA
ATOM      9  N   UNL     1      44.579   5.024  12.037  0.00  0.00    +0.000 N 
ATOM     10  H   UNL     1      44.681   4.522  12.918  0.00  0.00    +0.000 HD
BRANCH   9  11
ATOM     11  C   UNL     1      43.492   4.692  11.153  0.00  0.00    +0.000 C 
BRANCH  11  12
ATOM     12  C   UNL     1      44.001   3.885  10.011  0.00  0.00    +0.000 A 
ATOM     13  N   UNL     1      44.133   2.572   9.962  0.00  0.00    +0.000 NA
ATOM     14  C   UNL     1      44.596   2.290   8.704  0.00  0.00    +0.000 A 
ATOM     15  C   UNL     1      44.767   3.443   7.979  0.00  0.00    +0.000 A 
ATOM     16  N   UNL     1      44.386   4.452   8.819  0.00  0.00    +0.000 N 
ATOM     17  H   UNL     1      44.377   5.439   8.603  0.00  0.00    +0.000 HD
ENDBRANCH  11  12
ENDBRANCH   9  11
ENDBRANCH   4   7
BRANCH   1  18
ATOM     18  C   UNL     1      49.466   7.053  15.714  0.00  0.00    +0.000 C 
BRANCH  18  20
ATOM     19  C   UNL     1      49.117   9.024  17.266  0.00  0.00    +0.000 C 
ATOM     20  N   UNL     1      49.130   7.583  17.039  0.00  0.00    +0.000 N 
ATOM     21  C   UNL     1      48.530   6.804  18.049  0.00  0.00    +0.000 C 
ATOM     22  O   UNL     1      48.053   7.327  19.055  0.00  0.00    +0.000 OA
BRANCH  21  23
ATOM     23  C   UNL     1      48.509   5.339  17.917  0.00  0.00    +0.000 A 
ATOM     24  C   UNL     1      47.374   4.591  17.650  0.00  0.00    +0.000 A 
ATOM     25  S   UNL     1      47.677   2.921  17.480  0.00  0.00    +0.000 S 
ATOM     26  C   UNL     1      49.353   3.160  17.612  0.00  0.00    +0.000 A 
ATOM     27  N   UNL     1      50.220   2.126  17.447  0.00  0.00    +0.000 NA
ATOM     28  C   UNL     1      51.459   2.466  17.521  0.00  0.00    +0.000 A 
ATOM     29  N   UNL     1      51.917   3.733  17.776  0.00  0.00    +0.000 N 
ATOM     30  C   UNL     1      51.077   4.784  18.083  0.00  0.00    +0.000 A 
ATOM     31  O   UNL     1      51.517   5.829  18.543  0.00  0.00    +0.000 OA
ATOM     32  C   UNL     1      49.668   4.477  17.890  0.00  0.00    +0.000 A 
ATOM     33  H   UNL     1      52.902   3.912  17.893  0.00  0.00    +0.000 HD
ENDBRANCH  21  23
ENDBRANCH  18  20
ENDBRANCH   1  18
TORSDOF 6
ENDMDL
MODEL 8
REMARK VINA RESULT:    -6.642      3.147      8.884
REMARK INTER + INTRA:         -10.058
REMARK INTER:                  -8.689
REMARK INTRA:                  -1.369
REMARK UNBOUND:                -1.086
REMARK  Name = 
REMARK  7 active torsions:
REMARK  status: ('A' for Active; 'I' for Inactive)
REMARK    1  A    between atoms: C_1  and  N_2
REMARK    2  A    between atoms: N_2  and  C_3
REMARK    3  A    between atoms: C_3  and  C_4
REMARK    4  A    between atoms: C_7  and  C_8
REMARK    5  A    between atoms: N_10  and  C_11
REMARK    6  A    between atoms: C_11  and  C_12
REMARK    7  A    between atoms: C_19  and  C_21
REMARK                            x       y       z     vdW  Elec       q    Type
REMARK                         _______ _______ _______ _____ _____    ______ ____
ROOT
ATOM      1  C   UNL     1      47.930   6.947  14.523  0.00  0.00    +0.000 A 
ATOM      2  C   UNL     1      47.823   5.644  15.016  0.00  0.00    +0.000 A 
ATOM      3  C   UNL     1      47.032   4.715  14.346  0.00  0.00    +0.000 A 
ATOM      4  C   UNL     1      46.375   5.126  13.193  0.00  0.00    +0.000 A 
ATOM      5  N   UNL     1      46.465   6.383  12.678  0.00  0.00    +0.000 NA
ATOM      6  C   UNL     1      47.236   7.260  13.358  0.00  0.00    +0.000 A 
ENDROOT
BRANCH   4   7
ATOM      7  C   UNL     1      45.479   4.162  12.475  0.00  0.00    +0.000 C 
ATOM      8  O   UNL     1      45.487   2.964  12.745  0.00  0.00    +0.000 OA
ATOM      9  N   UNL     1      44.656   4.711  11.519  0.00  0.00    +0.000 N 
ATOM     10  H   UNL     1      44.847   5.667  11.221  0.00  0.00    +0.000 HD
BRANCH   9  11
ATOM     11  C   UNL     1      43.795   3.878  10.721  0.00  0.00    +0.000 C 
BRANCH  11  12
ATOM     12  C   UNL     1      44.560   3.318   9.574  0.00  0.00    +0.000 A 
ATOM     13  N   UNL     1      44.845   3.924   8.437  0.00  0.00    +0.000 NA
ATOM     14  C   UNL     1      45.596   3.033   7.715  0.00  0.00    +0.000 A 
ATOM     15  C   UNL     1      45.760   1.861   8.411  0.00  0.00    +0.000 A 
ATOM     16  N   UNL     1      45.098   2.052   9.592  0.00  0.00    +0.000 N 
ATOM     17  H   UNL     1      45.023   1.388  10.350  0.00  0.00    +0.000 HD
ENDBRANCH  11  12
ENDBRANCH   9  11
ENDBRANCH   4   7
BRANCH   1  18
ATOM     18  C   UNL     1      48.753   7.986  15.234  0.00  0.00    +0.000 C 
BRANCH  18  20
ATOM     19  C   UNL     1      51.027   7.991  14.117  0.00  0.00    +0.000 C 
ATOM     20  N   UNL     1      50.204   7.780  15.302  0.00  0.00    +0.000 N 
ATOM     21  C   UNL     1      50.907   7.672  16.520  0.00  0.00    +0.000 C 
ATOM     22  O   UNL     1      52.135   7.733  16.550  0.00  0.00    +0.000 OA
BRANCH  21  23
ATOM     23  C   UNL     1      50.164   7.443  17.768  0.00  0.00    +0.000 A 
ATOM     24  C   UNL     1      49.590   8.444  18.535  0.00  0.00    +0.000 A 
ATOM     25  S   UNL     1      48.729   7.863  19.888  0.00  0.00    +0.000 S 
ATOM     26  C   UNL     1      48.971   6.251  19.413  0.00  0.00    +0.000 A 
ATOM     27  N   UNL     1      48.391   5.228  20.097  0.00  0.00    +0.000 NA
ATOM     28  C   UNL     1      48.618   4.066  19.591  0.00  0.00    +0.000 A 
ATOM     29  N   UNL     1      49.393   3.824  18.486  0.00  0.00    +0.000 N 
ATOM     30  C   UNL     1      50.109   4.813  17.843  0.00  0.00    +0.000 A 
ATOM     31  O   UNL     1      50.975   4.533  17.025  0.00  0.00    +0.000 OA
ATOM     32  C   UNL     1      49.787   6.155  18.301  0.00  0.00    +0.000 A 
ATOM     33  H   UNL     1      49.588   2.879  18.189  0.00  0.00    +0.000 HD
ENDBRANCH  21  23
ENDBRANCH  18  20
ENDBRANCH   1  18
TORSDOF 6
ENDMDL
MODEL 9
REMARK VINA RESULT:    -6.394      3.550      8.594
REMARK INTER + INTRA:          -9.723
REMARK INTER:                  -8.328
REMARK INTRA:                  -1.395
REMARK UNBOUND:                -1.086
REMARK  Name = 
REMARK  7 active torsions:
REMARK  status: ('A' for Active; 'I' for Inactive)
REMARK    1  A    between atoms: C_1  and  N_2
REMARK    2  A    between atoms: N_2  and  C_3
REMARK    3  A    between atoms: C_3  and  C_4
REMARK    4  A    between atoms: C_7  and  C_8
REMARK    5  A    between atoms: N_10  and  C_11
REMARK    6  A    between atoms: C_11  and  C_12
REMARK    7  A    between atoms: C_19  and  C_21
REMARK                            x       y       z     vdW  Elec       q    Type
REMARK                         _______ _______ _______ _____ _____    ______ ____
ROOT
ATOM      1  C   UNL     1      49.888   7.909  16.766  0.00  0.00    +0.000 A 
ATOM      2  C   UNL     1      49.990   6.995  15.714  0.00  0.00    +0.000 A 
ATOM      3  C   UNL     1      49.179   7.137  14.593  0.00  0.00    +0.000 A 
ATOM      4  C   UNL     1      48.288   8.204  14.561  0.00  0.00    +0.000 A 
ATOM      5  N   UNL     1      48.168   9.119  15.561  0.00  0.00    +0.000 NA
ATOM      6  C   UNL     1      48.968   8.946  16.637  0.00  0.00    +0.000 A 
ENDROOT
BRANCH   4   7
ATOM      7  C   UNL     1      47.368   8.357  13.389  0.00  0.00    +0.000 C 
ATOM      8  O   UNL     1      47.587   9.190  12.512  0.00  0.00    +0.000 OA
ATOM      9  N   UNL     1      46.287   7.505  13.362  0.00  0.00    +0.000 N 
ATOM     10  H   UNL     1      46.071   6.987  14.212  0.00  0.00    +0.000 HD
BRANCH   9  11
ATOM     11  C   UNL     1      45.300   7.599  12.318  0.00  0.00    +0.000 C 
BRANCH  11  12
ATOM     12  C   UNL     1      44.348   6.460  12.424  0.00  0.00    +0.000 A 
ATOM     13  N   UNL     1      44.461   5.399  13.201  0.00  0.00    +0.000 NA
ATOM     14  C   UNL     1      43.331   4.654  12.985  0.00  0.00    +0.000 A 
ATOM     15  C   UNL     1      42.524   5.257  12.052  0.00  0.00    +0.000 A 
ATOM     16  N   UNL     1      43.178   6.405  11.702  0.00  0.00    +0.000 N 
ATOM     17  H   UNL     1      42.860   7.097  11.039  0.00  0.00    +0.000 HD
ENDBRANCH  11  12
ENDBRANCH   9  11
ENDBRANCH   4   7
BRANCH   1  18
ATOM     18  C   UNL     1      50.729   7.773  18.004  0.00  0.00    +0.000 C 
BRANCH  18  20
ATOM     19  C   UNL     1      49.410   8.413  20.070  0.00  0.00    +0.000 C 
ATOM     20  N   UNL     1      50.056   7.394  19.251  0.00  0.00    +0.000 N 
ATOM     21  C   UNL     1      49.735   6.060  19.575  0.00  0.00    +0.000 C 
ATOM     22  O   UNL     1      48.974   5.799  20.505  0.00  0.00    +0.000 OA
BRANCH  21  23
ATOM     23  C   UNL     1      50.350   4.961  18.815  0.00  0.00    +0.000 A 
ATOM     24  C   UNL     1      51.655   4.526  18.980  0.00  0.00    +0.000 A 
ATOM     25  S   UNL     1      52.058   3.183  18.009  0.00  0.00    +0.000 S 
ATOM     26  C   UNL     1      50.462   3.048  17.444  0.00  0.00    +0.000 A 
ATOM     27  N   UNL     1      50.093   2.017  16.638  0.00  0.00    +0.000 NA
ATOM     28  C   UNL     1      48.842   2.013  16.334  0.00  0.00    +0.000 A 
ATOM     29  N   UNL     1      47.930   2.958  16.731  0.00  0.00    +0.000 N 
ATOM     30  C   UNL     1      48.285   4.091  17.434  0.00  0.00    +0.000 A 
ATOM     31  O   UNL     1      47.505   5.026  17.558  0.00  0.00    +0.000 OA
ATOM     32  C   UNL     1      49.661   4.076  17.904  0.00  0.00    +0.000 A 
ATOM     33  H   UNL     1      46.980   2.932  16.393  0.00  0.00    +0.000 HD
ENDBRANCH  21  23
ENDBRANCH  18  20
ENDBRANCH   1  18
TORSDOF 6
ENDMDL
