MODEL 1
REMARK VINA RESULT:    -7.683      0.000      0.000
REMARK INTER + INTRA:         -11.278
REMARK INTER:                 -10.602
REMARK INTRA:                  -0.676
REMARK UNBOUND:                -0.676
REMARK  Name = 
REMARK  7 active torsions:
REMARK  status: ('A' for Active; 'I' for Inactive)
REMARK    1  A    between atoms: N_1  and  C_2
REMARK    2  A    between atoms: C_2  and  C_3
REMARK    3  A    between atoms: C_2  and  C_17
REMARK    4  A    between atoms: C_3  and  N_4
REMARK    5  A    between atoms: C_7  and  C_8
REMARK    6  A    between atoms: C_8  and  N_9
REMARK    7  A    between atoms: C_17  and  C_19
REMARK                            x       y       z     vdW  Elec       q    Type
REMARK                         _______ _______ _______ _____ _____    ______ ____
ROOT
ATOM      1  C   UNL     1      46.471   6.582  12.904  0.00  0.00    +0.000 C 
ENDROOT
BRANCH   1   2
ATOM      2  N   UNL     1      46.065   7.944  13.336  0.00  0.00    +0.000 NA
ATOM      3  H   UNL     1      46.699   8.297  14.045  0.00  0.00    +0.000 HD
ATOM      4  H   UNL     1      45.139   7.887  13.762  0.00  0.00    +0.000 HD
ENDBRANCH   1   2
BRANCH   1   5
ATOM      5  C   UNL     1      47.891   6.206  13.381  0.00  0.00    +0.000 C 
ATOM      6  O   UNL     1      48.758   5.872  12.576  0.00  0.00    +0.000 OA
BRANCH   5   7
ATOM      7  C   UNL     1      48.160   6.216  14.836  0.00  0.00    +0.000 A 
ATOM      8  C   UNL     1      48.640   7.329  15.512  0.00  0.00    +0.000 A 
ATOM      9  S   UNL     1      48.767   7.104  17.200  0.00  0.00    +0.000 S 
ATOM     10  C   UNL     1      48.176   5.512  17.084  0.00  0.00    +0.000 A 
ATOM     11  N   UNL     1      47.989   4.763  18.200  0.00  0.00    +0.000 NA
ATOM     12  C   UNL     1      47.496   3.589  17.969  0.00  0.00    +0.000 A 
ATOM     13  N   UNL     1      47.206   3.097  16.727  0.00  0.00    +0.000 N 
ATOM     14  C   UNL     1      47.522   3.767  15.557  0.00  0.00    +0.000 A 
ATOM     15  O   UNL     1      47.532   3.186  14.484  0.00  0.00    +0.000 OA
ATOM     16  C   UNL     1      47.939   5.140  15.775  0.00  0.00    +0.000 A 
ATOM     17  H   UNL     1      46.909   2.137  16.609  0.00  0.00    +0.000 HD
ENDBRANCH   5   7
ENDBRANCH   1   5
BRANCH   1  18
ATOM     18  C   UNL     1      45.470   5.507  13.392  0.00  0.00    +0.000 C 
BRANCH  18  19
ATOM     19  N   UNL     1      44.589   4.996  12.320  0.00  0.00    +0.000 NA
ATOM     20  C   UNL     1      45.042   5.425  10.994  0.00  0.00    +0.000 C 
ATOM     21  C   UNL     1      44.128   4.886   9.901  0.00  0.00    +0.000 C 
ATOM     22  C   UNL     1      44.091   3.352   9.929  0.00  0.00    +0.000 C 
ATOM     23  C   UNL     1      43.543   2.956  11.307  0.00  0.00    +0.000 C 
ATOM     24  C   UNL     1      44.382   3.546  12.447  0.00  0.00    +0.000 C 
BRANCH  22  25
ATOM     25  C   UNL     1      45.484   2.723   9.631  0.00  0.00    +0.000 C 
BRANCH  25  26
ATOM     26  N   UNL     1      45.795   2.552   8.197  0.00  0.00    +0.000 NA
ATOM     27  C   UNL     1      46.447   3.743   7.633  0.00  0.00    +0.000 C 
ATOM     28  C   UNL     1      46.726   3.570   6.139  0.00  0.00    +0.000 C 
ATOM     29  C   UNL     1      47.574   2.335   5.874  0.00  0.00    +0.000 C 
ATOM     30  C   UNL     1      46.920   1.112   6.503  0.00  0.00    +0.000 C 
ATOM     31  C   UNL     1      46.629   1.352   7.988  0.00  0.00    +0.000 C 
ENDBRANCH  25  26
ENDBRANCH  22  25
ENDBRANCH  18  19
ENDBRANCH   1  18
TORSDOF 7
ENDMDL
MODEL 2
REMARK VINA RESULT:    -7.495      2.422      3.142
REMARK INTER + INTRA:         -11.019
REMARK INTER:                 -10.627
REMARK INTRA:                  -0.392
REMARK UNBOUND:                -0.676
REMARK  Name = 
REMARK  7 active torsions:
REMARK  status: ('A' for Active; 'I' for Inactive)
REMARK    1  A    between atoms: N_1  and  C_2
REMARK    2  A    between atoms: C_2  and  C_3
REMARK    3  A    between atoms: C_2  and  C_17
REMARK    4  A    between atoms: C_3  and  N_4
REMARK    5  A    between atoms: C_7  and  C_8
REMARK    6  A    between atoms: C_8  and  N_9
REMARK    7  A    between atoms: C_17  and  C_19
REMARK                            x       y       z     vdW  Elec       q    Type
REMARK                         _______ _______ _______ _____ _____    ______ ____
ROOT
ATOM      1  C   UNL     1      47.619   4.855  15.241  0.00  0.00    +0.000 C 
ENDROOT
BRANCH   1   2
ATOM      2  N   UNL     1      47.742   6.326  15.077  0.00  0.00    +0.000 NA
ATOM      3  H   UNL     1      48.551   6.675  15.579  0.00  0.00    +0.000 HD
ATOM      4  H   UNL     1      46.919   6.769  15.489  0.00  0.00    +0.000 HD
ENDBRANCH   1   2
BRANCH   1   5
ATOM      5  C   UNL     1      47.801   4.404  16.706  0.00  0.00    +0.000 C 
ATOM      6  O   UNL     1      46.836   4.043  17.378  0.00  0.00    +0.000 OA
BRANCH   5   7
ATOM      7  C   UNL     1      49.160   4.462  17.288  0.00  0.00    +0.000 A 
ATOM      8  C   UNL     1      49.663   5.584  17.932  0.00  0.00    +0.000 A 
ATOM      9  S   UNL     1      51.217   5.352  18.600  0.00  0.00    +0.000 S 
ATOM     10  C   UNL     1      51.266   3.740  18.057  0.00  0.00    +0.000 A 
ATOM     11  N   UNL     1      52.328   2.946  18.348  0.00  0.00    +0.000 NA
ATOM     12  C   UNL     1      52.214   1.733  17.910  0.00  0.00    +0.000 A 
ATOM     13  N   UNL     1      51.153   1.263  17.188  0.00  0.00    +0.000 N 
ATOM     14  C   UNL     1      50.125   2.076  16.740  0.00  0.00    +0.000 A 
ATOM     15  O   UNL     1      49.366   1.702  15.860  0.00  0.00    +0.000 OA
ATOM     16  C   UNL     1      50.141   3.401  17.331  0.00  0.00    +0.000 A 
ATOM     17  H   UNL     1      51.169   0.331  16.796  0.00  0.00    +0.000 HD
ENDBRANCH   5   7
ENDBRANCH   1   5
BRANCH   1  18
ATOM     18  C   UNL     1      46.261   4.334  14.713  0.00  0.00    +0.000 C 
BRANCH  18  19
ATOM     19  N   UNL     1      45.731   5.119  13.578  0.00  0.00    +0.000 NA
ATOM     20  C   UNL     1      46.535   4.934  12.367  0.00  0.00    +0.000 C 
ATOM     21  C   UNL     1      45.974   5.745  11.206  0.00  0.00    +0.000 C 
ATOM     22  C   UNL     1      44.529   5.328  10.899  0.00  0.00    +0.000 C 
ATOM     23  C   UNL     1      43.716   5.608  12.170  0.00  0.00    +0.000 C 
ATOM     24  C   UNL     1      44.293   4.880  13.391  0.00  0.00    +0.000 C 
BRANCH  22  25
ATOM     25  C   UNL     1      44.429   3.844  10.435  0.00  0.00    +0.000 C 
BRANCH  25  26
ATOM     26  N   UNL     1      45.459   3.426   9.463  0.00  0.00    +0.000 NA
ATOM     27  C   UNL     1      45.267   2.036   9.027  0.00  0.00    +0.000 C 
ATOM     28  C   UNL     1      46.363   1.601   8.053  0.00  0.00    +0.000 C 
ATOM     29  C   UNL     1      46.427   2.524   6.844  0.00  0.00    +0.000 C 
ATOM     30  C   UNL     1      46.576   3.969   7.302  0.00  0.00    +0.000 C 
ATOM     31  C   UNL     1      45.476   4.340   8.303  0.00  0.00    +0.000 C 
ENDBRANCH  25  26
ENDBRANCH  22  25
ENDBRANCH  18  19
ENDBRANCH   1  18
TORSDOF 7
ENDMDL
MODEL 3
REMARK VINA RESULT:    -7.363      1.644      2.248
REMARK INTER + INTRA:         -10.836
REMARK INTER:                 -10.214
REMARK INTRA:                  -0.622
REMARK UNBOUND:                -0.676
REMARK  Name = 
REMARK  7 active torsions:
REMARK  status: ('A' for Active; 'I' for Inactive)
REMARK    1  A    between atoms: N_1  and  C_2
REMARK    2  A    between atoms: C_2  and  C_3
REMARK    3  A    between atoms: C_2  and  C_17
REMARK    4  A    between atoms: C_3  and  N_4
REMARK    5  A    between atoms: C_7  and  C_8
REMARK    6  A    between atoms: C_8  and  N_9
REMARK    7  A    between atoms: C_17  and  C_19
REMARK                            x       y       z     vdW  Elec       q    Type
REMARK                         _______ _______ _______ _____ _____    ______ ____
ROOT
ATOM      1  C   UNL     1      48.170   6.302  13.466  0.00  0.00    +0.000 C 
ENDROOT
BRANCH   1   2
ATOM      2  N   UNL     1      49.307   6.605  12.560  0.00  0.00    +0.000 NA
ATOM      3  H   UNL     1      49.143   6.214  11.638  0.00  0.00    +0.000 HD
ATOM      4  H   UNL     1      50.147   6.158  12.931  0.00  0.00    +0.000 HD
ENDBRANCH   1   2
BRANCH   1   5
ATOM      5  C   UNL     1      48.316   6.977  14.848  0.00  0.00    +0.000 C 
ATOM      6  O   UNL     1      47.821   8.082  15.064  0.00  0.00    +0.000 OA
BRANCH   5   7
ATOM      7  C   UNL     1      49.105   6.276  15.884  0.00  0.00    +0.000 A 
ATOM      8  C   UNL     1      50.381   6.667  16.262  0.00  0.00    +0.000 A 
ATOM      9  S   UNL     1      51.028   5.751  17.549  0.00  0.00    +0.000 S 
ATOM     10  C   UNL     1      49.618   4.804  17.651  0.00  0.00    +0.000 A 
ATOM     11  N   UNL     1      49.498   3.845  18.604  0.00  0.00    +0.000 NA
ATOM     12  C   UNL     1      48.359   3.231  18.592  0.00  0.00    +0.000 A 
ATOM     13  N   UNL     1      47.353   3.474  17.699  0.00  0.00    +0.000 N 
ATOM     14  C   UNL     1      47.491   4.332  16.621  0.00  0.00    +0.000 A 
ATOM     15  O   UNL     1      46.706   4.300  15.687  0.00  0.00    +0.000 OA
ATOM     16  C   UNL     1      48.692   5.144  16.683  0.00  0.00    +0.000 A 
ATOM     17  H   UNL     1      46.524   2.895  17.687  0.00  0.00    +0.000 HD
ENDBRANCH   5   7
ENDBRANCH   1   5
BRANCH   1  18
ATOM     18  C   UNL     1      46.816   6.714  12.840  0.00  0.00    +0.000 C 
BRANCH  18  19
ATOM     19  N   UNL     1      45.763   5.687  12.991  0.00  0.00    +0.000 NA
ATOM     20  C   UNL     1      44.451   6.188  12.570  0.00  0.00    +0.000 C 
ATOM     21  C   UNL     1      43.379   5.118  12.726  0.00  0.00    +0.000 C 
ATOM     22  C   UNL     1      43.719   3.880  11.885  0.00  0.00    +0.000 C 
ATOM     23  C   UNL     1      45.061   3.353  12.411  0.00  0.00    +0.000 C 
ATOM     24  C   UNL     1      46.158   4.423  12.355  0.00  0.00    +0.000 C 
BRANCH  22  25
ATOM     25  C   UNL     1      43.752   4.193  10.360  0.00  0.00    +0.000 C 
BRANCH  25  26
ATOM     26  N   UNL     1      44.895   3.609   9.629  0.00  0.00    +0.000 NA
ATOM     27  C   UNL     1      44.616   2.236   9.184  0.00  0.00    +0.000 C 
ATOM     28  C   UNL     1      45.822   1.628   8.466  0.00  0.00    +0.000 C 
ATOM     29  C   UNL     1      46.252   2.484   7.283  0.00  0.00    +0.000 C 
ATOM     30  C   UNL     1      46.491   3.917   7.740  0.00  0.00    +0.000 C 
ATOM     31  C   UNL     1      45.269   4.464   8.485  0.00  0.00    +0.000 C 
ENDBRANCH  25  26
ENDBRANCH  22  25
ENDBRANCH  18  19
ENDBRANCH   1  18
TORSDOF 7
ENDMDL
MODEL 4
REMARK VINA RESULT:    -7.209      1.638      2.605
REMARK INTER + INTRA:         -10.625
REMARK INTER:                 -10.260
REMARK INTRA:                  -0.365
REMARK UNBOUND:                -0.676
REMARK  Name = 
REMARK  7 active torsions:
REMARK  status: ('A' for Active; 'I' for Inactive)
REMARK    1  A    between atoms: N_1  and  C_2
REMARK    2  A    between atoms: C_2  and  C_3
REMARK    3  A    between atoms: C_2  and  C_17
REMARK    4  A    between atoms: C_3  and  N_4
REMARK    5  A    between atoms: C_7  and  C_8
REMARK    6  A    between atoms: C_8  and  N_9
REMARK    7  A    between atoms: C_17  and  C_19
REMARK                            x       y       z     vdW  Elec       q    Type
REMARK                         _______ _______ _______ _____ _____    ______ ____
ROOT
ATOM      1  C   UNL     1      46.979   5.155  14.047  0.00  0.00    +0.000 C 
ENDROOT
BRANCH   1   2
ATOM      2  N   UNL     1      47.125   6.619  14.250  0.00  0.00    +0.000 NA
ATOM      3  H   UNL     1      46.332   7.115  13.857  0.00  0.00    +0.000 HD
ATOM      4  H   UNL     1      47.955   6.936  13.747  0.00  0.00    +0.000 HD
ENDBRANCH   1   2
BRANCH   1   5
ATOM      5  C   UNL     1      47.646   4.331  15.171  0.00  0.00    +0.000 C 
ATOM      6  O   UNL     1      47.953   3.154  14.990  0.00  0.00    +0.000 OA
BRANCH   5   7
ATOM      7  C   UNL     1      47.859   4.986  16.480  0.00  0.00    +0.000 A 
ATOM      8  C   UNL     1      47.076   4.727  17.595  0.00  0.00    +0.000 A 
ATOM      9  S   UNL     1      47.598   5.539  19.004  0.00  0.00    +0.000 S 
ATOM     10  C   UNL     1      48.897   6.257  18.170  0.00  0.00    +0.000 A 
ATOM     11  N   UNL     1      49.783   7.049  18.825  0.00  0.00    +0.000 NA
ATOM     12  C   UNL     1      50.742   7.494  18.079  0.00  0.00    +0.000 A 
ATOM     13  N   UNL     1      50.871   7.239  16.742  0.00  0.00    +0.000 N 
ATOM     14  C   UNL     1      49.911   6.565  16.007  0.00  0.00    +0.000 A 
ATOM     15  O   UNL     1      49.903   6.616  14.787  0.00  0.00    +0.000 OA
ATOM     16  C   UNL     1      48.899   5.927  16.829  0.00  0.00    +0.000 A 
ATOM     17  H   UNL     1      51.593   7.693  16.198  0.00  0.00    +0.000 HD
ENDBRANCH   5   7
ENDBRANCH   1   5
BRANCH   1  18
ATOM     18  C   UNL     1      45.493   4.741  13.927  0.00  0.00    +0.000 C 
BRANCH  18  19
ATOM     19  N   UNL     1      44.898   5.061  12.611  0.00  0.00    +0.000 NA
ATOM     20  C   UNL     1      45.900   5.030  11.541  0.00  0.00    +0.000 C 
ATOM     21  C   UNL     1      45.272   5.356  10.193  0.00  0.00    +0.000 C 
ATOM     22  C   UNL     1      44.163   4.352   9.851  0.00  0.00    +0.000 C 
ATOM     23  C   UNL     1      43.109   4.474  10.959  0.00  0.00    +0.000 C 
ATOM     24  C   UNL     1      43.709   4.238  12.350  0.00  0.00    +0.000 C 
BRANCH  22  25
ATOM     25  C   UNL     1      44.708   2.901   9.697  0.00  0.00    +0.000 C 
BRANCH  25  26
ATOM     26  N   UNL     1      45.799   2.747   8.713  0.00  0.00    +0.000 NA
ATOM     27  C   UNL     1      46.014   1.340   8.349  0.00  0.00    +0.000 C 
ATOM     28  C   UNL     1      47.174   1.190   7.363  0.00  0.00    +0.000 C 
ATOM     29  C   UNL     1      46.946   2.025   6.111  0.00  0.00    +0.000 C 
ATOM     30  C   UNL     1      46.674   3.473   6.495  0.00  0.00    +0.000 C 
ATOM     31  C   UNL     1      45.531   3.563   7.512  0.00  0.00    +0.000 C 
ENDBRANCH  25  26
ENDBRANCH  22  25
ENDBRANCH  18  19
ENDBRANCH   1  18
TORSDOF 7
ENDMDL
MODEL 5
REMARK VINA RESULT:    -6.806      2.504      3.433
REMARK INTER + INTRA:         -10.069
REMARK INTER:                  -9.386
REMARK INTRA:                  -0.683
REMARK UNBOUND:                -0.676
REMARK  Name = 
REMARK  7 active torsions:
REMARK  status: ('A' for Active; 'I' for Inactive)
REMARK    1  A    between atoms: N_1  and  C_2
REMARK    2  A    between atoms: C_2  and  C_3
REMARK    3  A    between atoms: C_2  and  C_17
REMARK    4  A    between atoms: C_3  and  N_4
REMARK    5  A    between atoms: C_7  and  C_8
REMARK    6  A    between atoms: C_8  and  N_9
REMARK    7  A    between atoms: C_17  and  C_19
REMARK                            x       y       z     vdW  Elec       q    Type
REMARK                         _______ _______ _______ _____ _____    ______ ____
ROOT
ATOM      1  C   UNL     1      48.022   6.357  13.674  0.00  0.00    +0.000 C 
ENDROOT
BRANCH   1   2
ATOM      2  N   UNL     1      49.005   6.488  12.569  0.00  0.00    +0.000 NA
ATOM      3  H   UNL     1      49.600   7.297  12.716  0.00  0.00    +0.000 HD
ATOM      4  H   UNL     1      48.497   6.644  11.698  0.00  0.00    +0.000 HD
ENDBRANCH   1   2
BRANCH   1   5
ATOM      5  C   UNL     1      48.389   7.218  14.902  0.00  0.00    +0.000 C 
ATOM      6  O   UNL     1      48.027   8.390  14.980  0.00  0.00    +0.000 OA
BRANCH   5   7
ATOM      7  C   UNL     1      49.225   6.603  15.957  0.00  0.00    +0.000 A 
ATOM      8  C   UNL     1      48.704   5.837  16.989  0.00  0.00    +0.000 A 
ATOM      9  S   UNL     1      49.894   5.162  18.011  0.00  0.00    +0.000 S 
ATOM     10  C   UNL     1      51.148   5.866  17.101  0.00  0.00    +0.000 A 
ATOM     11  N   UNL     1      52.446   5.634  17.421  0.00  0.00    +0.000 NA
ATOM     12  C   UNL     1      53.294   6.197  16.621  0.00  0.00    +0.000 A 
ATOM     13  N   UNL     1      52.955   6.987  15.558  0.00  0.00    +0.000 N 
ATOM     14  C   UNL     1      51.652   7.371  15.289  0.00  0.00    +0.000 A 
ATOM     15  O   UNL     1      51.415   8.301  14.535  0.00  0.00    +0.000 OA
ATOM     16  C   UNL     1      50.666   6.647  16.069  0.00  0.00    +0.000 A 
ATOM     17  H   UNL     1      53.667   7.471  15.028  0.00  0.00    +0.000 HD
ENDBRANCH   5   7
ENDBRANCH   1   5
BRANCH   1  18
ATOM     18  C   UNL     1      46.590   6.719  13.210  0.00  0.00    +0.000 C 
BRANCH  18  19
ATOM     19  N   UNL     1      45.651   5.578  13.258  0.00  0.00    +0.000 NA
ATOM     20  C   UNL     1      44.300   5.969  12.846  0.00  0.00    +0.000 C 
ATOM     21  C   UNL     1      43.346   4.783  12.895  0.00  0.00    +0.000 C 
ATOM     22  C   UNL     1      43.829   3.657  11.971  0.00  0.00    +0.000 C 
ATOM     23  C   UNL     1      45.211   3.235  12.487  0.00  0.00    +0.000 C 
ATOM     24  C   UNL     1      46.188   4.416  12.537  0.00  0.00    +0.000 C 
BRANCH  22  25
ATOM     25  C   UNL     1      43.850   4.090  10.475  0.00  0.00    +0.000 C 
BRANCH  25  26
ATOM     26  N   UNL     1      44.969   3.539   9.684  0.00  0.00    +0.000 NA
ATOM     27  C   UNL     1      44.689   2.174   9.216  0.00  0.00    +0.000 C 
ATOM     28  C   UNL     1      45.872   1.600   8.435  0.00  0.00    +0.000 C 
ATOM     29  C   UNL     1      46.243   2.490   7.258  0.00  0.00    +0.000 C 
ATOM     30  C   UNL     1      46.483   3.914   7.740  0.00  0.00    +0.000 C 
ATOM     31  C   UNL     1      45.286   4.427   8.547  0.00  0.00    +0.000 C 
ENDBRANCH  25  26
ENDBRANCH  22  25
ENDBRANCH  18  19
ENDBRANCH   1  18
TORSDOF 7
ENDMDL
MODEL 6
REMARK VINA RESULT:    -6.671      2.787      3.964
REMARK INTER + INTRA:          -9.882
REMARK INTER:                  -9.575
REMARK INTRA:                  -0.307
REMARK UNBOUND:                -0.676
REMARK  Name = 
REMARK  7 active torsions:
REMARK  status: ('A' for Active; 'I' for Inactive)
REMARK    1  A    between atoms: N_1  and  C_2
REMARK    2  A    between atoms: C_2  and  C_3
REMARK    3  A    between atoms: C_2  and  C_17
REMARK    4  A    between atoms: C_3  and  N_4
REMARK    5  A    between atoms: C_7  and  C_8
REMARK    6  A    between atoms: C_8  and  N_9
REMARK    7  A    between atoms: C_17  and  C_19
REMARK                            x       y       z     vdW  Elec       q    Type
REMARK                         _______ _______ _______ _____ _____    ______ ____
ROOT
ATOM      1  C   UNL     1      49.094   6.554  16.095  0.00  0.00    +0.000 C 
ENDROOT
BRANCH   1   2
ATOM      2  N   UNL     1      48.147   7.571  16.617  0.00  0.00    +0.000 NA
ATOM      3  H   UNL     1      48.019   7.459  17.618  0.00  0.00    +0.000 HD
ATOM      4  H   UNL     1      47.236   7.423  16.181  0.00  0.00    +0.000 HD
ENDBRANCH   1   2
BRANCH   1   5
ATOM      5  C   UNL     1      49.102   5.261  16.939  0.00  0.00    +0.000 C 
ATOM      6  O   UNL     1      48.050   4.704  17.248  0.00  0.00    +0.000 OA
BRANCH   5   7
ATOM      7  C   UNL     1      50.408   4.741  17.401  0.00  0.00    +0.000 A 
ATOM      8  C   UNL     1      51.377   5.539  17.993  0.00  0.00    +0.000 A 
ATOM      9  S   UNL     1      52.748   4.672  18.526  0.00  0.00    +0.000 S 
ATOM     10  C   UNL     1      52.087   3.198  17.991  0.00  0.00    +0.000 A 
ATOM     11  N   UNL     1      52.749   2.031  18.195  0.00  0.00    +0.000 NA
ATOM     12  C   UNL     1      52.113   0.984  17.775  0.00  0.00    +0.000 A 
ATOM     13  N   UNL     1      50.898   1.011  17.151  0.00  0.00    +0.000 N 
ATOM     14  C   UNL     1      50.261   2.186  16.788  0.00  0.00    +0.000 A 
ATOM     15  O   UNL     1      49.347   2.182  15.979  0.00  0.00    +0.000 OA
ATOM     16  C   UNL     1      50.867   3.371  17.367  0.00  0.00    +0.000 A 
ATOM     17  H   UNL     1      50.498   0.166  16.765  0.00  0.00    +0.000 HD
ENDBRANCH   5   7
ENDBRANCH   1   5
BRANCH   1  18
ATOM     18  C   UNL     1      48.789   6.195  14.620  0.00  0.00    +0.000 C 
BRANCH  18  19
ATOM     19  N   UNL     1      47.369   6.382  14.251  0.00  0.00    +0.000 NA
ATOM     20  C   UNL     1      47.205   7.423  13.233  0.00  0.00    +0.000 C 
ATOM     21  C   UNL     1      45.739   7.599  12.861  0.00  0.00    +0.000 C 
ATOM     22  C   UNL     1      45.154   6.289  12.316  0.00  0.00    +0.000 C 
ATOM     23  C   UNL     1      45.284   5.254  13.442  0.00  0.00    +0.000 C 
ATOM     24  C   UNL     1      46.735   5.101  13.913  0.00  0.00    +0.000 C 
BRANCH  22  25
ATOM     25  C   UNL     1      45.849   5.835  10.998  0.00  0.00    +0.000 C 
BRANCH  25  26
ATOM     26  N   UNL     1      45.088   4.853  10.200  0.00  0.00    +0.000 NA
ATOM     27  C   UNL     1      45.682   4.650   8.871  0.00  0.00    +0.000 C 
ATOM     28  C   UNL     1      44.861   3.664   8.039  0.00  0.00    +0.000 C 
ATOM     29  C   UNL     1      44.710   2.328   8.753  0.00  0.00    +0.000 C 
ATOM     30  C   UNL     1      44.141   2.549  10.148  0.00  0.00    +0.000 C 
ATOM     31  C   UNL     1      44.977   3.571  10.924  0.00  0.00    +0.000 C 
ENDBRANCH  25  26
ENDBRANCH  22  25
ENDBRANCH  18  19
ENDBRANCH   1  18
TORSDOF 7
ENDMDL
MODEL 7
REMARK VINA RESULT:    -6.653      3.880      7.401
REMARK INTER + INTRA:          -9.857
REMARK INTER:                  -8.465
REMARK INTRA:                  -1.392
REMARK UNBOUND:                -0.676
REMARK  Name = 
REMARK  7 active torsions:
REMARK  status: ('A' for Active; 'I' for Inactive)
REMARK    1  A    between atoms: N_1  and  C_2
REMARK    2  A    between atoms: C_2  and  C_3
REMARK    3  A    between atoms: C_2  and  C_17
REMARK    4  A    between atoms: C_3  and  N_4
REMARK    5  A    between atoms: C_7  and  C_8
REMARK    6  A    between atoms: C_8  and  N_9
REMARK    7  A    between atoms: C_17  and  C_19
REMARK                            x       y       z     vdW  Elec       q    Type
REMARK                         _______ _______ _______ _____ _____    ______ ____
ROOT
ATOM      1  C   UNL     1      47.218   8.783  13.391  0.00  0.00    +0.000 C 
ENDROOT
BRANCH   1   2
ATOM      2  N   UNL     1      46.123   9.669  12.919  0.00  0.00    +0.000 NA
ATOM      3  H   UNL     1      46.145  10.556  13.411  0.00  0.00    +0.000 HD
ATOM      4  H   UNL     1      45.230   9.226  13.139  0.00  0.00    +0.000 HD
ENDBRANCH   1   2
BRANCH   1   5
ATOM      5  C   UNL     1      47.476   7.597  12.437  0.00  0.00    +0.000 C 
ATOM      6  O   UNL     1      48.133   7.747  11.409  0.00  0.00    +0.000 OA
BRANCH   5   7
ATOM      7  C   UNL     1      46.870   6.290  12.774  0.00  0.00    +0.000 A 
ATOM      8  C   UNL     1      47.595   5.229  13.298  0.00  0.00    +0.000 A 
ATOM      9  S   UNL     1      46.637   3.871  13.692  0.00  0.00    +0.000 S 
ATOM     10  C   UNL     1      45.218   4.661  13.184  0.00  0.00    +0.000 A 
ATOM     11  N   UNL     1      44.010   4.054  13.304  0.00  0.00    +0.000 NA
ATOM     12  C   UNL     1      43.014   4.783  12.917  0.00  0.00    +0.000 A 
ATOM     13  N   UNL     1      43.126   6.043  12.400  0.00  0.00    +0.000 N 
ATOM     14  C   UNL     1      44.345   6.638  12.119  0.00  0.00    +0.000 A 
ATOM     15  O   UNL     1      44.414   7.615  11.391  0.00  0.00    +0.000 OA
ATOM     16  C   UNL     1      45.477   5.917  12.670  0.00  0.00    +0.000 A 
ATOM     17  H   UNL     1      42.316   6.523  12.031  0.00  0.00    +0.000 HD
ENDBRANCH   5   7
ENDBRANCH   1   5
BRANCH   1  18
ATOM     18  C   UNL     1      48.538   9.567  13.594  0.00  0.00    +0.000 C 
BRANCH  18  19
ATOM     19  N   UNL     1      49.259   9.192  14.830  0.00  0.00    +0.000 NA
ATOM     20  C   UNL     1      48.358   9.120  15.984  0.00  0.00    +0.000 C 
ATOM     21  C   UNL     1      49.114   8.729  17.247  0.00  0.00    +0.000 C 
ATOM     22  C   UNL     1      49.792   7.363  17.073  0.00  0.00    +0.000 C 
ATOM     23  C   UNL     1      50.774   7.510  15.904  0.00  0.00    +0.000 C 
ATOM     24  C   UNL     1      50.075   7.987  14.625  0.00  0.00    +0.000 C 
BRANCH  22  25
ATOM     25  C   UNL     1      48.761   6.216  16.853  0.00  0.00    +0.000 C 
BRANCH  25  26
ATOM     26  N   UNL     1      49.351   4.871  16.693  0.00  0.00    +0.000 NA
ATOM     27  C   UNL     1      50.447   4.637  17.644  0.00  0.00    +0.000 C 
ATOM     28  C   UNL     1      51.076   3.259  17.440  0.00  0.00    +0.000 C 
ATOM     29  C   UNL     1      50.038   2.153  17.556  0.00  0.00    +0.000 C 
ATOM     30  C   UNL     1      48.880   2.426  16.604  0.00  0.00    +0.000 C 
ATOM     31  C   UNL     1      48.312   3.831  16.826  0.00  0.00    +0.000 C 
ENDBRANCH  25  26
ENDBRANCH  22  25
ENDBRANCH  18  19
ENDBRANCH   1  18
TORSDOF 7
ENDMDL
MODEL 8
REMARK VINA RESULT:    -6.560      2.536      3.472
REMARK INTER + INTRA:          -9.729
REMARK INTER:                  -8.983
REMARK INTRA:                  -0.747
REMARK UNBOUND:                -0.676
REMARK  Name = 
REMARK  7 active torsions:
REMARK  status: ('A' for Active; 'I' for Inactive)
REMARK    1  A    between atoms: N_1  and  C_2
REMARK    2  A    between atoms: C_2  and  C_3
REMARK    3  A    between atoms: C_2  and  C_17
REMARK    4  A    between atoms: C_3  and  N_4
REMARK    5  A    between atoms: C_7  and  C_8
REMARK    6  A    between atoms: C_8  and  N_9
REMARK    7  A    between atoms: C_17  and  C_19
REMARK                            x       y       z     vdW  Elec       q    Type
REMARK                         _______ _______ _______ _____ _____    ______ ____
ROOT
ATOM      1  C   UNL     1      47.488   6.830  14.189  0.00  0.00    +0.000 C 
ENDROOT
BRANCH   1   2
ATOM      2  N   UNL     1      47.454   5.646  15.085  0.00  0.00    +0.000 NA
ATOM      3  H   UNL     1      47.100   4.834  14.590  0.00  0.00    +0.000 HD
ATOM      4  H   UNL     1      46.806   5.836  15.850  0.00  0.00    +0.000 HD
ENDBRANCH   1   2
BRANCH   1   5
ATOM      5  C   UNL     1      48.852   7.003  13.484  0.00  0.00    +0.000 C 
ATOM      6  O   UNL     1      49.175   6.270  12.552  0.00  0.00    +0.000 OA
BRANCH   5   7
ATOM      7  C   UNL     1      49.770   8.043  13.995  0.00  0.00    +0.000 A 
ATOM      8  C   UNL     1      50.072   9.201  13.293  0.00  0.00    +0.000 A 
ATOM      9  S   UNL     1      51.078  10.282  14.151  0.00  0.00    +0.000 S 
ATOM     10  C   UNL     1      51.137   9.240  15.495  0.00  0.00    +0.000 A 
ATOM     11  N   UNL     1      51.807   9.601  16.619  0.00  0.00    +0.000 NA
ATOM     12  C   UNL     1      51.735   8.733  17.577  0.00  0.00    +0.000 A 
ATOM     13  N   UNL     1      51.080   7.536  17.494  0.00  0.00    +0.000 N 
ATOM     14  C   UNL     1      50.515   7.064  16.322  0.00  0.00    +0.000 A 
ATOM     15  O   UNL     1      50.212   5.888  16.200  0.00  0.00    +0.000 OA
ATOM     16  C   UNL     1      50.447   8.064  15.272  0.00  0.00    +0.000 A 
ATOM     17  H   UNL     1      51.139   6.864  18.247  0.00  0.00    +0.000 HD
ENDBRANCH   5   7
ENDBRANCH   1   5
BRANCH   1  18
ATOM     18  C   UNL     1      46.369   6.769  13.121  0.00  0.00    +0.000 C 
BRANCH  18  19
ATOM     19  N   UNL     1      45.541   5.547  13.206  0.00  0.00    +0.000 NA
ATOM     20  C   UNL     1      44.148   5.807  12.833  0.00  0.00    +0.000 C 
ATOM     21  C   UNL     1      43.310   4.539  12.922  0.00  0.00    +0.000 C 
ATOM     22  C   UNL     1      43.867   3.452  11.993  0.00  0.00    +0.000 C 
ATOM     23  C   UNL     1      45.297   3.165  12.469  0.00  0.00    +0.000 C 
ATOM     24  C   UNL     1      46.162   4.431  12.480  0.00  0.00    +0.000 C 
BRANCH  22  25
ATOM     25  C   UNL     1      43.804   3.868  10.493  0.00  0.00    +0.000 C 
BRANCH  25  26
ATOM     26  N   UNL     1      44.954   3.429   9.676  0.00  0.00    +0.000 NA
ATOM     27  C   UNL     1      44.763   2.070   9.149  0.00  0.00    +0.000 C 
ATOM     28  C   UNL     1      45.977   1.611   8.341  0.00  0.00    +0.000 C 
ATOM     29  C   UNL     1      46.282   2.575   7.204  0.00  0.00    +0.000 C 
ATOM     30  C   UNL     1      46.430   3.990   7.749  0.00  0.00    +0.000 C 
ATOM     31  C   UNL     1      45.205   4.385   8.580  0.00  0.00    +0.000 C 
ENDBRANCH  25  26
ENDBRANCH  22  25
ENDBRANCH  18  19
ENDBRANCH   1  18
TORSDOF 7
ENDMDL
MODEL 9
REMARK VINA RESULT:    -6.422      2.966      4.585
REMARK INTER + INTRA:          -9.539
REMARK INTER:                  -8.322
REMARK INTRA:                  -1.217
REMARK UNBOUND:                -0.676
REMARK  Name = 
REMARK  7 active torsions:
REMARK  status: ('A' for Active; 'I' for Inactive)
REMARK    1  A    between atoms: N_1  and  C_2
REMARK    2  A    between atoms: C_2  and  C_3
REMARK    3  A    between atoms: C_2  and  C_17
REMARK    4  A    between atoms: C_3  and  N_4
REMARK    5  A    between atoms: C_7  and  C_8
REMARK    6  A    between atoms: C_8  and  N_9
REMARK    7  A    between atoms: C_17  and  C_19
REMARK                            x       y       z     vdW  Elec       q    Type
REMARK                         _______ _______ _______ _____ _____    ______ ____
ROOT
ATOM      1  C   UNL     1      49.965   7.496  14.947  0.00  0.00    +0.000 C 
ENDROOT
BRANCH   1   2
ATOM      2  N   UNL     1      51.411   7.218  15.139  0.00  0.00    +0.000 NA
ATOM      3  H   UNL     1      51.794   7.807  15.871  0.00  0.00    +0.000 HD
ATOM      4  H   UNL     1      51.905   7.453  14.276  0.00  0.00    +0.000 HD
ENDBRANCH   1   2
BRANCH   1   5
ATOM      5  C   UNL     1      49.200   7.608  16.283  0.00  0.00    +0.000 C 
ATOM      6  O   UNL     1      48.545   8.613  16.552  0.00  0.00    +0.000 OA
BRANCH   5   7
ATOM      7  C   UNL     1      49.315   6.490  17.245  0.00  0.00    +0.000 A 
ATOM      8  C   UNL     1      50.067   6.564  18.409  0.00  0.00    +0.000 A 
ATOM      9  S   UNL     1      49.949   5.173  19.392  0.00  0.00    +0.000 S 
ATOM     10  C   UNL     1      48.880   4.428  18.298  0.00  0.00    +0.000 A 
ATOM     11  N   UNL     1      48.348   3.210  18.574  0.00  0.00    +0.000 NA
ATOM     12  C   UNL     1      47.520   2.782  17.677  0.00  0.00    +0.000 A 
ATOM     13  N   UNL     1      47.205   3.449  16.526  0.00  0.00    +0.000 N 
ATOM     14  C   UNL     1      47.837   4.617  16.134  0.00  0.00    +0.000 A 
ATOM     15  O   UNL     1      47.758   5.019  14.985  0.00  0.00    +0.000 OA
ATOM     16  C   UNL     1      48.660   5.203  17.176  0.00  0.00    +0.000 A 
ATOM     17  H   UNL     1      46.621   3.017  15.823  0.00  0.00    +0.000 HD
ENDBRANCH   5   7
ENDBRANCH   1   5
BRANCH   1  18
ATOM     18  C   UNL     1      49.737   8.786  14.122  0.00  0.00    +0.000 C 
BRANCH  18  19
ATOM     19  N   UNL     1      48.768   8.614  13.019  0.00  0.00    +0.000 NA
ATOM     20  C   UNL     1      48.644   7.209  12.619  0.00  0.00    +0.000 C 
ATOM     21  C   UNL     1      47.639   7.048  11.486  0.00  0.00    +0.000 C 
ATOM     22  C   UNL     1      46.254   7.557  11.910  0.00  0.00    +0.000 C 
ATOM     23  C   UNL     1      46.423   9.044  12.248  0.00  0.00    +0.000 C 
ATOM     24  C   UNL     1      47.489   9.269  13.327  0.00  0.00    +0.000 C 
BRANCH  22  25
ATOM     25  C   UNL     1      45.660   6.734  13.092  0.00  0.00    +0.000 C 
BRANCH  25  26
ATOM     26  N   UNL     1      44.670   5.710  12.701  0.00  0.00    +0.000 NA
ATOM     27  C   UNL     1      44.017   6.038  11.426  0.00  0.00    +0.000 C 
ATOM     28  C   UNL     1      42.965   4.992  11.054  0.00  0.00    +0.000 C 
ATOM     29  C   UNL     1      43.570   3.597  10.988  0.00  0.00    +0.000 C 
ATOM     30  C   UNL     1      44.289   3.281  12.293  0.00  0.00    +0.000 C 
ATOM     31  C   UNL     1      45.303   4.377  12.637  0.00  0.00    +0.000 C 
ENDBRANCH  25  26
ENDBRANCH  22  25
ENDBRANCH  18  19
ENDBRANCH   1  18
TORSDOF 7
ENDMDL
