MODEL 1
REMARK VINA RESULT:    -6.215      0.000      0.000
REMARK INTER + INTRA:          -8.480
REMARK INTER:                  -7.850
REMARK INTRA:                  -0.631
REMARK UNBOUND:                -0.631
REMARK  Name = 
REMARK  5 active torsions:
REMARK  status: ('A' for Active; 'I' for Inactive)
REMARK    1  A    between atoms: N_1  and  C_2
REMARK    2  A    between atoms: C_2  and  C_3
REMARK    3  A    between atoms: C_6  and  C_7
REMARK    4  A    between atoms: C_7  and  N_8
REMARK    5  A    between atoms: C_14  and  N_15
REMARK                            x       y       z     vdW  Elec       q    Type
REMARK                         _______ _______ _______ _____ _____    ______ ____
ROOT
ATOM      1  N   UNL     1      44.418   5.274  11.645  0.00  0.00    +0.000 N 
ATOM      2  C   UNL     1      43.595   4.659  12.556  0.00  0.00    +0.000 A 
ATOM      3  C   UNL     1      43.374   3.367  12.135  0.00  0.00    +0.000 A 
ATOM      4  C   UNL     1      44.050   3.199  10.895  0.00  0.00    +0.000 A 
ATOM      5  C   UNL     1      44.121   2.142   9.972  0.00  0.00    +0.000 A 
ATOM      6  C   UNL     1      44.841   2.309   8.781  0.00  0.00    +0.000 A 
ATOM      7  C   UNL     1      45.540   3.498   8.552  0.00  0.00    +0.000 A 
ATOM      8  C   UNL     1      45.553   4.541   9.494  0.00  0.00    +0.000 A 
ATOM      9  C   UNL     1      44.749   4.385  10.637  0.00  0.00    +0.000 A 
ENDROOT
BRANCH   7  10
ATOM     10  N   UNL     1      46.221   3.695   7.266  0.00  0.00    +0.000 N 
ATOM     11  O   UNL     1      47.017   4.641   7.172  0.00  0.00    +0.000 OA
ATOM     12  O   UNL     1      45.978   2.892   6.353  0.00  0.00    +0.000 OA
ENDBRANCH   7  10
BRANCH   1  13
ATOM     13  C   UNL     1      44.706   6.704  11.647  0.00  0.00    +0.000 C 
BRANCH  13  17
ATOM     14  C   UNL     1      48.592   8.007  13.151  0.00  0.00    +0.000 C 
ATOM     15  C   UNL     1      47.435   9.011  13.246  0.00  0.00    +0.000 C 
ATOM     16  C   UNL     1      46.226   8.594  12.411  0.00  0.00    +0.000 C 
ATOM     17  C   UNL     1      45.734   7.164  12.701  0.00  0.00    +0.000 C 
ATOM     18  C   UNL     1      46.896   6.151  12.751  0.00  0.00    +0.000 C 
ATOM     19  C   UNL     1      48.070   6.634  13.601  0.00  0.00    +0.000 C 
BRANCH  14  20
ATOM     20  C   UNL     1      49.214   8.020  11.736  0.00  0.00    +0.000 C 
BRANCH  20  21
ATOM     21  N   UNL     1      50.519   7.372  11.688  0.00  0.00    +0.000 NA
ATOM     22  H   UNL     1      50.597   6.841  10.821  0.00  0.00    +0.000 HD
ATOM     23  H   UNL     1      50.595   6.687  12.437  0.00  0.00    +0.000 HD
ENDBRANCH  20  21
ENDBRANCH  14  20
ENDBRANCH  13  17
ENDBRANCH   1  13
TORSDOF 5
ENDMDL
MODEL 2
REMARK VINA RESULT:    -6.070      3.697      5.182
REMARK INTER + INTRA:          -8.298
REMARK INTER:                  -8.032
REMARK INTRA:                  -0.266
REMARK UNBOUND:                -0.631
REMARK  Name = 
REMARK  5 active torsions:
REMARK  status: ('A' for Active; 'I' for Inactive)
REMARK    1  A    between atoms: N_1  and  C_2
REMARK    2  A    between atoms: C_2  and  C_3
REMARK    3  A    between atoms: C_6  and  C_7
REMARK    4  A    between atoms: C_7  and  N_8
REMARK    5  A    between atoms: C_14  and  N_15
REMARK                            x       y       z     vdW  Elec       q    Type
REMARK                         _______ _______ _______ _____ _____    ______ ____
ROOT
ATOM      1  N   UNL     1      46.897   6.577  13.541  0.00  0.00    +0.000 N 
ATOM      2  C   UNL     1      47.004   7.926  13.302  0.00  0.00    +0.000 A 
ATOM      3  C   UNL     1      45.927   8.315  12.538  0.00  0.00    +0.000 A 
ATOM      4  C   UNL     1      45.156   7.152  12.260  0.00  0.00    +0.000 A 
ATOM      5  C   UNL     1      44.013   6.919  11.477  0.00  0.00    +0.000 A 
ATOM      6  C   UNL     1      43.514   5.615  11.351  0.00  0.00    +0.000 A 
ATOM      7  C   UNL     1      44.113   4.570  12.058  0.00  0.00    +0.000 A 
ATOM      8  C   UNL     1      45.208   4.787  12.912  0.00  0.00    +0.000 A 
ATOM      9  C   UNL     1      45.747   6.085  12.950  0.00  0.00    +0.000 A 
ENDROOT
BRANCH   7  10
ATOM     10  N   UNL     1      43.634   3.196  11.855  0.00  0.00    +0.000 N 
ATOM     11  O   UNL     1      43.451   2.492  12.859  0.00  0.00    +0.000 OA
ATOM     12  O   UNL     1      43.422   2.824  10.691  0.00  0.00    +0.000 OA
ENDBRANCH   7  10
BRANCH   1  13
ATOM     13  C   UNL     1      47.955   5.773  14.142  0.00  0.00    +0.000 C 
BRANCH  13  17
ATOM     14  C   UNL     1      48.619   3.543  17.836  0.00  0.00    +0.000 C 
ATOM     15  C   UNL     1      48.860   5.058  17.883  0.00  0.00    +0.000 C 
ATOM     16  C   UNL     1      48.922   5.685  16.492  0.00  0.00    +0.000 C 
ATOM     17  C   UNL     1      47.708   5.352  15.606  0.00  0.00    +0.000 C 
ATOM     18  C   UNL     1      47.354   3.852  15.648  0.00  0.00    +0.000 C 
ATOM     19  C   UNL     1      47.313   3.291  17.070  0.00  0.00    +0.000 C 
BRANCH  14  20
ATOM     20  C   UNL     1      49.851   2.810  17.255  0.00  0.00    +0.000 C 
BRANCH  20  21
ATOM     21  N   UNL     1      49.490   1.782  16.286  0.00  0.00    +0.000 NA
ATOM     22  H   UNL     1      49.201   0.940  16.783  0.00  0.00    +0.000 HD
ATOM     23  H   UNL     1      50.310   1.513  15.744  0.00  0.00    +0.000 HD
ENDBRANCH  20  21
ENDBRANCH  14  20
ENDBRANCH  13  17
ENDBRANCH   1  13
TORSDOF 5
ENDMDL
MODEL 3
REMARK VINA RESULT:    -6.054      4.304      7.474
REMARK INTER + INTRA:          -8.277
REMARK INTER:                  -7.613
REMARK INTRA:                  -0.664
REMARK UNBOUND:                -0.631
REMARK  Name = 
REMARK  5 active torsions:
REMARK  status: ('A' for Active; 'I' for Inactive)
REMARK    1  A    between atoms: N_1  and  C_2
REMARK    2  A    between atoms: C_2  and  C_3
REMARK    3  A    between atoms: C_6  and  C_7
REMARK    4  A    between atoms: C_7  and  N_8
REMARK    5  A    between atoms: C_14  and  N_15
REMARK                            x       y       z     vdW  Elec       q    Type
REMARK                         _______ _______ _______ _____ _____    ______ ____
ROOT
ATOM      1  N   UNL     1      47.917   6.544  13.750  0.00  0.00    +0.000 N 
ATOM      2  C   UNL     1      48.296   7.860  13.645  0.00  0.00    +0.000 A 
ATOM      3  C   UNL     1      48.734   8.283  14.881  0.00  0.00    +0.000 A 
ATOM      4  C   UNL     1      48.572   7.198  15.786  0.00  0.00    +0.000 A 
ATOM      5  C   UNL     1      48.769   7.061  17.171  0.00  0.00    +0.000 A 
ATOM      6  C   UNL     1      48.454   5.849  17.800  0.00  0.00    +0.000 A 
ATOM      7  C   UNL     1      48.015   4.764  17.037  0.00  0.00    +0.000 A 
ATOM      8  C   UNL     1      47.885   4.847  15.640  0.00  0.00    +0.000 A 
ATOM      9  C   UNL     1      48.118   6.099  15.045  0.00  0.00    +0.000 A 
ENDROOT
BRANCH   7  10
ATOM     10  N   UNL     1      47.609   3.525  17.714  0.00  0.00    +0.000 N 
ATOM     11  O   UNL     1      48.351   3.082  18.603  0.00  0.00    +0.000 OA
ATOM     12  O   UNL     1      46.536   3.005  17.373  0.00  0.00    +0.000 OA
ENDBRANCH   7  10
BRANCH   1  13
ATOM     13  C   UNL     1      47.211   5.816  12.701  0.00  0.00    +0.000 C 
BRANCH  13  17
ATOM     14  C   UNL     1      43.082   4.734  11.789  0.00  0.00    +0.000 C 
ATOM     15  C   UNL     1      43.518   4.645  13.258  0.00  0.00    +0.000 C 
ATOM     16  C   UNL     1      45.034   4.721  13.425  0.00  0.00    +0.000 C 
ATOM     17  C   UNL     1      45.674   5.941  12.738  0.00  0.00    +0.000 C 
ATOM     18  C   UNL     1      45.148   6.139  11.301  0.00  0.00    +0.000 C 
ATOM     19  C   UNL     1      43.625   6.048  11.208  0.00  0.00    +0.000 C 
BRANCH  14  20
ATOM     20  C   UNL     1      43.511   3.468  11.012  0.00  0.00    +0.000 C 
BRANCH  20  21
ATOM     21  N   UNL     1      43.049   2.237  11.642  0.00  0.00    +0.000 NA
ATOM     22  H   UNL     1      42.688   2.450  12.571  0.00  0.00    +0.000 HD
ATOM     23  H   UNL     1      43.836   1.606  11.791  0.00  0.00    +0.000 HD
ENDBRANCH  20  21
ENDBRANCH  14  20
ENDBRANCH  13  17
ENDBRANCH   1  13
TORSDOF 5
ENDMDL
MODEL 4
REMARK VINA RESULT:    -5.755      2.600      6.532
REMARK INTER + INTRA:          -7.900
REMARK INTER:                  -7.293
REMARK INTRA:                  -0.606
REMARK UNBOUND:                -0.631
REMARK  Name = 
REMARK  5 active torsions:
REMARK  status: ('A' for Active; 'I' for Inactive)
REMARK    1  A    between atoms: N_1  and  C_2
REMARK    2  A    between atoms: C_2  and  C_3
REMARK    3  A    between atoms: C_6  and  C_7
REMARK    4  A    between atoms: C_7  and  N_8
REMARK    5  A    between atoms: C_14  and  N_15
REMARK                            x       y       z     vdW  Elec       q    Type
REMARK                         _______ _______ _______ _____ _____    ______ ____
ROOT
ATOM      1  N   UNL     1      46.134   6.908  12.127  0.00  0.00    +0.000 N 
ATOM      2  C   UNL     1      45.064   7.685  12.501  0.00  0.00    +0.000 A 
ATOM      3  C   UNL     1      45.493   8.990  12.602  0.00  0.00    +0.000 A 
ATOM      4  C   UNL     1      46.889   9.004  12.326  0.00  0.00    +0.000 A 
ATOM      5  C   UNL     1      47.865  10.014  12.353  0.00  0.00    +0.000 A 
ATOM      6  C   UNL     1      49.203   9.692  12.083  0.00  0.00    +0.000 A 
ATOM      7  C   UNL     1      49.543   8.387  11.718  0.00  0.00    +0.000 A 
ATOM      8  C   UNL     1      48.575   7.375  11.603  0.00  0.00    +0.000 A 
ATOM      9  C   UNL     1      47.257   7.700  11.969  0.00  0.00    +0.000 A 
ENDROOT
BRANCH   7  10
ATOM     10  N   UNL     1      50.957   8.042  11.517  0.00  0.00    +0.000 N 
ATOM     11  O   UNL     1      51.252   7.369  10.518  0.00  0.00    +0.000 OA
ATOM     12  O   UNL     1      51.778   8.459  12.348  0.00  0.00    +0.000 OA
ENDBRANCH   7  10
BRANCH   1  13
ATOM     13  C   UNL     1      46.113   5.449  12.119  0.00  0.00    +0.000 C 
BRANCH  13  17
ATOM     14  C   UNL     1      44.597   2.866   8.942  0.00  0.00    +0.000 C 
ATOM     15  C   UNL     1      44.124   2.565  10.372  0.00  0.00    +0.000 C 
ATOM     16  C   UNL     1      44.950   3.296  11.428  0.00  0.00    +0.000 C 
ATOM     17  C   UNL     1      45.052   4.815  11.195  0.00  0.00    +0.000 C 
ATOM     18  C   UNL     1      45.390   5.154   9.729  0.00  0.00    +0.000 C 
ATOM     19  C   UNL     1      44.528   4.386   8.727  0.00  0.00    +0.000 C 
BRANCH  14  20
ATOM     20  C   UNL     1      45.990   2.248   8.684  0.00  0.00    +0.000 C 
BRANCH  20  21
ATOM     21  N   UNL     1      45.925   0.831   8.350  0.00  0.00    +0.000 NA
ATOM     22  H   UNL     1      44.956   0.576   8.156  0.00  0.00    +0.000 HD
ATOM     23  H   UNL     1      46.200   0.271   9.155  0.00  0.00    +0.000 HD
ENDBRANCH  20  21
ENDBRANCH  14  20
ENDBRANCH  13  17
ENDBRANCH   1  13
TORSDOF 5
ENDMDL
MODEL 5
REMARK VINA RESULT:    -5.563      2.530      3.660
REMARK INTER + INTRA:          -7.658
REMARK INTER:                  -7.028
REMARK INTRA:                  -0.629
REMARK UNBOUND:                -0.631
REMARK  Name = 
REMARK  5 active torsions:
REMARK  status: ('A' for Active; 'I' for Inactive)
REMARK    1  A    between atoms: N_1  and  C_2
REMARK    2  A    between atoms: C_2  and  C_3
REMARK    3  A    between atoms: C_6  and  C_7
REMARK    4  A    between atoms: C_7  and  N_8
REMARK    5  A    between atoms: C_14  and  N_15
REMARK                            x       y       z     vdW  Elec       q    Type
REMARK                         _______ _______ _______ _____ _____    ______ ____
ROOT
ATOM      1  N   UNL     1      45.028   6.358  12.021  0.00  0.00    +0.000 N 
ATOM      2  C   UNL     1      44.200   6.092  13.085  0.00  0.00    +0.000 A 
ATOM      3  C   UNL     1      43.610   4.865  12.876  0.00  0.00    +0.000 A 
ATOM      4  C   UNL     1      44.058   4.384  11.614  0.00  0.00    +0.000 A 
ATOM      5  C   UNL     1      43.742   3.249  10.850  0.00  0.00    +0.000 A 
ATOM      6  C   UNL     1      44.321   3.082   9.584  0.00  0.00    +0.000 A 
ATOM      7  C   UNL     1      45.261   4.008   9.122  0.00  0.00    +0.000 A 
ATOM      8  C   UNL     1      45.656   5.110   9.900  0.00  0.00    +0.000 A 
ATOM      9  C   UNL     1      44.993   5.305  11.124  0.00  0.00    +0.000 A 
ENDROOT
BRANCH   7  10
ATOM     10  N   UNL     1      45.799   3.869   7.763  0.00  0.00    +0.000 N 
ATOM     11  O   UNL     1      46.659   4.683   7.396  0.00  0.00    +0.000 OA
ATOM     12  O   UNL     1      45.378   2.934   7.067  0.00  0.00    +0.000 OA
ENDBRANCH   7  10
BRANCH   1  13
ATOM     13  C   UNL     1      45.663   7.651  11.791  0.00  0.00    +0.000 C 
BRANCH  13  17
ATOM     14  C   UNL     1      43.641  11.224  10.306  0.00  0.00    +0.000 C 
ATOM     15  C   UNL     1      42.762  10.007  10.625  0.00  0.00    +0.000 C 
ATOM     16  C   UNL     1      43.577   8.729  10.816  0.00  0.00    +0.000 C 
ATOM     17  C   UNL     1      44.714   8.866  11.845  0.00  0.00    +0.000 C 
ATOM     18  C   UNL     1      45.532  10.157  11.635  0.00  0.00    +0.000 C 
ATOM     19  C   UNL     1      44.653  11.394  11.448  0.00  0.00    +0.000 C 
BRANCH  14  20
ATOM     20  C   UNL     1      44.278  11.087   8.904  0.00  0.00    +0.000 C 
BRANCH  20  21
ATOM     21  N   UNL     1      43.345  10.576   7.907  0.00  0.00    +0.000 NA
ATOM     22  H   UNL     1      42.726   9.895   8.346  0.00  0.00    +0.000 HD
ATOM     23  H   UNL     1      43.852  10.064   7.187  0.00  0.00    +0.000 HD
ENDBRANCH  20  21
ENDBRANCH  14  20
ENDBRANCH  13  17
ENDBRANCH   1  13
TORSDOF 5
ENDMDL
MODEL 6
REMARK VINA RESULT:    -5.410      3.497      6.888
REMARK INTER + INTRA:          -7.465
REMARK INTER:                  -6.866
REMARK INTRA:                  -0.599
REMARK UNBOUND:                -0.631
REMARK  Name = 
REMARK  5 active torsions:
REMARK  status: ('A' for Active; 'I' for Inactive)
REMARK    1  A    between atoms: N_1  and  C_2
REMARK    2  A    between atoms: C_2  and  C_3
REMARK    3  A    between atoms: C_6  and  C_7
REMARK    4  A    between atoms: C_7  and  N_8
REMARK    5  A    between atoms: C_14  and  N_15
REMARK                            x       y       z     vdW  Elec       q    Type
REMARK                         _______ _______ _______ _____ _____    ______ ____
ROOT
ATOM      1  N   UNL     1      47.281   4.733  15.111  0.00  0.00    +0.000 N 
ATOM      2  C   UNL     1      47.154   4.090  16.318  0.00  0.00    +0.000 A 
ATOM      3  C   UNL     1      48.001   4.694  17.220  0.00  0.00    +0.000 A 
ATOM      4  C   UNL     1      48.707   5.716  16.526  0.00  0.00    +0.000 A 
ATOM      5  C   UNL     1      49.738   6.596  16.896  0.00  0.00    +0.000 A 
ATOM      6  C   UNL     1      50.280   7.468  15.942  0.00  0.00    +0.000 A 
ATOM      7  C   UNL     1      49.745   7.507  14.652  0.00  0.00    +0.000 A 
ATOM      8  C   UNL     1      48.660   6.695  14.277  0.00  0.00    +0.000 A 
ATOM      9  C   UNL     1      48.196   5.765  15.222  0.00  0.00    +0.000 A 
ENDROOT
BRANCH   7  10
ATOM     10  N   UNL     1      50.373   8.364  13.638  0.00  0.00    +0.000 N 
ATOM     11  O   UNL     1      50.204   8.069  12.446  0.00  0.00    +0.000 OA
ATOM     12  O   UNL     1      51.021   9.346  14.031  0.00  0.00    +0.000 OA
ENDBRANCH   7  10
BRANCH   1  13
ATOM     13  C   UNL     1      46.695   4.246  13.867  0.00  0.00    +0.000 C 
BRANCH  13  17
ATOM     14  C   UNL     1      43.611   5.438  11.016  0.00  0.00    +0.000 C 
ATOM     15  C   UNL     1      43.150   5.101  12.441  0.00  0.00    +0.000 C 
ATOM     16  C   UNL     1      44.231   4.391  13.253  0.00  0.00    +0.000 C 
ATOM     17  C   UNL     1      45.579   5.134  13.276  0.00  0.00    +0.000 C 
ATOM     18  C   UNL     1      46.003   5.610  11.871  0.00  0.00    +0.000 C 
ATOM     19  C   UNL     1      44.872   6.308  11.115  0.00  0.00    +0.000 C 
BRANCH  14  20
ATOM     20  C   UNL     1      43.788   4.151  10.178  0.00  0.00    +0.000 C 
BRANCH  20  21
ATOM     21  N   UNL     1      44.146   4.425   8.792  0.00  0.00    +0.000 NA
ATOM     22  H   UNL     1      44.533   5.366   8.725  0.00  0.00    +0.000 HD
ATOM     23  H   UNL     1      43.309   4.430   8.211  0.00  0.00    +0.000 HD
ENDBRANCH  20  21
ENDBRANCH  14  20
ENDBRANCH  13  17
ENDBRANCH   1  13
TORSDOF 5
ENDMDL
MODEL 7
REMARK VINA RESULT:    -5.377      4.043      6.490
REMARK INTER + INTRA:          -7.423
REMARK INTER:                  -6.804
REMARK INTRA:                  -0.619
REMARK UNBOUND:                -0.631
REMARK  Name = 
REMARK  5 active torsions:
REMARK  status: ('A' for Active; 'I' for Inactive)
REMARK    1  A    between atoms: N_1  and  C_2
REMARK    2  A    between atoms: C_2  and  C_3
REMARK    3  A    between atoms: C_6  and  C_7
REMARK    4  A    between atoms: C_7  and  N_8
REMARK    5  A    between atoms: C_14  and  N_15
REMARK                            x       y       z     vdW  Elec       q    Type
REMARK                         _______ _______ _______ _____ _____    ______ ____
ROOT
ATOM      1  N   UNL     1      49.161   7.937  14.581  0.00  0.00    +0.000 N 
ATOM      2  C   UNL     1      48.917   9.223  14.163  0.00  0.00    +0.000 A 
ATOM      3  C   UNL     1      47.727   9.233  13.469  0.00  0.00    +0.000 A 
ATOM      4  C   UNL     1      47.249   7.894  13.421  0.00  0.00    +0.000 A 
ATOM      5  C   UNL     1      46.148   7.287  12.795  0.00  0.00    +0.000 A 
ATOM      6  C   UNL     1      45.976   5.899  12.886  0.00  0.00    +0.000 A 
ATOM      7  C   UNL     1      46.861   5.138  13.656  0.00  0.00    +0.000 A 
ATOM      8  C   UNL     1      47.925   5.730  14.359  0.00  0.00    +0.000 A 
ATOM      9  C   UNL     1      48.129   7.108  14.177  0.00  0.00    +0.000 A 
ENDROOT
BRANCH   7  10
ATOM     10  N   UNL     1      46.722   3.676  13.678  0.00  0.00    +0.000 N 
ATOM     11  O   UNL     1      45.888   3.163  12.918  0.00  0.00    +0.000 OA
ATOM     12  O   UNL     1      47.461   3.037  14.441  0.00  0.00    +0.000 OA
ENDBRANCH   7  10
BRANCH   1  13
ATOM     13  C   UNL     1      50.423   7.501  15.168  0.00  0.00    +0.000 C 
BRANCH  13  17
ATOM     14  C   UNL     1      48.904   5.785  18.885  0.00  0.00    +0.000 C 
ATOM     15  C   UNL     1      50.301   5.340  18.431  0.00  0.00    +0.000 C 
ATOM     16  C   UNL     1      50.599   5.730  16.985  0.00  0.00    +0.000 C 
ATOM     17  C   UNL     1      50.378   7.224  16.686  0.00  0.00    +0.000 C 
ATOM     18  C   UNL     1      49.039   7.736  17.254  0.00  0.00    +0.000 C 
ATOM     19  C   UNL     1      48.806   7.307  18.703  0.00  0.00    +0.000 C 
BRANCH  14  20
ATOM     20  C   UNL     1      47.807   4.983  18.148  0.00  0.00    +0.000 C 
BRANCH  20  21
ATOM     21  N   UNL     1      46.463   5.310  18.610  0.00  0.00    +0.000 NA
ATOM     22  H   UNL     1      46.410   6.309  18.807  0.00  0.00    +0.000 HD
ATOM     23  H   UNL     1      46.277   4.844  19.497  0.00  0.00    +0.000 HD
ENDBRANCH  20  21
ENDBRANCH  14  20
ENDBRANCH  13  17
ENDBRANCH   1  13
TORSDOF 5
ENDMDL
MODEL 8
REMARK VINA RESULT:    -5.256      4.158      5.495
REMARK INTER + INTRA:          -7.270
REMARK INTER:                  -6.891
REMARK INTRA:                  -0.378
REMARK UNBOUND:                -0.631
REMARK  Name = 
REMARK  5 active torsions:
REMARK  status: ('A' for Active; 'I' for Inactive)
REMARK    1  A    between atoms: N_1  and  C_2
REMARK    2  A    between atoms: C_2  and  C_3
REMARK    3  A    between atoms: C_6  and  C_7
REMARK    4  A    between atoms: C_7  and  N_8
REMARK    5  A    between atoms: C_14  and  N_15
REMARK                            x       y       z     vdW  Elec       q    Type
REMARK                         _______ _______ _______ _____ _____    ______ ____
ROOT
ATOM      1  N   UNL     1      47.511   5.767  14.016  0.00  0.00    +0.000 N 
ATOM      2  C   UNL     1      48.255   6.827  13.558  0.00  0.00    +0.000 A 
ATOM      3  C   UNL     1      47.772   7.192  12.321  0.00  0.00    +0.000 A 
ATOM      4  C   UNL     1      46.723   6.291  11.989  0.00  0.00    +0.000 A 
ATOM      5  C   UNL     1      45.925   6.121  10.845  0.00  0.00    +0.000 A 
ATOM      6  C   UNL     1      44.993   5.075  10.798  0.00  0.00    +0.000 A 
ATOM      7  C   UNL     1      44.814   4.254  11.914  0.00  0.00    +0.000 A 
ATOM      8  C   UNL     1      45.541   4.451  13.101  0.00  0.00    +0.000 A 
ATOM      9  C   UNL     1      46.533   5.446  13.090  0.00  0.00    +0.000 A 
ENDROOT
BRANCH   7  10
ATOM     10  N   UNL     1      43.895   3.111  11.826  0.00  0.00    +0.000 N 
ATOM     11  O   UNL     1      43.497   2.774  10.702  0.00  0.00    +0.000 OA
ATOM     12  O   UNL     1      43.587   2.535  12.880  0.00  0.00    +0.000 OA
ENDBRANCH   7  10
BRANCH   1  13
ATOM     13  C   UNL     1      47.856   4.982  15.196  0.00  0.00    +0.000 C 
BRANCH  13  17
ATOM     14  C   UNL     1      49.332   5.795  19.223  0.00  0.00    +0.000 C 
ATOM     15  C   UNL     1      49.878   6.674  18.090  0.00  0.00    +0.000 C 
ATOM     16  C   UNL     1      49.563   6.109  16.706  0.00  0.00    +0.000 C 
ATOM     17  C   UNL     1      48.071   5.800  16.487  0.00  0.00    +0.000 C 
ATOM     18  C   UNL     1      47.457   5.035  17.677  0.00  0.00    +0.000 C 
ATOM     19  C   UNL     1      47.815   5.653  19.029  0.00  0.00    +0.000 C 
BRANCH  14  20
ATOM     20  C   UNL     1      50.094   4.452  19.291  0.00  0.00    +0.000 C 
BRANCH  20  21
ATOM     21  N   UNL     1      51.211   4.484  20.228  0.00  0.00    +0.000 NA
ATOM     22  H   UNL     1      50.986   3.907  21.037  0.00  0.00    +0.000 HD
ATOM     23  H   UNL     1      51.335   5.428  20.589  0.00  0.00    +0.000 HD
ENDBRANCH  20  21
ENDBRANCH  14  20
ENDBRANCH  13  17
ENDBRANCH   1  13
TORSDOF 5
ENDMDL
MODEL 9
REMARK VINA RESULT:    -5.222      4.104      7.567
REMARK INTER + INTRA:          -7.227
REMARK INTER:                  -6.904
REMARK INTRA:                  -0.323
REMARK UNBOUND:                -0.631
REMARK  Name = 
REMARK  5 active torsions:
REMARK  status: ('A' for Active; 'I' for Inactive)
REMARK    1  A    between atoms: N_1  and  C_2
REMARK    2  A    between atoms: C_2  and  C_3
REMARK    3  A    between atoms: C_6  and  C_7
REMARK    4  A    between atoms: C_7  and  N_8
REMARK    5  A    between atoms: C_14  and  N_15
REMARK                            x       y       z     vdW  Elec       q    Type
REMARK                         _______ _______ _______ _____ _____    ______ ____
ROOT
ATOM      1  N   UNL     1      48.300   7.635  12.627  0.00  0.00    +0.000 N 
ATOM      2  C   UNL     1      49.121   8.310  11.757  0.00  0.00    +0.000 A 
ATOM      3  C   UNL     1      50.351   8.467  12.356  0.00  0.00    +0.000 A 
ATOM      4  C   UNL     1      50.264   7.908  13.662  0.00  0.00    +0.000 A 
ATOM      5  C   UNL     1      51.158   7.845  14.744  0.00  0.00    +0.000 A 
ATOM      6  C   UNL     1      50.746   7.266  15.952  0.00  0.00    +0.000 A 
ATOM      7  C   UNL     1      49.475   6.692  16.049  0.00  0.00    +0.000 A 
ATOM      8  C   UNL     1      48.590   6.668  14.958  0.00  0.00    +0.000 A 
ATOM      9  C   UNL     1      48.991   7.337  13.788  0.00  0.00    +0.000 A 
ENDROOT
BRANCH   7  10
ATOM     10  N   UNL     1      49.022   6.162  17.342  0.00  0.00    +0.000 N 
ATOM     11  O   UNL     1      49.231   4.963  17.581  0.00  0.00    +0.000 OA
ATOM     12  O   UNL     1      48.474   6.948  18.129  0.00  0.00    +0.000 OA
ENDBRANCH   7  10
BRANCH   1  13
ATOM     13  C   UNL     1      46.865   7.466  12.423  0.00  0.00    +0.000 C 
BRANCH  13  17
ATOM     14  C   UNL     1      44.066   4.216  11.610  0.00  0.00    +0.000 C 
ATOM     15  C   UNL     1      44.872   4.756  10.421  0.00  0.00    +0.000 C 
ATOM     16  C   UNL     1      45.563   6.081  10.735  0.00  0.00    +0.000 C 
ATOM     17  C   UNL     1      46.426   6.046  12.009  0.00  0.00    +0.000 C 
ATOM     18  C   UNL     1      45.690   5.380  13.189  0.00  0.00    +0.000 C 
ATOM     19  C   UNL     1      45.020   4.060  12.803  0.00  0.00    +0.000 C 
BRANCH  14  20
ATOM     20  C   UNL     1      42.837   5.111  11.890  0.00  0.00    +0.000 C 
BRANCH  20  21
ATOM     21  N   UNL     1      42.589   5.300  13.314  0.00  0.00    +0.000 NA
ATOM     22  H   UNL     1      41.601   5.136  13.507  0.00  0.00    +0.000 HD
ATOM     23  H   UNL     1      42.762   6.271  13.572  0.00  0.00    +0.000 HD
ENDBRANCH  20  21
ENDBRANCH  14  20
ENDBRANCH  13  17
ENDBRANCH   1  13
TORSDOF 5
ENDMDL
