MODEL 1
REMARK VINA RESULT:    -8.119      0.000      0.000
REMARK INTER + INTRA:         -11.745
REMARK INTER:                 -10.729
REMARK INTRA:                  -1.016
REMARK UNBOUND:                -1.016
REMARK  Name = 
REMARK  7 active torsions:
REMARK  status: ('A' for Active; 'I' for Inactive)
REMARK    1  A    between atoms: C_1  and  C_2
REMARK    2  A    between atoms: C_2  and  C_3
REMARK    3  A    between atoms: C_7  and  C_8
REMARK    4  A    between atoms: C_8  and  C_9
REMARK    5  A    between atoms: C_9  and  N_10
REMARK    6  A    between atoms: C_14  and  C_15
REMARK    7  A    between atoms: C_23  and  N_24
REMARK                            x       y       z     vdW  Elec       q    Type
REMARK                         _______ _______ _______ _____ _____    ______ ____
ROOT
ATOM      1  C   UNL     1      46.969   6.313  13.096  0.00  0.00    +0.000 A 
ATOM      2  C   UNL     1      47.503   5.132  13.634  0.00  0.00    +0.000 A 
ATOM      3  C   UNL     1      46.737   3.964  13.709  0.00  0.00    +0.000 A 
ATOM      4  C   UNL     1      45.415   3.951  13.259  0.00  0.00    +0.000 A 
ATOM      5  C   UNL     1      44.848   5.105  12.711  0.00  0.00    +0.000 A 
ATOM      6  C   UNL     1      45.655   6.253  12.615  0.00  0.00    +0.000 A 
ENDROOT
BRANCH   1   8
ATOM      7  C   UNL     1      46.696   8.774  13.153  0.00  0.00    +0.000 C 
ATOM      8  C   UNL     1      47.756   7.646  13.127  0.00  0.00    +0.000 C 
ATOM      9  C   UNL     1      48.654   7.701  14.391  0.00  0.00    +0.000 C 
ATOM     10  C   UNL     1      49.572   8.929  14.444  0.00  0.00    +0.000 C 
ATOM     11  C   UNL     1      50.434   9.105  13.190  0.00  0.00    +0.000 C 
ATOM     12  C   UNL     1      49.567   9.081  11.932  0.00  0.00    +0.000 C 
ATOM     13  C   UNL     1      48.660   7.851  11.869  0.00  0.00    +0.000 C 
BRANCH  11  14
ATOM     14  N   UNL     1      51.475   8.077  13.108  0.00  0.00    +0.000 NA
ATOM     15  H   UNL     1      51.632   7.646  14.017  0.00  0.00    +0.000 HD
ATOM     16  H   UNL     1      52.361   8.512  12.851  0.00  0.00    +0.000 HD
ENDBRANCH  11  14
ENDBRANCH   1   8
BRANCH   5  17
ATOM     17  C   UNL     1      43.384   5.119  12.293  0.00  0.00    +0.000 C 
BRANCH  17  18
ATOM     18  C   UNL     1      43.128   4.447  10.936  0.00  0.00    +0.000 C 
BRANCH  18  19
ATOM     19  N   UNL     1      43.918   5.005   9.834  0.00  0.00    +0.000 N 
ATOM     20  C   UNL     1      44.709   3.995   9.231  0.00  0.00    +0.000 A 
ATOM     21  C   UNL     1      45.554   4.306   8.157  0.00  0.00    +0.000 A 
ATOM     22  N   UNL     1      46.349   3.402   7.516  0.00  0.00    +0.000 NA
ATOM     23  C   UNL     1      46.252   2.130   7.995  0.00  0.00    +0.000 A 
ATOM     24  C   UNL     1      45.417   1.798   9.046  0.00  0.00    +0.000 A 
ATOM     25  N   UNL     1      44.638   2.716   9.672  0.00  0.00    +0.000 NA
ATOM     26  H   UNL     1      44.534   5.749  10.153  0.00  0.00    +0.000 HD
BRANCH  23  27
ATOM     27  C   UNL     1      47.083   1.070   7.363  0.00  0.00    +0.000 C 
ATOM     28  N   UNL     1      46.740  -0.221   7.653  0.00  0.00    +0.000 N 
ATOM     29  O   UNL     1      48.025   1.332   6.620  0.00  0.00    +0.000 OA
ATOM     30  H   UNL     1      45.965  -0.418   8.278  0.00  0.00    +0.000 HD
ATOM     31  H   UNL     1      47.280  -0.975   7.254  0.00  0.00    +0.000 HD
ENDBRANCH  23  27
ENDBRANCH  18  19
ENDBRANCH  17  18
ENDBRANCH   5  17
TORSDOF 6
ENDMDL
MODEL 2
REMARK VINA RESULT:    -7.678      1.607      2.214
REMARK INTER + INTRA:         -11.162
REMARK INTER:                 -10.294
REMARK INTRA:                  -0.868
REMARK UNBOUND:                -1.016
REMARK  Name = 
REMARK  7 active torsions:
REMARK  status: ('A' for Active; 'I' for Inactive)
REMARK    1  A    between atoms: C_1  and  C_2
REMARK    2  A    between atoms: C_2  and  C_3
REMARK    3  A    between atoms: C_7  and  C_8
REMARK    4  A    between atoms: C_8  and  C_9
REMARK    5  A    between atoms: C_9  and  N_10
REMARK    6  A    between atoms: C_14  and  C_15
REMARK    7  A    between atoms: C_23  and  N_24
REMARK                            x       y       z     vdW  Elec       q    Type
REMARK                         _______ _______ _______ _____ _____    ______ ____
ROOT
ATOM      1  C   UNL     1      47.201   6.677  13.051  0.00  0.00    +0.000 A 
ATOM      2  C   UNL     1      47.481   5.578  13.877  0.00  0.00    +0.000 A 
ATOM      3  C   UNL     1      46.548   4.550  14.050  0.00  0.00    +0.000 A 
ATOM      4  C   UNL     1      45.307   4.602  13.411  0.00  0.00    +0.000 A 
ATOM      5  C   UNL     1      44.992   5.676  12.575  0.00  0.00    +0.000 A 
ATOM      6  C   UNL     1      45.965   6.676  12.391  0.00  0.00    +0.000 A 
ENDROOT
BRANCH   1   8
ATOM      7  C   UNL     1      49.596   7.292  12.902  0.00  0.00    +0.000 C 
ATOM      8  C   UNL     1      48.166   7.883  12.951  0.00  0.00    +0.000 C 
ATOM      9  C   UNL     1      47.861   8.699  11.667  0.00  0.00    +0.000 C 
ATOM     10  C   UNL     1      48.680   9.991  11.546  0.00  0.00    +0.000 C 
ATOM     11  C   UNL     1      48.575  10.901  12.774  0.00  0.00    +0.000 C 
ATOM     12  C   UNL     1      48.898  10.125  14.050  0.00  0.00    +0.000 C 
ATOM     13  C   UNL     1      48.073   8.843  14.181  0.00  0.00    +0.000 C 
BRANCH  11  14
ATOM     14  N   UNL     1      47.247  11.512  12.875  0.00  0.00    +0.000 NA
ATOM     15  H   UNL     1      46.516  10.810  12.773  0.00  0.00    +0.000 HD
ATOM     16  H   UNL     1      47.114  12.165  12.103  0.00  0.00    +0.000 HD
ENDBRANCH  11  14
ENDBRANCH   1   8
BRANCH   5  17
ATOM     17  C   UNL     1      43.612   5.779  11.941  0.00  0.00    +0.000 C 
BRANCH  17  18
ATOM     18  C   UNL     1      43.526   5.120  10.555  0.00  0.00    +0.000 C 
BRANCH  18  19
ATOM     19  N   UNL     1      43.820   3.684  10.557  0.00  0.00    +0.000 N 
ATOM     20  C   UNL     1      44.733   3.366   9.519  0.00  0.00    +0.000 A 
ATOM     21  C   UNL     1      45.151   2.041   9.327  0.00  0.00    +0.000 A 
ATOM     22  N   UNL     1      46.024   1.643   8.358  0.00  0.00    +0.000 NA
ATOM     23  C   UNL     1      46.490   2.653   7.572  0.00  0.00    +0.000 A 
ATOM     24  C   UNL     1      46.100   3.968   7.750  0.00  0.00    +0.000 A 
ATOM     25  N   UNL     1      45.226   4.341   8.719  0.00  0.00    +0.000 NA
ATOM     26  H   UNL     1      42.978   3.128  10.427  0.00  0.00    +0.000 HD
BRANCH  23  27
ATOM     27  C   UNL     1      47.447   2.319   6.483  0.00  0.00    +0.000 C 
ATOM     28  N   UNL     1      47.538   3.221   5.459  0.00  0.00    +0.000 N 
ATOM     29  O   UNL     1      48.122   1.293   6.496  0.00  0.00    +0.000 OA
ATOM     30  H   UNL     1      46.963   4.057   5.460  0.00  0.00    +0.000 HD
ATOM     31  H   UNL     1      48.167   3.032   4.693  0.00  0.00    +0.000 HD
ENDBRANCH  23  27
ENDBRANCH  18  19
ENDBRANCH  17  18
ENDBRANCH   5  17
TORSDOF 6
ENDMDL
MODEL 3
REMARK VINA RESULT:    -7.285      3.605      7.535
REMARK INTER + INTRA:         -10.643
REMARK INTER:                  -9.450
REMARK INTRA:                  -1.193
REMARK UNBOUND:                -1.016
REMARK  Name = 
REMARK  7 active torsions:
REMARK  status: ('A' for Active; 'I' for Inactive)
REMARK    1  A    between atoms: C_1  and  C_2
REMARK    2  A    between atoms: C_2  and  C_3
REMARK    3  A    between atoms: C_7  and  C_8
REMARK    4  A    between atoms: C_8  and  C_9
REMARK    5  A    between atoms: C_9  and  N_10
REMARK    6  A    between atoms: C_14  and  C_15
REMARK    7  A    between atoms: C_23  and  N_24
REMARK                            x       y       z     vdW  Elec       q    Type
REMARK                         _______ _______ _______ _____ _____    ______ ____
ROOT
ATOM      1  C   UNL     1      45.223   7.579  11.699  0.00  0.00    +0.000 A 
ATOM      2  C   UNL     1      44.539   8.796  11.555  0.00  0.00    +0.000 A 
ATOM      3  C   UNL     1      45.200  10.018  11.718  0.00  0.00    +0.000 A 
ATOM      4  C   UNL     1      46.558  10.054  12.043  0.00  0.00    +0.000 A 
ATOM      5  C   UNL     1      47.276   8.864  12.189  0.00  0.00    +0.000 A 
ATOM      6  C   UNL     1      46.593   7.652  11.982  0.00  0.00    +0.000 A 
ENDROOT
BRANCH   1   8
ATOM      7  C   UNL     1      43.078   6.514  11.067  0.00  0.00    +0.000 C 
ATOM      8  C   UNL     1      44.482   6.221  11.651  0.00  0.00    +0.000 C 
ATOM      9  C   UNL     1      45.259   5.226  10.749  0.00  0.00    +0.000 C 
ATOM     10  C   UNL     1      44.673   3.809  10.743  0.00  0.00    +0.000 C 
ATOM     11  C   UNL     1      44.499   3.210  12.142  0.00  0.00    +0.000 C 
ATOM     12  C   UNL     1      43.711   4.162  13.042  0.00  0.00    +0.000 C 
ATOM     13  C   UNL     1      44.302   5.573  13.062  0.00  0.00    +0.000 C 
BRANCH  11  14
ATOM     14  N   UNL     1      45.792   2.891  12.752  0.00  0.00    +0.000 NA
ATOM     15  H   UNL     1      46.189   3.709  13.210  0.00  0.00    +0.000 HD
ATOM     16  H   UNL     1      46.456   2.633  12.022  0.00  0.00    +0.000 HD
ENDBRANCH  11  14
ENDBRANCH   1   8
BRANCH   5  17
ATOM     17  C   UNL     1      48.736   8.896  12.622  0.00  0.00    +0.000 C 
BRANCH  17  18
ATOM     18  C   UNL     1      49.262   7.532  13.098  0.00  0.00    +0.000 C 
BRANCH  18  19
ATOM     19  N   UNL     1      49.818   7.547  14.454  0.00  0.00    +0.000 N 
ATOM     20  C   UNL     1      49.201   6.549  15.251  0.00  0.00    +0.000 A 
ATOM     21  C   UNL     1      49.573   6.387  16.593  0.00  0.00    +0.000 A 
ATOM     22  N   UNL     1      49.037   5.456  17.433  0.00  0.00    +0.000 NA
ATOM     23  C   UNL     1      48.095   4.657  16.858  0.00  0.00    +0.000 A 
ATOM     24  C   UNL     1      47.720   4.791  15.534  0.00  0.00    +0.000 A 
ATOM     25  N   UNL     1      48.265   5.729  14.717  0.00  0.00    +0.000 NA
ATOM     26  H   UNL     1      49.683   8.448  14.906  0.00  0.00    +0.000 HD
BRANCH  23  27
ATOM     27  C   UNL     1      47.447   3.611  17.695  0.00  0.00    +0.000 C 
ATOM     28  N   UNL     1      48.068   3.309  18.875  0.00  0.00    +0.000 N 
ATOM     29  O   UNL     1      46.412   3.046  17.352  0.00  0.00    +0.000 OA
ATOM     30  H   UNL     1      48.929   3.777  19.136  0.00  0.00    +0.000 HD
ATOM     31  H   UNL     1      47.670   2.599  19.472  0.00  0.00    +0.000 HD
ENDBRANCH  23  27
ENDBRANCH  18  19
ENDBRANCH  17  18
ENDBRANCH   5  17
TORSDOF 6
ENDMDL
MODEL 4
REMARK VINA RESULT:    -7.214      1.581      2.565
REMARK INTER + INTRA:         -10.550
REMARK INTER:                  -9.740
REMARK INTRA:                  -0.810
REMARK UNBOUND:                -1.016
REMARK  Name = 
REMARK  7 active torsions:
REMARK  status: ('A' for Active; 'I' for Inactive)
REMARK    1  A    between atoms: C_1  and  C_2
REMARK    2  A    between atoms: C_2  and  C_3
REMARK    3  A    between atoms: C_7  and  C_8
REMARK    4  A    between atoms: C_8  and  C_9
REMARK    5  A    between atoms: C_9  and  N_10
REMARK    6  A    between atoms: C_14  and  C_15
REMARK    7  A    between atoms: C_23  and  N_24
REMARK                            x       y       z     vdW  Elec       q    Type
REMARK                         _______ _______ _______ _____ _____    ______ ____
ROOT
ATOM      1  C   UNL     1      46.564   8.711  12.095  0.00  0.00    +0.000 A 
ATOM      2  C   UNL     1      45.693   9.670  11.555  0.00  0.00    +0.000 A 
ATOM      3  C   UNL     1      44.381   9.336  11.205  0.00  0.00    +0.000 A 
ATOM      4  C   UNL     1      43.911   8.031  11.374  0.00  0.00    +0.000 A 
ATOM      5  C   UNL     1      44.744   7.049  11.913  0.00  0.00    +0.000 A 
ATOM      6  C   UNL     1      46.047   7.424  12.291  0.00  0.00    +0.000 A 
ENDROOT
BRANCH   1   8
ATOM      7  C   UNL     1      48.383  10.299  11.541  0.00  0.00    +0.000 C 
ATOM      8  C   UNL     1      48.054   9.030  12.365  0.00  0.00    +0.000 C 
ATOM      9  C   UNL     1      48.276   9.281  13.880  0.00  0.00    +0.000 C 
ATOM     10  C   UNL     1      49.747   9.477  14.266  0.00  0.00    +0.000 C 
ATOM     11  C   UNL     1      50.662   8.344  13.792  0.00  0.00    +0.000 C 
ATOM     12  C   UNL     1      50.482   8.096  12.295  0.00  0.00    +0.000 C 
ATOM     13  C   UNL     1      49.017   7.886  11.908  0.00  0.00    +0.000 C 
BRANCH  11  14
ATOM     14  N   UNL     1      50.418   7.110  14.543  0.00  0.00    +0.000 NA
ATOM     15  H   UNL     1      51.290   6.613  14.717  0.00  0.00    +0.000 HD
ATOM     16  H   UNL     1      49.848   6.478  13.981  0.00  0.00    +0.000 HD
ENDBRANCH  11  14
ENDBRANCH   1   8
BRANCH   5  17
ATOM     17  C   UNL     1      44.264   5.608  12.025  0.00  0.00    +0.000 C 
BRANCH  17  18
ATOM     18  C   UNL     1      43.674   5.058  10.717  0.00  0.00    +0.000 C 
BRANCH  18  19
ATOM     19  N   UNL     1      43.824   3.608  10.557  0.00  0.00    +0.000 N 
ATOM     20  C   UNL     1      44.735   3.318   9.510  0.00  0.00    +0.000 A 
ATOM     21  C   UNL     1      45.025   1.988   9.174  0.00  0.00    +0.000 A 
ATOM     22  N   UNL     1      45.887   1.615   8.186  0.00  0.00    +0.000 NA
ATOM     23  C   UNL     1      46.478   2.654   7.534  0.00  0.00    +0.000 A 
ATOM     24  C   UNL     1      46.216   3.974   7.855  0.00  0.00    +0.000 A 
ATOM     25  N   UNL     1      45.350   4.322   8.841  0.00  0.00    +0.000 NA
ATOM     26  H   UNL     1      42.936   3.160  10.345  0.00  0.00    +0.000 HD
BRANCH  23  27
ATOM     27  C   UNL     1      47.434   2.350   6.434  0.00  0.00    +0.000 C 
ATOM     28  N   UNL     1      47.287   3.078   5.286  0.00  0.00    +0.000 N 
ATOM     29  O   UNL     1      48.309   1.495   6.545  0.00  0.00    +0.000 OA
ATOM     30  H   UNL     1      46.551   3.771   5.209  0.00  0.00    +0.000 HD
ATOM     31  H   UNL     1      47.907   2.900   4.510  0.00  0.00    +0.000 HD
ENDBRANCH  23  27
ENDBRANCH  18  19
ENDBRANCH  17  18
ENDBRANCH   5  17
TORSDOF 6
ENDMDL
MODEL 5
REMARK VINA RESULT:    -7.196      1.725      2.728
REMARK INTER + INTRA:         -10.525
REMARK INTER:                  -9.641
REMARK INTRA:                  -0.885
REMARK UNBOUND:                -1.016
REMARK  Name = 
REMARK  7 active torsions:
REMARK  status: ('A' for Active; 'I' for Inactive)
REMARK    1  A    between atoms: C_1  and  C_2
REMARK    2  A    between atoms: C_2  and  C_3
REMARK    3  A    between atoms: C_7  and  C_8
REMARK    4  A    between atoms: C_8  and  C_9
REMARK    5  A    between atoms: C_9  and  N_10
REMARK    6  A    between atoms: C_14  and  C_15
REMARK    7  A    between atoms: C_23  and  N_24
REMARK                            x       y       z     vdW  Elec       q    Type
REMARK                         _______ _______ _______ _____ _____    ______ ____
ROOT
ATOM      1  C   UNL     1      46.562   7.225  13.034  0.00  0.00    +0.000 A 
ATOM      2  C   UNL     1      46.057   8.208  12.169  0.00  0.00    +0.000 A 
ATOM      3  C   UNL     1      44.917   7.969  11.394  0.00  0.00    +0.000 A 
ATOM      4  C   UNL     1      44.262   6.736  11.456  0.00  0.00    +0.000 A 
ATOM      5  C   UNL     1      44.730   5.734  12.309  0.00  0.00    +0.000 A 
ATOM      6  C   UNL     1      45.856   6.018  13.103  0.00  0.00    +0.000 A 
ENDROOT
BRANCH   1   8
ATOM      7  C   UNL     1      49.023   7.266  12.750  0.00  0.00    +0.000 C 
ATOM      8  C   UNL     1      47.893   7.425  13.798  0.00  0.00    +0.000 C 
ATOM      9  C   UNL     1      47.930   8.837  14.438  0.00  0.00    +0.000 C 
ATOM     10  C   UNL     1      49.155   9.083  15.327  0.00  0.00    +0.000 C 
ATOM     11  C   UNL     1      49.350   8.018  16.412  0.00  0.00    +0.000 C 
ATOM     12  C   UNL     1      49.345   6.618  15.801  0.00  0.00    +0.000 C 
ATOM     13  C   UNL     1      48.117   6.365  14.925  0.00  0.00    +0.000 C 
BRANCH  11  14
ATOM     14  N   UNL     1      48.322   8.120  17.451  0.00  0.00    +0.000 NA
ATOM     15  H   UNL     1      47.814   7.243  17.547  0.00  0.00    +0.000 HD
ATOM     16  H   UNL     1      47.627   8.814  17.174  0.00  0.00    +0.000 HD
ENDBRANCH  11  14
ENDBRANCH   1   8
BRANCH   5  17
ATOM     17  C   UNL     1      44.069   4.362  12.321  0.00  0.00    +0.000 C 
BRANCH  17  18
ATOM     18  C   UNL     1      43.532   3.931  10.947  0.00  0.00    +0.000 C 
BRANCH  18  19
ATOM     19  N   UNL     1      43.900   2.565  10.564  0.00  0.00    +0.000 N 
ATOM     20  C   UNL     1      44.805   2.584   9.473  0.00  0.00    +0.000 A 
ATOM     21  C   UNL     1      45.287   1.384   8.932  0.00  0.00    +0.000 A 
ATOM     22  N   UNL     1      46.158   1.306   7.886  0.00  0.00    +0.000 NA
ATOM     23  C   UNL     1      46.555   2.513   7.395  0.00  0.00    +0.000 A 
ATOM     24  C   UNL     1      46.102   3.709   7.919  0.00  0.00    +0.000 A 
ATOM     25  N   UNL     1      45.230   3.763   8.958  0.00  0.00    +0.000 NA
ATOM     26  H   UNL     1      43.085   2.017  10.296  0.00  0.00    +0.000 HD
BRANCH  23  27
ATOM     27  C   UNL     1      47.504   2.534   6.249  0.00  0.00    +0.000 C 
ATOM     28  N   UNL     1      47.215   3.408   5.239  0.00  0.00    +0.000 N 
ATOM     29  O   UNL     1      48.496   1.810   6.207  0.00  0.00    +0.000 OA
ATOM     30  H   UNL     1      46.385   3.990   5.286  0.00  0.00    +0.000 HD
ATOM     31  H   UNL     1      47.826   3.451   4.437  0.00  0.00    +0.000 HD
ENDBRANCH  23  27
ENDBRANCH  18  19
ENDBRANCH  17  18
ENDBRANCH   5  17
TORSDOF 6
ENDMDL
MODEL 6
REMARK VINA RESULT:    -6.773      3.186      5.341
REMARK INTER + INTRA:          -9.966
REMARK INTER:                  -9.157
REMARK INTRA:                  -0.810
REMARK UNBOUND:                -1.016
REMARK  Name = 
REMARK  7 active torsions:
REMARK  status: ('A' for Active; 'I' for Inactive)
REMARK    1  A    between atoms: C_1  and  C_2
REMARK    2  A    between atoms: C_2  and  C_3
REMARK    3  A    between atoms: C_7  and  C_8
REMARK    4  A    between atoms: C_8  and  C_9
REMARK    5  A    between atoms: C_9  and  N_10
REMARK    6  A    between atoms: C_14  and  C_15
REMARK    7  A    between atoms: C_23  and  N_24
REMARK                            x       y       z     vdW  Elec       q    Type
REMARK                         _______ _______ _______ _____ _____    ______ ____
ROOT
ATOM      1  C   UNL     1      49.148   6.663  15.575  0.00  0.00    +0.000 A 
ATOM      2  C   UNL     1      50.441   7.182  15.402  0.00  0.00    +0.000 A 
ATOM      3  C   UNL     1      50.723   8.086  14.372  0.00  0.00    +0.000 A 
ATOM      4  C   UNL     1      49.722   8.483  13.481  0.00  0.00    +0.000 A 
ATOM      5  C   UNL     1      48.422   7.994  13.623  0.00  0.00    +0.000 A 
ATOM      6  C   UNL     1      48.160   7.116  14.691  0.00  0.00    +0.000 A 
ENDROOT
BRANCH   1   8
ATOM      7  C   UNL     1      48.336   6.301  17.887  0.00  0.00    +0.000 C 
ATOM      8  C   UNL     1      48.849   5.566  16.624  0.00  0.00    +0.000 C 
ATOM      9  C   UNL     1      47.773   4.591  16.077  0.00  0.00    +0.000 C 
ATOM     10  C   UNL     1      47.502   3.391  16.993  0.00  0.00    +0.000 C 
ATOM     11  C   UNL     1      48.765   2.608  17.369  0.00  0.00    +0.000 C 
ATOM     12  C   UNL     1      49.831   3.545  17.937  0.00  0.00    +0.000 C 
ATOM     13  C   UNL     1      50.113   4.736  17.019  0.00  0.00    +0.000 C 
BRANCH  11  14
ATOM     14  N   UNL     1      49.298   1.871  16.222  0.00  0.00    +0.000 NA
ATOM     15  H   UNL     1      50.280   1.638  16.364  0.00  0.00    +0.000 HD
ATOM     16  H   UNL     1      49.273   2.467  15.394  0.00  0.00    +0.000 HD
ENDBRANCH  11  14
ENDBRANCH   1   8
BRANCH   5  17
ATOM     17  C   UNL     1      47.347   8.359  12.608  0.00  0.00    +0.000 C 
BRANCH  17  18
ATOM     18  C   UNL     1      45.929   8.383  13.200  0.00  0.00    +0.000 C 
BRANCH  18  19
ATOM     19  N   UNL     1      44.863   8.238  12.205  0.00  0.00    +0.000 N 
ATOM     20  C   UNL     1      44.609   6.866  11.950  0.00  0.00    +0.000 A 
ATOM     21  C   UNL     1      43.630   6.490  11.020  0.00  0.00    +0.000 A 
ATOM     22  N   UNL     1      43.316   5.199  10.712  0.00  0.00    +0.000 NA
ATOM     23  C   UNL     1      44.032   4.268  11.402  0.00  0.00    +0.000 A 
ATOM     24  C   UNL     1      44.995   4.615  12.331  0.00  0.00    +0.000 A 
ATOM     25  N   UNL     1      45.294   5.908  12.618  0.00  0.00    +0.000 NA
ATOM     26  H   UNL     1      45.106   8.689  11.326  0.00  0.00    +0.000 HD
BRANCH  23  27
ATOM     27  C   UNL     1      43.766   2.829  11.134  0.00  0.00    +0.000 C 
ATOM     28  N   UNL     1      44.490   2.257  10.124  0.00  0.00    +0.000 N 
ATOM     29  O   UNL     1      42.945   2.183  11.780  0.00  0.00    +0.000 OA
ATOM     30  H   UNL     1      45.155   2.809   9.594  0.00  0.00    +0.000 HD
ATOM     31  H   UNL     1      44.337   1.285   9.901  0.00  0.00    +0.000 HD
ENDBRANCH  23  27
ENDBRANCH  18  19
ENDBRANCH  17  18
ENDBRANCH   5  17
TORSDOF 6
ENDMDL
MODEL 7
REMARK VINA RESULT:    -6.384      3.898      7.993
REMARK INTER + INTRA:          -9.453
REMARK INTER:                  -8.354
REMARK INTRA:                  -1.100
REMARK UNBOUND:                -1.016
REMARK  Name = 
REMARK  7 active torsions:
REMARK  status: ('A' for Active; 'I' for Inactive)
REMARK    1  A    between atoms: C_1  and  C_2
REMARK    2  A    between atoms: C_2  and  C_3
REMARK    3  A    between atoms: C_7  and  C_8
REMARK    4  A    between atoms: C_8  and  C_9
REMARK    5  A    between atoms: C_9  and  N_10
REMARK    6  A    between atoms: C_14  and  C_15
REMARK    7  A    between atoms: C_23  and  N_24
REMARK                            x       y       z     vdW  Elec       q    Type
REMARK                         _______ _______ _______ _____ _____    ______ ____
ROOT
ATOM      1  C   UNL     1      47.281   7.380  12.312  0.00  0.00    +0.000 A 
ATOM      2  C   UNL     1      48.322   7.356  11.372  0.00  0.00    +0.000 A 
ATOM      3  C   UNL     1      49.503   8.075  11.584  0.00  0.00    +0.000 A 
ATOM      4  C   UNL     1      49.666   8.849  12.736  0.00  0.00    +0.000 A 
ATOM      5  C   UNL     1      48.655   8.895  13.699  0.00  0.00    +0.000 A 
ATOM      6  C   UNL     1      47.496   8.131  13.475  0.00  0.00    +0.000 A 
ENDROOT
BRANCH   1   8
ATOM      7  C   UNL     1      44.895   7.841  11.831  0.00  0.00    +0.000 C 
ATOM      8  C   UNL     1      45.920   6.698  12.034  0.00  0.00    +0.000 C 
ATOM      9  C   UNL     1      46.022   5.815  10.762  0.00  0.00    +0.000 C 
ATOM     10  C   UNL     1      44.759   4.994  10.476  0.00  0.00    +0.000 C 
ATOM     11  C   UNL     1      44.301   4.139  11.663  0.00  0.00    +0.000 C 
ATOM     12  C   UNL     1      44.167   4.994  12.923  0.00  0.00    +0.000 C 
ATOM     13  C   UNL     1      45.431   5.804  13.218  0.00  0.00    +0.000 C 
BRANCH  11  14
ATOM     14  N   UNL     1      45.219   3.023  11.903  0.00  0.00    +0.000 NA
ATOM     15  H   UNL     1      45.006   2.562  12.786  0.00  0.00    +0.000 HD
ATOM     16  H   UNL     1      46.169   3.380  11.999  0.00  0.00    +0.000 HD
ENDBRANCH  11  14
ENDBRANCH   1   8
BRANCH   5  17
ATOM     17  C   UNL     1      48.794   9.799  14.917  0.00  0.00    +0.000 C 
BRANCH  17  18
ATOM     18  C   UNL     1      49.655   9.190  16.035  0.00  0.00    +0.000 C 
BRANCH  18  19
ATOM     19  N   UNL     1      48.938   8.988  17.298  0.00  0.00    +0.000 N 
ATOM     20  C   UNL     1      48.601   7.620  17.461  0.00  0.00    +0.000 A 
ATOM     21  C   UNL     1      47.901   7.196  18.600  0.00  0.00    +0.000 A 
ATOM     22  N   UNL     1      47.536   5.905  18.842  0.00  0.00    +0.000 NA
ATOM     23  C   UNL     1      47.923   5.022  17.879  0.00  0.00    +0.000 A 
ATOM     24  C   UNL     1      48.624   5.416  16.754  0.00  0.00    +0.000 A 
ATOM     25  N   UNL     1      48.972   6.709  16.531  0.00  0.00    +0.000 NA
ATOM     26  H   UNL     1      48.082   9.537  17.336  0.00  0.00    +0.000 HD
BRANCH  23  27
ATOM     27  C   UNL     1      47.568   3.587  18.050  0.00  0.00    +0.000 C 
ATOM     28  N   UNL     1      48.265   2.901  19.005  0.00  0.00    +0.000 N 
ATOM     29  O   UNL     1      46.698   3.042  17.375  0.00  0.00    +0.000 OA
ATOM     30  H   UNL     1      48.988   3.365  19.545  0.00  0.00    +0.000 HD
ATOM     31  H   UNL     1      48.065   1.922  19.151  0.00  0.00    +0.000 HD
ENDBRANCH  23  27
ENDBRANCH  18  19
ENDBRANCH  17  18
ENDBRANCH   5  17
TORSDOF 6
ENDMDL
MODEL 8
REMARK VINA RESULT:    -6.293      4.074      8.358
REMARK INTER + INTRA:          -9.332
REMARK INTER:                  -8.481
REMARK INTRA:                  -0.851
REMARK UNBOUND:                -1.016
REMARK  Name = 
REMARK  7 active torsions:
REMARK  status: ('A' for Active; 'I' for Inactive)
REMARK    1  A    between atoms: C_1  and  C_2
REMARK    2  A    between atoms: C_2  and  C_3
REMARK    3  A    between atoms: C_7  and  C_8
REMARK    4  A    between atoms: C_8  and  C_9
REMARK    5  A    between atoms: C_9  and  N_10
REMARK    6  A    between atoms: C_14  and  C_15
REMARK    7  A    between atoms: C_23  and  N_24
REMARK                            x       y       z     vdW  Elec       q    Type
REMARK                         _______ _______ _______ _____ _____    ______ ____
ROOT
ATOM      1  C   UNL     1      45.625   7.305  11.781  0.00  0.00    +0.000 A 
ATOM      2  C   UNL     1      45.251   8.656  11.848  0.00  0.00    +0.000 A 
ATOM      3  C   UNL     1      46.205   9.659  12.051  0.00  0.00    +0.000 A 
ATOM      4  C   UNL     1      47.555   9.335  12.206  0.00  0.00    +0.000 A 
ATOM      5  C   UNL     1      47.969   8.002  12.140  0.00  0.00    +0.000 A 
ATOM      6  C   UNL     1      46.992   7.020  11.896  0.00  0.00    +0.000 A 
ENDROOT
BRANCH   1   8
ATOM      7  C   UNL     1      43.268   6.839  11.180  0.00  0.00    +0.000 C 
ATOM      8  C   UNL     1      44.572   6.176  11.688  0.00  0.00    +0.000 C 
ATOM      9  C   UNL     1      45.056   5.081  10.700  0.00  0.00    +0.000 C 
ATOM     10  C   UNL     1      44.138   3.854  10.639  0.00  0.00    +0.000 C 
ATOM     11  C   UNL     1      43.859   3.227  12.009  0.00  0.00    +0.000 C 
ATOM     12  C   UNL     1      43.354   4.282  12.992  0.00  0.00    +0.000 C 
ATOM     13  C   UNL     1      44.274   5.502  13.066  0.00  0.00    +0.000 C 
BRANCH  11  14
ATOM     14  N   UNL     1      45.049   2.563  12.546  0.00  0.00    +0.000 NA
ATOM     15  H   UNL     1      44.792   1.862  13.239  0.00  0.00    +0.000 HD
ATOM     16  H   UNL     1      45.623   3.245  13.042  0.00  0.00    +0.000 HD
ENDBRANCH  11  14
ENDBRANCH   1   8
BRANCH   5  17
ATOM     17  C   UNL     1      49.426   7.636  12.388  0.00  0.00    +0.000 C 
BRANCH  17  18
ATOM     18  C   UNL     1      49.852   7.781  13.857  0.00  0.00    +0.000 C 
BRANCH  18  19
ATOM     19  N   UNL     1      48.843   7.326  14.819  0.00  0.00    +0.000 N 
ATOM     20  C   UNL     1      49.460   6.626  15.887  0.00  0.00    +0.000 A 
ATOM     21  C   UNL     1      48.682   6.091  16.923  0.00  0.00    +0.000 A 
ATOM     22  N   UNL     1      49.186   5.405  17.989  0.00  0.00    +0.000 NA
ATOM     23  C   UNL     1      50.543   5.284  17.987  0.00  0.00    +0.000 A 
ATOM     24  C   UNL     1      51.331   5.813  16.982  0.00  0.00    +0.000 A 
ATOM     25  N   UNL     1      50.806   6.488  15.927  0.00  0.00    +0.000 NA
ATOM     26  H   UNL     1      48.159   6.711  14.383  0.00  0.00    +0.000 HD
BRANCH  23  27
ATOM     27  C   UNL     1      51.190   4.549  19.107  0.00  0.00    +0.000 C 
ATOM     28  N   UNL     1      50.511   4.534  20.294  0.00  0.00    +0.000 N 
ATOM     29  O   UNL     1      52.273   3.983  18.981  0.00  0.00    +0.000 OA
ATOM     30  H   UNL     1      49.623   5.016  20.383  0.00  0.00    +0.000 HD
ATOM     31  H   UNL     1      50.915   4.054  21.085  0.00  0.00    +0.000 HD
ENDBRANCH  23  27
ENDBRANCH  18  19
ENDBRANCH  17  18
ENDBRANCH   5  17
TORSDOF 6
ENDMDL
MODEL 9
REMARK VINA RESULT:    -6.280      5.231      8.502
REMARK INTER + INTRA:          -9.315
REMARK INTER:                  -8.587
REMARK INTRA:                  -0.728
REMARK UNBOUND:                -1.016
REMARK  Name = 
REMARK  7 active torsions:
REMARK  status: ('A' for Active; 'I' for Inactive)
REMARK    1  A    between atoms: C_1  and  C_2
REMARK    2  A    between atoms: C_2  and  C_3
REMARK    3  A    between atoms: C_7  and  C_8
REMARK    4  A    between atoms: C_8  and  C_9
REMARK    5  A    between atoms: C_9  and  N_10
REMARK    6  A    between atoms: C_14  and  C_15
REMARK    7  A    between atoms: C_23  and  N_24
REMARK                            x       y       z     vdW  Elec       q    Type
REMARK                         _______ _______ _______ _____ _____    ______ ____
ROOT
ATOM      1  C   UNL     1      46.836   5.461  13.248  0.00  0.00    +0.000 A 
ATOM      2  C   UNL     1      47.690   6.363  12.594  0.00  0.00    +0.000 A 
ATOM      3  C   UNL     1      48.738   6.987  13.278  0.00  0.00    +0.000 A 
ATOM      4  C   UNL     1      48.951   6.735  14.635  0.00  0.00    +0.000 A 
ATOM      5  C   UNL     1      48.127   5.839  15.321  0.00  0.00    +0.000 A 
ATOM      6  C   UNL     1      47.105   5.198  14.597  0.00  0.00    +0.000 A 
ENDROOT
BRANCH   1   8
ATOM      7  C   UNL     1      45.789   3.327  12.551  0.00  0.00    +0.000 C 
ATOM      8  C   UNL     1      45.595   4.863  12.543  0.00  0.00    +0.000 C 
ATOM      9  C   UNL     1      44.307   5.261  13.312  0.00  0.00    +0.000 C 
ATOM     10  C   UNL     1      43.012   4.824  12.617  0.00  0.00    +0.000 C 
ATOM     11  C   UNL     1      42.908   5.291  11.161  0.00  0.00    +0.000 C 
ATOM     12  C   UNL     1      44.155   4.886  10.376  0.00  0.00    +0.000 C 
ATOM     13  C   UNL     1      45.449   5.332  11.059  0.00  0.00    +0.000 C 
BRANCH  11  14
ATOM     14  N   UNL     1      42.705   6.739  11.077  0.00  0.00    +0.000 NA
ATOM     15  H   UNL     1      42.312   7.102  11.944  0.00  0.00    +0.000 HD
ATOM     16  H   UNL     1      42.015   6.943  10.354  0.00  0.00    +0.000 HD
ENDBRANCH  11  14
ENDBRANCH   1   8
BRANCH   5  17
ATOM     17  C   UNL     1      48.304   5.621  16.817  0.00  0.00    +0.000 C 
BRANCH  17  18
ATOM     18  C   UNL     1      49.134   4.374  17.160  0.00  0.00    +0.000 C 
BRANCH  18  19
ATOM     19  N   UNL     1      50.490   4.670  17.630  0.00  0.00    +0.000 N 
ATOM     20  C   UNL     1      51.279   3.491  17.636  0.00  0.00    +0.000 A 
ATOM     21  C   UNL     1      52.615   3.537  18.059  0.00  0.00    +0.000 A 
ATOM     22  N   UNL     1      53.447   2.457  18.097  0.00  0.00    +0.000 NA
ATOM     23  C   UNL     1      52.880   1.296  17.668  0.00  0.00    +0.000 A 
ATOM     24  C   UNL     1      51.568   1.229  17.235  0.00  0.00    +0.000 A 
ATOM     25  N   UNL     1      50.756   2.317  17.211  0.00  0.00    +0.000 NA
ATOM     26  H   UNL     1      50.486   5.059  18.570  0.00  0.00    +0.000 HD
BRANCH  23  27
ATOM     27  C   UNL     1      53.707   0.059  17.674  0.00  0.00    +0.000 C 
ATOM     28  N   UNL     1      53.819  -0.588  18.874  0.00  0.00    +0.000 N 
ATOM     29  O   UNL     1      54.260  -0.365  16.662  0.00  0.00    +0.000 OA
ATOM     30  H   UNL     1      53.365  -0.217  19.701  0.00  0.00    +0.000 HD
ATOM     31  H   UNL     1      54.378  -1.427  18.928  0.00  0.00    +0.000 HD
ENDBRANCH  23  27
ENDBRANCH  18  19
ENDBRANCH  17  18
ENDBRANCH   5  17
TORSDOF 6
ENDMDL
