MODEL 1
REMARK VINA RESULT:    -7.577      0.000      0.000
REMARK INTER + INTRA:          -8.418
REMARK INTER:                  -8.905
REMARK INTRA:                   0.487
REMARK UNBOUND:                 0.487
REMARK  Name = 
REMARK  5 active torsions:
REMARK  status: ('A' for Active; 'I' for Inactive)
REMARK    1  A    between atoms: C_1  and  C_2
REMARK    2  A    between atoms: C_2  and  C_3
REMARK    3  A    between atoms: C_2  and  N_4
REMARK    4  A    between atoms: C_2  and  C_14
REMARK    5  A    between atoms: C_8  and  C_9
REMARK                            x       y       z     vdW  Elec       q    Type
REMARK                         _______ _______ _______ _____ _____    ______ ____
ROOT
ATOM      1  N   UNL     1      43.804   4.854   9.876  0.00  0.00    +0.000 N 
ATOM      2  C   UNL     1      44.625   3.906   9.249  0.00  0.00    +0.000 A 
ATOM      3  C   UNL     1      44.908   4.003   7.877  0.00  0.00    +0.000 A 
ATOM      4  N   UNL     1      45.675   3.116   7.177  0.00  0.00    +0.000 NA
ATOM      5  C   UNL     1      46.163   2.088   7.924  0.00  0.00    +0.000 A 
ATOM      6  C   UNL     1      45.890   1.966   9.271  0.00  0.00    +0.000 A 
ATOM      7  N   UNL     1      45.115   2.860   9.940  0.00  0.00    +0.000 NA
ATOM      8  H   UNL     1      44.140   5.790   9.663  0.00  0.00    +0.000 HD
ENDROOT
BRANCH   5   9
ATOM      9  C   UNL     1      47.004   1.056   7.260  0.00  0.00    +0.000 C 
ATOM     10  N   UNL     1      46.771  -0.240   7.629  0.00  0.00    +0.000 N 
ATOM     11  O   UNL     1      47.863   1.344   6.436  0.00  0.00    +0.000 OA
ATOM     12  H   UNL     1      46.075  -0.453   8.333  0.00  0.00    +0.000 HD
ATOM     13  H   UNL     1      47.340  -0.974   7.232  0.00  0.00    +0.000 HD
ENDBRANCH   5   9
BRANCH   1  15
ATOM     14  C   UNL     1      42.322   5.667  11.725  0.00  0.00    +0.000 C 
ATOM     15  C   UNL     1      43.480   4.730  11.322  0.00  0.00    +0.000 C 
ATOM     16  C   UNL     1      43.153   3.255  11.656  0.00  0.00    +0.000 C 
BRANCH  15  17
ATOM     17  C   UNL     1      44.709   5.224  12.142  0.00  0.00    +0.000 A 
ATOM     18  C   UNL     1      45.396   6.409  11.800  0.00  0.00    +0.000 A 
ATOM     19  C   UNL     1      46.564   6.792  12.465  0.00  0.00    +0.000 A 
ATOM     20  C   UNL     1      47.064   5.997  13.484  0.00  0.00    +0.000 A 
ATOM     21  F   UNL     1      48.194   6.355  14.107  0.00  0.00    +0.000 F 
ATOM     22  C   UNL     1      46.417   4.825  13.848  0.00  0.00    +0.000 A 
ATOM     23  C   UNL     1      45.251   4.437  13.179  0.00  0.00    +0.000 A 
ENDBRANCH  15  17
ENDBRANCH   1  15
TORSDOF 3
ENDMDL
MODEL 2
REMARK VINA RESULT:    -7.018      3.899      6.320
REMARK INTER + INTRA:          -7.762
REMARK INTER:                  -8.445
REMARK INTRA:                   0.684
REMARK UNBOUND:                 0.487
REMARK  Name = 
REMARK  5 active torsions:
REMARK  status: ('A' for Active; 'I' for Inactive)
REMARK    1  A    between atoms: C_1  and  C_2
REMARK    2  A    between atoms: C_2  and  C_3
REMARK    3  A    between atoms: C_2  and  N_4
REMARK    4  A    between atoms: C_2  and  C_14
REMARK    5  A    between atoms: C_8  and  C_9
REMARK                            x       y       z     vdW  Elec       q    Type
REMARK                         _______ _______ _______ _____ _____    ______ ____
ROOT
ATOM      1  N   UNL     1      45.197   3.279  12.552  0.00  0.00    +0.000 N 
ATOM      2  C   UNL     1      46.081   4.249  13.043  0.00  0.00    +0.000 A 
ATOM      3  C   UNL     1      46.971   3.941  14.085  0.00  0.00    +0.000 A 
ATOM      4  N   UNL     1      47.849   4.825  14.643  0.00  0.00    +0.000 NA
ATOM      5  C   UNL     1      47.803   6.075  14.107  0.00  0.00    +0.000 A 
ATOM      6  C   UNL     1      46.930   6.403  13.089  0.00  0.00    +0.000 A 
ATOM      7  N   UNL     1      46.059   5.505  12.558  0.00  0.00    +0.000 NA
ATOM      8  H   UNL     1      45.712   2.433  12.321  0.00  0.00    +0.000 HD
ENDROOT
BRANCH   5   9
ATOM      9  C   UNL     1      48.712   7.121  14.646  0.00  0.00    +0.000 C 
ATOM     10  N   UNL     1      48.109   8.187  15.255  0.00  0.00    +0.000 N 
ATOM     11  O   UNL     1      49.930   7.043  14.548  0.00  0.00    +0.000 OA
ATOM     12  H   UNL     1      47.099   8.245  15.300  0.00  0.00    +0.000 HD
ATOM     13  H   UNL     1      48.682   8.941  15.607  0.00  0.00    +0.000 HD
ENDBRANCH   5   9
BRANCH   1  15
ATOM     14  C   UNL     1      43.089   2.585  11.387  0.00  0.00    +0.000 C 
ATOM     15  C   UNL     1      44.233   3.618  11.471  0.00  0.00    +0.000 C 
ATOM     16  C   UNL     1      43.686   5.048  11.692  0.00  0.00    +0.000 C 
BRANCH  15  17
ATOM     17  C   UNL     1      44.976   3.514  10.106  0.00  0.00    +0.000 A 
ATOM     18  C   UNL     1      45.367   4.666   9.389  0.00  0.00    +0.000 A 
ATOM     19  C   UNL     1      45.932   4.575   8.114  0.00  0.00    +0.000 A 
ATOM     20  C   UNL     1      46.115   3.330   7.534  0.00  0.00    +0.000 A 
ATOM     21  F   UNL     1      46.638   3.245   6.304  0.00  0.00    +0.000 F 
ATOM     22  C   UNL     1      45.743   2.175   8.207  0.00  0.00    +0.000 A 
ATOM     23  C   UNL     1      45.172   2.265   9.481  0.00  0.00    +0.000 A 
ENDBRANCH  15  17
ENDBRANCH   1  15
TORSDOF 3
ENDMDL
MODEL 3
REMARK VINA RESULT:    -6.937      4.236      6.627
REMARK INTER + INTRA:          -7.666
REMARK INTER:                  -8.771
REMARK INTRA:                   1.105
REMARK UNBOUND:                 0.487
REMARK  Name = 
REMARK  5 active torsions:
REMARK  status: ('A' for Active; 'I' for Inactive)
REMARK    1  A    between atoms: C_1  and  C_2
REMARK    2  A    between atoms: C_2  and  C_3
REMARK    3  A    between atoms: C_2  and  N_4
REMARK    4  A    between atoms: C_2  and  C_14
REMARK    5  A    between atoms: C_8  and  C_9
REMARK                            x       y       z     vdW  Elec       q    Type
REMARK                         _______ _______ _______ _____ _____    ______ ____
ROOT
ATOM      1  N   UNL     1      45.755   5.401  11.517  0.00  0.00    +0.000 N 
ATOM      2  C   UNL     1      46.341   5.296  12.786  0.00  0.00    +0.000 A 
ATOM      3  C   UNL     1      47.364   6.175  13.175  0.00  0.00    +0.000 A 
ATOM      4  N   UNL     1      48.009   6.133  14.378  0.00  0.00    +0.000 NA
ATOM      5  C   UNL     1      47.583   5.142  15.207  0.00  0.00    +0.000 A 
ATOM      6  C   UNL     1      46.585   4.260  14.843  0.00  0.00    +0.000 A 
ATOM      7  N   UNL     1      45.967   4.320  13.634  0.00  0.00    +0.000 NA
ATOM      8  H   UNL     1      45.458   6.361  11.357  0.00  0.00    +0.000 HD
ENDROOT
BRANCH   5   9
ATOM      9  C   UNL     1      48.224   4.998  16.542  0.00  0.00    +0.000 C 
ATOM     10  N   UNL     1      47.415   5.207  17.624  0.00  0.00    +0.000 N 
ATOM     11  O   UNL     1      49.409   4.717  16.671  0.00  0.00    +0.000 OA
ATOM     12  H   UNL     1      46.445   5.466  17.494  0.00  0.00    +0.000 HD
ATOM     13  H   UNL     1      47.812   5.154  18.552  0.00  0.00    +0.000 HD
ENDBRANCH   5   9
BRANCH   1  15
ATOM     14  C   UNL     1      44.540   3.290  12.104  0.00  0.00    +0.000 C 
ATOM     15  C   UNL     1      44.694   4.448  11.096  0.00  0.00    +0.000 C 
ATOM     16  C   UNL     1      43.360   5.208  10.903  0.00  0.00    +0.000 C 
BRANCH  15  17
ATOM     17  C   UNL     1      45.143   3.773   9.767  0.00  0.00    +0.000 A 
ATOM     18  C   UNL     1      45.150   2.369   9.616  0.00  0.00    +0.000 A 
ATOM     19  C   UNL     1      45.658   1.762   8.465  0.00  0.00    +0.000 A 
ATOM     20  C   UNL     1      46.169   2.548   7.445  0.00  0.00    +0.000 A 
ATOM     21  F   UNL     1      46.674   1.963   6.350  0.00  0.00    +0.000 F 
ATOM     22  C   UNL     1      46.180   3.931   7.555  0.00  0.00    +0.000 A 
ATOM     23  C   UNL     1      45.677   4.540   8.710  0.00  0.00    +0.000 A 
ENDBRANCH  15  17
ENDBRANCH   1  15
TORSDOF 3
ENDMDL
MODEL 4
REMARK VINA RESULT:    -5.782      3.764      5.574
REMARK INTER + INTRA:          -6.309
REMARK INTER:                  -6.714
REMARK INTRA:                   0.405
REMARK UNBOUND:                 0.487
REMARK  Name = 
REMARK  5 active torsions:
REMARK  status: ('A' for Active; 'I' for Inactive)
REMARK    1  A    between atoms: C_1  and  C_2
REMARK    2  A    between atoms: C_2  and  C_3
REMARK    3  A    between atoms: C_2  and  N_4
REMARK    4  A    between atoms: C_2  and  C_14
REMARK    5  A    between atoms: C_8  and  C_9
REMARK                            x       y       z     vdW  Elec       q    Type
REMARK                         _______ _______ _______ _____ _____    ______ ____
ROOT
ATOM      1  N   UNL     1      47.112   6.785  13.777  0.00  0.00    +0.000 N 
ATOM      2  C   UNL     1      46.362   5.827  13.082  0.00  0.00    +0.000 A 
ATOM      3  C   UNL     1      46.143   4.554  13.633  0.00  0.00    +0.000 A 
ATOM      4  N   UNL     1      45.447   3.552  13.020  0.00  0.00    +0.000 NA
ATOM      5  C   UNL     1      44.962   3.877  11.791  0.00  0.00    +0.000 A 
ATOM      6  C   UNL     1      45.173   5.118  11.225  0.00  0.00    +0.000 A 
ATOM      7  N   UNL     1      45.878   6.095  11.855  0.00  0.00    +0.000 NA
ATOM      8  H   UNL     1      46.752   6.880  14.723  0.00  0.00    +0.000 HD
ENDROOT
BRANCH   5   9
ATOM      9  C   UNL     1      44.195   2.855  11.029  0.00  0.00    +0.000 C 
ATOM     10  N   UNL     1      44.811   2.343   9.921  0.00  0.00    +0.000 N 
ATOM     11  O   UNL     1      43.074   2.495  11.364  0.00  0.00    +0.000 OA
ATOM     12  H   UNL     1      45.727   2.675   9.646  0.00  0.00    +0.000 HD
ATOM     13  H   UNL     1      44.317   1.671   9.350  0.00  0.00    +0.000 HD
ENDBRANCH   5   9
BRANCH   1  15
ATOM     14  C   UNL     1      48.255   8.016  11.917  0.00  0.00    +0.000 C 
ATOM     15  C   UNL     1      47.369   8.121  13.177  0.00  0.00    +0.000 C 
ATOM     16  C   UNL     1      46.024   8.816  12.863  0.00  0.00    +0.000 C 
BRANCH  15  17
ATOM     17  C   UNL     1      48.202   8.959  14.191  0.00  0.00    +0.000 A 
ATOM     18  C   UNL     1      48.381   8.538  15.527  0.00  0.00    +0.000 A 
ATOM     19  C   UNL     1      49.033   9.343  16.465  0.00  0.00    +0.000 A 
ATOM     20  C   UNL     1      49.516  10.584  16.083  0.00  0.00    +0.000 A 
ATOM     21  F   UNL     1      50.122  11.364  16.988  0.00  0.00    +0.000 F 
ATOM     22  C   UNL     1      49.359  11.034  14.780  0.00  0.00    +0.000 A 
ATOM     23  C   UNL     1      48.702  10.231  13.841  0.00  0.00    +0.000 A 
ENDBRANCH  15  17
ENDBRANCH   1  15
TORSDOF 3
ENDMDL
MODEL 5
REMARK VINA RESULT:    -5.747      5.098      7.425
REMARK INTER + INTRA:          -6.268
REMARK INTER:                  -6.940
REMARK INTRA:                   0.672
REMARK UNBOUND:                 0.487
REMARK  Name = 
REMARK  5 active torsions:
REMARK  status: ('A' for Active; 'I' for Inactive)
REMARK    1  A    between atoms: C_1  and  C_2
REMARK    2  A    between atoms: C_2  and  C_3
REMARK    3  A    between atoms: C_2  and  N_4
REMARK    4  A    between atoms: C_2  and  C_14
REMARK    5  A    between atoms: C_8  and  C_9
REMARK                            x       y       z     vdW  Elec       q    Type
REMARK                         _______ _______ _______ _____ _____    ______ ____
ROOT
ATOM      1  N   UNL     1      46.204   4.636  13.601  0.00  0.00    +0.000 N 
ATOM      2  C   UNL     1      47.117   4.888  14.634  0.00  0.00    +0.000 A 
ATOM      3  C   UNL     1      47.293   3.961  15.673  0.00  0.00    +0.000 A 
ATOM      4  N   UNL     1      48.139   4.131  16.732  0.00  0.00    +0.000 NA
ATOM      5  C   UNL     1      48.826   5.305  16.716  0.00  0.00    +0.000 A 
ATOM      6  C   UNL     1      48.663   6.236  15.709  0.00  0.00    +0.000 A 
ATOM      7  N   UNL     1      47.806   6.044  14.672  0.00  0.00    +0.000 NA
ATOM      8  H   UNL     1      46.378   3.714  13.209  0.00  0.00    +0.000 HD
ENDROOT
BRANCH   5   9
ATOM      9  C   UNL     1      49.771   5.599  17.827  0.00  0.00    +0.000 C 
ATOM     10  N   UNL     1      49.817   4.679  18.837  0.00  0.00    +0.000 N 
ATOM     11  O   UNL     1      50.464   6.608  17.846  0.00  0.00    +0.000 OA
ATOM     12  H   UNL     1      49.214   3.866  18.815  0.00  0.00    +0.000 HD
ATOM     13  H   UNL     1      50.418   4.850  19.631  0.00  0.00    +0.000 HD
ENDBRANCH   5   9
BRANCH   1  15
ATOM     14  C   UNL     1      44.908   6.661  12.894  0.00  0.00    +0.000 C 
ATOM     15  C   UNL     1      45.997   5.635  12.519  0.00  0.00    +0.000 C 
ATOM     16  C   UNL     1      47.339   6.333  12.193  0.00  0.00    +0.000 C 
BRANCH  15  17
ATOM     17  C   UNL     1      45.443   4.891  11.268  0.00  0.00    +0.000 A 
ATOM     18  C   UNL     1      44.751   3.666  11.384  0.00  0.00    +0.000 A 
ATOM     19  C   UNL     1      44.353   2.944  10.256  0.00  0.00    +0.000 A 
ATOM     20  C   UNL     1      44.640   3.435   8.992  0.00  0.00    +0.000 A 
ATOM     21  F   UNL     1      44.275   2.732   7.912  0.00  0.00    +0.000 F 
ATOM     22  C   UNL     1      45.318   4.635   8.837  0.00  0.00    +0.000 A 
ATOM     23  C   UNL     1      45.722   5.357   9.966  0.00  0.00    +0.000 A 
ENDBRANCH  15  17
ENDBRANCH   1  15
TORSDOF 3
ENDMDL
MODEL 6
REMARK VINA RESULT:    -5.737      3.802      5.799
REMARK INTER + INTRA:          -6.256
REMARK INTER:                  -6.782
REMARK INTRA:                   0.525
REMARK UNBOUND:                 0.487
REMARK  Name = 
REMARK  5 active torsions:
REMARK  status: ('A' for Active; 'I' for Inactive)
REMARK    1  A    between atoms: C_1  and  C_2
REMARK    2  A    between atoms: C_2  and  C_3
REMARK    3  A    between atoms: C_2  and  N_4
REMARK    4  A    between atoms: C_2  and  C_14
REMARK    5  A    between atoms: C_8  and  C_9
REMARK                            x       y       z     vdW  Elec       q    Type
REMARK                         _______ _______ _______ _____ _____    ______ ____
ROOT
ATOM      1  N   UNL     1      47.558   6.161  14.256  0.00  0.00    +0.000 N 
ATOM      2  C   UNL     1      46.639   5.632  13.340  0.00  0.00    +0.000 A 
ATOM      3  C   UNL     1      45.863   4.511  13.674  0.00  0.00    +0.000 A 
ATOM      4  N   UNL     1      44.963   3.912  12.840  0.00  0.00    +0.000 NA
ATOM      5  C   UNL     1      44.864   4.493  11.613  0.00  0.00    +0.000 A 
ATOM      6  C   UNL     1      45.624   5.589  11.259  0.00  0.00    +0.000 A 
ATOM      7  N   UNL     1      46.520   6.159  12.107  0.00  0.00    +0.000 NA
ATOM      8  H   UNL     1      47.097   6.320  15.148  0.00  0.00    +0.000 HD
ENDROOT
BRANCH   5   9
ATOM      9  C   UNL     1      43.919   3.916  10.620  0.00  0.00    +0.000 C 
ATOM     10  N   UNL     1      43.800   4.592   9.438  0.00  0.00    +0.000 N 
ATOM     11  O   UNL     1      43.275   2.899  10.845  0.00  0.00    +0.000 OA
ATOM     12  H   UNL     1      44.321   5.447   9.284  0.00  0.00    +0.000 HD
ATOM     13  H   UNL     1      43.144   4.259   8.745  0.00  0.00    +0.000 HD
ENDBRANCH   5   9
BRANCH   1  15
ATOM     14  C   UNL     1      48.929   7.213  12.441  0.00  0.00    +0.000 C 
ATOM     15  C   UNL     1      48.402   7.329  13.887  0.00  0.00    +0.000 C 
ATOM     16  C   UNL     1      47.598   8.635  14.090  0.00  0.00    +0.000 C 
BRANCH  15  17
ATOM     17  C   UNL     1      49.673   7.316  14.786  0.00  0.00    +0.000 A 
ATOM     18  C   UNL     1      50.856   7.986  14.403  0.00  0.00    +0.000 A 
ATOM     19  C   UNL     1      52.029   7.882  15.154  0.00  0.00    +0.000 A 
ATOM     20  C   UNL     1      52.040   7.106  16.302  0.00  0.00    +0.000 A 
ATOM     21  F   UNL     1      53.171   6.991  17.011  0.00  0.00    +0.000 F 
ATOM     22  C   UNL     1      50.898   6.432  16.711  0.00  0.00    +0.000 A 
ATOM     23  C   UNL     1      49.724   6.531  15.956  0.00  0.00    +0.000 A 
ENDBRANCH  15  17
ENDBRANCH   1  15
TORSDOF 3
ENDMDL
MODEL 7
REMARK VINA RESULT:    -5.535      5.075      7.154
REMARK INTER + INTRA:          -6.019
REMARK INTER:                  -6.637
REMARK INTRA:                   0.619
REMARK UNBOUND:                 0.487
REMARK  Name = 
REMARK  5 active torsions:
REMARK  status: ('A' for Active; 'I' for Inactive)
REMARK    1  A    between atoms: C_1  and  C_2
REMARK    2  A    between atoms: C_2  and  C_3
REMARK    3  A    between atoms: C_2  and  N_4
REMARK    4  A    between atoms: C_2  and  C_14
REMARK    5  A    between atoms: C_8  and  C_9
REMARK                            x       y       z     vdW  Elec       q    Type
REMARK                         _______ _______ _______ _____ _____    ______ ____
ROOT
ATOM      1  N   UNL     1      47.189   6.614  11.693  0.00  0.00    +0.000 N 
ATOM      2  C   UNL     1      48.243   7.018  12.524  0.00  0.00    +0.000 A 
ATOM      3  C   UNL     1      49.390   7.619  11.981  0.00  0.00    +0.000 A 
ATOM      4  N   UNL     1      50.474   8.021  12.707  0.00  0.00    +0.000 NA
ATOM      5  C   UNL     1      50.370   7.789  14.043  0.00  0.00    +0.000 A 
ATOM      6  C   UNL     1      49.257   7.191  14.599  0.00  0.00    +0.000 A 
ATOM      7  N   UNL     1      48.195   6.792  13.850  0.00  0.00    +0.000 NA
ATOM      8  H   UNL     1      46.915   7.386  11.089  0.00  0.00    +0.000 HD
ENDROOT
BRANCH   5   9
ATOM      9  C   UNL     1      51.499   8.180  14.930  0.00  0.00    +0.000 C 
ATOM     10  N   UNL     1      52.253   7.156  15.432  0.00  0.00    +0.000 N 
ATOM     11  O   UNL     1      51.740   9.349  15.205  0.00  0.00    +0.000 OA
ATOM     12  H   UNL     1      52.019   6.195  15.214  0.00  0.00    +0.000 HD
ATOM     13  H   UNL     1      53.011   7.368  16.066  0.00  0.00    +0.000 HD
ENDBRANCH   5   9
BRANCH   1  15
ATOM     14  C   UNL     1      46.365   5.024  13.445  0.00  0.00    +0.000 C 
ATOM     15  C   UNL     1      45.990   5.948  12.268  0.00  0.00    +0.000 C 
ATOM     16  C   UNL     1      44.958   7.018  12.697  0.00  0.00    +0.000 C 
BRANCH  15  17
ATOM     17  C   UNL     1      45.390   5.004  11.184  0.00  0.00    +0.000 A 
ATOM     18  C   UNL     1      44.736   3.802  11.532  0.00  0.00    +0.000 A 
ATOM     19  C   UNL     1      44.298   2.902  10.558  0.00  0.00    +0.000 A 
ATOM     20  C   UNL     1      44.505   3.189   9.218  0.00  0.00    +0.000 A 
ATOM     21  F   UNL     1      44.101   2.316   8.285  0.00  0.00    +0.000 F 
ATOM     22  C   UNL     1      45.143   4.360   8.836  0.00  0.00    +0.000 A 
ATOM     23  C   UNL     1      45.588   5.260   9.811  0.00  0.00    +0.000 A 
ENDBRANCH  15  17
ENDBRANCH   1  15
TORSDOF 3
ENDMDL
MODEL 8
REMARK VINA RESULT:    -5.475      4.823      6.860
REMARK INTER + INTRA:          -5.948
REMARK INTER:                  -6.985
REMARK INTRA:                   1.037
REMARK UNBOUND:                 0.487
REMARK  Name = 
REMARK  5 active torsions:
REMARK  status: ('A' for Active; 'I' for Inactive)
REMARK    1  A    between atoms: C_1  and  C_2
REMARK    2  A    between atoms: C_2  and  C_3
REMARK    3  A    between atoms: C_2  and  N_4
REMARK    4  A    between atoms: C_2  and  C_14
REMARK    5  A    between atoms: C_8  and  C_9
REMARK                            x       y       z     vdW  Elec       q    Type
REMARK                         _______ _______ _______ _____ _____    ______ ____
ROOT
ATOM      1  N   UNL     1      48.246   5.778  16.016  0.00  0.00    +0.000 N 
ATOM      2  C   UNL     1      47.532   5.504  14.842  0.00  0.00    +0.000 A 
ATOM      3  C   UNL     1      47.608   6.373  13.742  0.00  0.00    +0.000 A 
ATOM      4  N   UNL     1      46.930   6.202  12.569  0.00  0.00    +0.000 NA
ATOM      5  C   UNL     1      46.143   5.093  12.533  0.00  0.00    +0.000 A 
ATOM      6  C   UNL     1      46.046   4.229  13.606  0.00  0.00    +0.000 A 
ATOM      7  N   UNL     1      46.724   4.430  14.766  0.00  0.00    +0.000 NA
ATOM      8  H   UNL     1      49.221   5.956  15.790  0.00  0.00    +0.000 HD
ENDROOT
BRANCH   5   9
ATOM      9  C   UNL     1      45.353   4.813  11.305  0.00  0.00    +0.000 C 
ATOM     10  N   UNL     1      45.243   5.842  10.411  0.00  0.00    +0.000 N 
ATOM     11  O   UNL     1      44.821   3.729  11.103  0.00  0.00    +0.000 OA
ATOM     12  H   UNL     1      45.668   6.739  10.611  0.00  0.00    +0.000 HD
ATOM     13  H   UNL     1      44.688   5.712   9.577  0.00  0.00    +0.000 HD
ENDBRANCH   5   9
BRANCH   1  15
ATOM     14  C   UNL     1      48.120   5.663  18.516  0.00  0.00    +0.000 C 
ATOM     15  C   UNL     1      48.138   4.873  17.191  0.00  0.00    +0.000 C 
ATOM     16  C   UNL     1      46.880   3.984  17.048  0.00  0.00    +0.000 C 
BRANCH  15  17
ATOM     17  C   UNL     1      49.427   4.001  17.255  0.00  0.00    +0.000 A 
ATOM     18  C   UNL     1      49.389   2.609  17.022  0.00  0.00    +0.000 A 
ATOM     19  C   UNL     1      50.524   1.810  17.189  0.00  0.00    +0.000 A 
ATOM     20  C   UNL     1      51.716   2.391  17.592  0.00  0.00    +0.000 A 
ATOM     21  F   UNL     1      52.798   1.621  17.770  0.00  0.00    +0.000 F 
ATOM     22  C   UNL     1      51.793   3.755  17.830  0.00  0.00    +0.000 A 
ATOM     23  C   UNL     1      50.656   4.555  17.669  0.00  0.00    +0.000 A 
ENDBRANCH  15  17
ENDBRANCH   1  15
TORSDOF 3
ENDMDL
MODEL 9
REMARK VINA RESULT:    -4.978      5.741      8.196
REMARK INTER + INTRA:          -5.363
REMARK INTER:                  -5.835
REMARK INTRA:                   0.472
REMARK UNBOUND:                 0.487
REMARK  Name = 
REMARK  5 active torsions:
REMARK  status: ('A' for Active; 'I' for Inactive)
REMARK    1  A    between atoms: C_1  and  C_2
REMARK    2  A    between atoms: C_2  and  C_3
REMARK    3  A    between atoms: C_2  and  N_4
REMARK    4  A    between atoms: C_2  and  C_14
REMARK    5  A    between atoms: C_8  and  C_9
REMARK                            x       y       z     vdW  Elec       q    Type
REMARK                         _______ _______ _______ _____ _____    ______ ____
ROOT
ATOM      1  N   UNL     1      47.364   6.279  13.933  0.00  0.00    +0.000 N 
ATOM      2  C   UNL     1      48.258   7.065  14.672  0.00  0.00    +0.000 A 
ATOM      3  C   UNL     1      48.769   6.605  15.896  0.00  0.00    +0.000 A 
ATOM      4  N   UNL     1      49.623   7.310  16.696  0.00  0.00    +0.000 NA
ATOM      5  C   UNL     1      49.957   8.537  16.212  0.00  0.00    +0.000 A 
ATOM      6  C   UNL     1      49.460   9.014  15.016  0.00  0.00    +0.000 A 
ATOM      7  N   UNL     1      48.603   8.294  14.245  0.00  0.00    +0.000 NA
ATOM      8  H   UNL     1      47.750   5.346  13.812  0.00  0.00    +0.000 HD
ENDROOT
BRANCH   5   9
ATOM      9  C   UNL     1      50.876   9.396  17.007  0.00  0.00    +0.000 C 
ATOM     10  N   UNL     1      50.896  10.723  16.680  0.00  0.00    +0.000 N 
ATOM     11  O   UNL     1      51.583   8.945  17.900  0.00  0.00    +0.000 OA
ATOM     12  H   UNL     1      50.324  11.069  15.919  0.00  0.00    +0.000 HD
ATOM     13  H   UNL     1      51.529  11.341  17.168  0.00  0.00    +0.000 HD
ENDBRANCH   5   9
BRANCH   1  15
ATOM     14  C   UNL     1      45.703   7.841  12.894  0.00  0.00    +0.000 C 
ATOM     15  C   UNL     1      46.800   6.782  12.652  0.00  0.00    +0.000 C 
ATOM     16  C   UNL     1      47.938   7.342  11.768  0.00  0.00    +0.000 C 
BRANCH  15  17
ATOM     17  C   UNL     1      46.076   5.601  11.940  0.00  0.00    +0.000 A 
ATOM     18  C   UNL     1      45.665   5.692  10.592  0.00  0.00    +0.000 A 
ATOM     19  C   UNL     1      44.918   4.677   9.988  0.00  0.00    +0.000 A 
ATOM     20  C   UNL     1      44.569   3.555  10.721  0.00  0.00    +0.000 A 
ATOM     21  F   UNL     1      43.835   2.592  10.147  0.00  0.00    +0.000 F 
ATOM     22  C   UNL     1      44.953   3.429  12.049  0.00  0.00    +0.000 A 
ATOM     23  C   UNL     1      45.697   4.447  12.657  0.00  0.00    +0.000 A 
ENDBRANCH  15  17
ENDBRANCH   1  15
TORSDOF 3
ENDMDL
