MODEL 1
REMARK VINA RESULT:    -6.885      0.000      0.000
REMARK INTER + INTRA:         -10.362
REMARK INTER:                  -9.299
REMARK INTRA:                  -1.062
REMARK UNBOUND:                -1.062
REMARK  Name = 
REMARK  6 active torsions:
REMARK  status: ('A' for Active; 'I' for Inactive)
REMARK    1  A    between atoms: C_2  and  C_19
REMARK    2  A    between atoms: N_3  and  C_4
REMARK    3  A    between atoms: C_4  and  C_5
REMARK    4  A    between atoms: C_8  and  C_9
REMARK    5  A    between atoms: C_9  and  C_10
REMARK    6  A    between atoms: C_10  and  N_11
REMARK                            x       y       z     vdW  Elec       q    Type
REMARK                         _______ _______ _______ _____ _____    ______ ____
ROOT
ATOM      1  O   UNL     1      49.270   3.995  16.998  0.00  0.00    +0.000 OA
ATOM      2  C   UNL     1      48.676   5.043  16.771  0.00  0.00    +0.000 C 
ATOM      3  N   UNL     1      47.624   5.126  15.889  0.00  0.00    +0.000 N 
ATOM      4  H   UNL     1      47.287   6.031  15.593  0.00  0.00    +0.000 HD
ENDROOT
BRANCH   2   5
ATOM      5  C   UNL     1      48.995   6.292  17.463  0.00  0.00    +0.000 A 
ATOM      6  C   UNL     1      48.750   6.495  18.814  0.00  0.00    +0.000 A 
ATOM      7  S   UNL     1      49.329   7.997  19.386  0.00  0.00    +0.000 S 
ATOM      8  C   UNL     1      49.926   8.418  17.848  0.00  0.00    +0.000 A 
ATOM      9  N   UNL     1      50.576   9.595  17.647  0.00  0.00    +0.000 NA
ATOM     10  C   UNL     1      50.989   9.771  16.436  0.00  0.00    +0.000 A 
ATOM     11  N   UNL     1      50.798   8.883  15.407  0.00  0.00    +0.000 N 
ATOM     12  C   UNL     1      50.072   7.720  15.546  0.00  0.00    +0.000 A 
ATOM     13  O   UNL     1      49.773   7.051  14.567  0.00  0.00    +0.000 OA
ATOM     14  C   UNL     1      49.662   7.442  16.906  0.00  0.00    +0.000 A 
ATOM     15  H   UNL     1      51.096   9.107  14.469  0.00  0.00    +0.000 HD
ENDBRANCH   2   5
BRANCH   3  16
ATOM     16  C   UNL     1      47.163   3.974  15.140  0.00  0.00    +0.000 C 
BRANCH  16  17
ATOM     17  C   UNL     1      46.546   4.350  13.812  0.00  0.00    +0.000 A 
ATOM     18  C   UNL     1      46.784   5.606  13.265  0.00  0.00    +0.000 A 
ATOM     19  C   UNL     1      46.229   5.920  12.027  0.00  0.00    +0.000 A 
ATOM     20  C   UNL     1      45.455   4.979  11.346  0.00  0.00    +0.000 A 
ATOM     21  C   UNL     1      45.242   3.761  11.986  0.00  0.00    +0.000 A 
ATOM     22  N   UNL     1      45.761   3.429  13.195  0.00  0.00    +0.000 NA
BRANCH  20  23
ATOM     23  C   UNL     1      44.882   5.271   9.976  0.00  0.00    +0.000 C 
BRANCH  23  24
ATOM     24  C   UNL     1      45.849   4.838   8.850  0.00  0.00    +0.000 C 
BRANCH  24  25
ATOM     25  N   UNL     1      45.260   4.022   7.770  0.00  0.00    +0.000 NA
ATOM     26  C   UNL     1      44.566   2.805   8.243  0.00  0.00    +0.000 C 
ATOM     27  C   UNL     1      45.518   1.744   8.820  0.00  0.00    +0.000 C 
ATOM     28  O   UNL     1      46.473   1.333   7.835  0.00  0.00    +0.000 OA
ATOM     29  C   UNL     1      47.227   2.453   7.354  0.00  0.00    +0.000 C 
ATOM     30  C   UNL     1      46.319   3.581   6.821  0.00  0.00    +0.000 C 
ENDBRANCH  24  25
ENDBRANCH  23  24
ENDBRANCH  20  23
ENDBRANCH  16  17
ENDBRANCH   3  16
TORSDOF 6
ENDMDL
MODEL 2
REMARK VINA RESULT:    -6.788      4.980      9.029
REMARK INTER + INTRA:         -10.232
REMARK INTER:                  -9.529
REMARK INTRA:                  -0.702
REMARK UNBOUND:                -1.062
REMARK  Name = 
REMARK  6 active torsions:
REMARK  status: ('A' for Active; 'I' for Inactive)
REMARK    1  A    between atoms: C_2  and  C_19
REMARK    2  A    between atoms: N_3  and  C_4
REMARK    3  A    between atoms: C_4  and  C_5
REMARK    4  A    between atoms: C_8  and  C_9
REMARK    5  A    between atoms: C_9  and  C_10
REMARK    6  A    between atoms: C_10  and  N_11
REMARK                            x       y       z     vdW  Elec       q    Type
REMARK                         _______ _______ _______ _____ _____    ______ ____
ROOT
ATOM      1  O   UNL     1      47.228   3.054  14.033  0.00  0.00    +0.000 OA
ATOM      2  C   UNL     1      46.907   4.122  14.541  0.00  0.00    +0.000 C 
ATOM      3  N   UNL     1      46.895   4.325  15.902  0.00  0.00    +0.000 N 
ATOM      4  H   UNL     1      46.451   5.149  16.283  0.00  0.00    +0.000 HD
ENDROOT
BRANCH   2   5
ATOM      5  C   UNL     1      46.563   5.300  13.743  0.00  0.00    +0.000 A 
ATOM      6  C   UNL     1      47.431   6.366  13.553  0.00  0.00    +0.000 A 
ATOM      7  S   UNL     1      46.820   7.549  12.482  0.00  0.00    +0.000 S 
ATOM      8  C   UNL     1      45.382   6.670  12.240  0.00  0.00    +0.000 A 
ATOM      9  N   UNL     1      44.418   7.124  11.395  0.00  0.00    +0.000 NA
ATOM     10  C   UNL     1      43.392   6.345  11.297  0.00  0.00    +0.000 A 
ATOM     11  N   UNL     1      43.239   5.162  11.977  0.00  0.00    +0.000 N 
ATOM     12  C   UNL     1      44.150   4.708  12.905  0.00  0.00    +0.000 A 
ATOM     13  O   UNL     1      43.890   3.749  13.617  0.00  0.00    +0.000 OA
ATOM     14  C   UNL     1      45.355   5.508  12.987  0.00  0.00    +0.000 A 
ATOM     15  H   UNL     1      42.386   4.629  11.899  0.00  0.00    +0.000 HD
ENDBRANCH   2   5
BRANCH   3  16
ATOM     16  C   UNL     1      47.234   3.270  16.834  0.00  0.00    +0.000 C 
BRANCH  16  17
ATOM     17  C   UNL     1      48.718   3.190  17.111  0.00  0.00    +0.000 A 
ATOM     18  C   UNL     1      49.363   4.241  17.754  0.00  0.00    +0.000 A 
ATOM     19  C   UNL     1      50.724   4.134  18.026  0.00  0.00    +0.000 A 
ATOM     20  C   UNL     1      51.423   2.981  17.664  0.00  0.00    +0.000 A 
ATOM     21  C   UNL     1      50.704   1.996  16.994  0.00  0.00    +0.000 A 
ATOM     22  N   UNL     1      49.379   2.074  16.707  0.00  0.00    +0.000 NA
BRANCH  20  23
ATOM     23  C   UNL     1      52.891   2.813  17.992  0.00  0.00    +0.000 C 
BRANCH  23  24
ATOM     24  C   UNL     1      53.302   1.323  18.019  0.00  0.00    +0.000 C 
BRANCH  24  25
ATOM     25  N   UNL     1      54.753   1.051  17.984  0.00  0.00    +0.000 NA
ATOM     26  C   UNL     1      55.260   0.646  16.656  0.00  0.00    +0.000 C 
ATOM     27  C   UNL     1      54.771  -0.742  16.213  0.00  0.00    +0.000 C 
ATOM     28  O   UNL     1      55.182  -1.745  17.149  0.00  0.00    +0.000 OA
ATOM     29  C   UNL     1      54.690  -1.453  18.463  0.00  0.00    +0.000 C 
ATOM     30  C   UNL     1      55.096  -0.041  18.936  0.00  0.00    +0.000 C 
ENDBRANCH  24  25
ENDBRANCH  23  24
ENDBRANCH  20  23
ENDBRANCH  16  17
ENDBRANCH   3  16
TORSDOF 6
ENDMDL
MODEL 3
REMARK VINA RESULT:    -6.619      1.721      2.196
REMARK INTER + INTRA:         -10.003
REMARK INTER:                  -9.035
REMARK INTRA:                  -0.968
REMARK UNBOUND:                -1.062
REMARK  Name = 
REMARK  6 active torsions:
REMARK  status: ('A' for Active; 'I' for Inactive)
REMARK    1  A    between atoms: C_2  and  C_19
REMARK    2  A    between atoms: N_3  and  C_4
REMARK    3  A    between atoms: C_4  and  C_5
REMARK    4  A    between atoms: C_8  and  C_9
REMARK    5  A    between atoms: C_9  and  C_10
REMARK    6  A    between atoms: C_10  and  N_11
REMARK                            x       y       z     vdW  Elec       q    Type
REMARK                         _______ _______ _______ _____ _____    ______ ____
ROOT
ATOM      1  O   UNL     1      49.031   3.289  16.857  0.00  0.00    +0.000 OA
ATOM      2  C   UNL     1      48.740   4.475  16.767  0.00  0.00    +0.000 C 
ATOM      3  N   UNL     1      47.646   4.922  16.061  0.00  0.00    +0.000 N 
ATOM      4  H   UNL     1      47.548   5.906  15.857  0.00  0.00    +0.000 HD
ENDROOT
BRANCH   2   5
ATOM      5  C   UNL     1      49.498   5.525  17.449  0.00  0.00    +0.000 A 
ATOM      6  C   UNL     1      50.826   5.809  17.163  0.00  0.00    +0.000 A 
ATOM      7  S   UNL     1      51.426   7.159  18.021  0.00  0.00    +0.000 S 
ATOM      8  C   UNL     1      49.930   7.405  18.795  0.00  0.00    +0.000 A 
ATOM      9  N   UNL     1      49.751   8.437  19.662  0.00  0.00    +0.000 NA
ATOM     10  C   UNL     1      48.561   8.510  20.159  0.00  0.00    +0.000 A 
ATOM     11  N   UNL     1      47.540   7.637  19.877  0.00  0.00    +0.000 N 
ATOM     12  C   UNL     1      47.702   6.530  19.073  0.00  0.00    +0.000 A 
ATOM     13  O   UNL     1      46.823   5.683  18.994  0.00  0.00    +0.000 OA
ATOM     14  C   UNL     1      48.996   6.455  18.429  0.00  0.00    +0.000 A 
ATOM     15  H   UNL     1      46.649   7.716  20.344  0.00  0.00    +0.000 HD
ENDBRANCH   2   5
BRANCH   3  16
ATOM     16  C   UNL     1      46.774   4.011  15.348  0.00  0.00    +0.000 C 
BRANCH  16  17
ATOM     17  C   UNL     1      46.380   4.528  13.983  0.00  0.00    +0.000 A 
ATOM     18  C   UNL     1      47.071   5.594  13.418  0.00  0.00    +0.000 A 
ATOM     19  C   UNL     1      46.710   6.035  12.147  0.00  0.00    +0.000 A 
ATOM     20  C   UNL     1      45.676   5.404  11.453  0.00  0.00    +0.000 A 
ATOM     21  C   UNL     1      45.018   4.369  12.112  0.00  0.00    +0.000 A 
ATOM     22  N   UNL     1      45.340   3.922  13.353  0.00  0.00    +0.000 NA
BRANCH  20  23
ATOM     23  C   UNL     1      45.295   5.825  10.050  0.00  0.00    +0.000 C 
BRANCH  23  24
ATOM     24  C   UNL     1      46.099   5.048   8.984  0.00  0.00    +0.000 C 
BRANCH  24  25
ATOM     25  N   UNL     1      45.302   4.284   8.003  0.00  0.00    +0.000 NA
ATOM     26  C   UNL     1      44.433   3.251   8.604  0.00  0.00    +0.000 C 
ATOM     27  C   UNL     1      45.213   2.073   9.211  0.00  0.00    +0.000 C 
ATOM     28  O   UNL     1      46.012   1.428   8.212  0.00  0.00    +0.000 OA
ATOM     29  C   UNL     1      46.922   2.354   7.606  0.00  0.00    +0.000 C 
ATOM     30  C   UNL     1      46.199   3.593   7.036  0.00  0.00    +0.000 C 
ENDBRANCH  24  25
ENDBRANCH  23  24
ENDBRANCH  20  23
ENDBRANCH  16  17
ENDBRANCH   3  16
TORSDOF 6
ENDMDL
MODEL 4
REMARK VINA RESULT:    -6.535      3.658      8.585
REMARK INTER + INTRA:          -9.890
REMARK INTER:                  -8.848
REMARK INTRA:                  -1.042
REMARK UNBOUND:                -1.062
REMARK  Name = 
REMARK  6 active torsions:
REMARK  status: ('A' for Active; 'I' for Inactive)
REMARK    1  A    between atoms: C_2  and  C_19
REMARK    2  A    between atoms: N_3  and  C_4
REMARK    3  A    between atoms: C_4  and  C_5
REMARK    4  A    between atoms: C_8  and  C_9
REMARK    5  A    between atoms: C_9  and  C_10
REMARK    6  A    between atoms: C_10  and  N_11
REMARK                            x       y       z     vdW  Elec       q    Type
REMARK                         _______ _______ _______ _____ _____    ______ ____
ROOT
ATOM      1  O   UNL     1      45.480   7.970  11.652  0.00  0.00    +0.000 OA
ATOM      2  C   UNL     1      46.150   7.018  11.269  0.00  0.00    +0.000 C 
ATOM      3  N   UNL     1      47.519   6.971  11.401  0.00  0.00    +0.000 N 
ATOM      4  H   UNL     1      48.046   6.262  10.911  0.00  0.00    +0.000 HD
ENDROOT
BRANCH   2   5
ATOM      5  C   UNL     1      45.549   5.817  10.688  0.00  0.00    +0.000 A 
ATOM      6  C   UNL     1      45.751   5.430   9.371  0.00  0.00    +0.000 A 
ATOM      7  S   UNL     1      45.031   3.927   8.993  0.00  0.00    +0.000 S 
ATOM      8  C   UNL     1      44.433   3.749  10.577  0.00  0.00    +0.000 A 
ATOM      9  N   UNL     1      43.732   2.643  10.941  0.00  0.00    +0.000 NA
ATOM     10  C   UNL     1      43.358   2.636  12.178  0.00  0.00    +0.000 A 
ATOM     11  N   UNL     1      43.611   3.643  13.077  0.00  0.00    +0.000 N 
ATOM     12  C   UNL     1      44.242   4.817  12.729  0.00  0.00    +0.000 A 
ATOM     13  O   UNL     1      44.284   5.757  13.510  0.00  0.00    +0.000 OA
ATOM     14  C   UNL     1      44.751   4.832  11.374  0.00  0.00    +0.000 A 
ATOM     15  H   UNL     1      43.240   3.602  14.014  0.00  0.00    +0.000 HD
ENDBRANCH   2   5
BRANCH   3  16
ATOM     16  C   UNL     1      48.268   8.067  11.979  0.00  0.00    +0.000 C 
BRANCH  16  17
ATOM     17  C   UNL     1      48.447   7.929  13.474  0.00  0.00    +0.000 A 
ATOM     18  C   UNL     1      48.091   8.976  14.316  0.00  0.00    +0.000 A 
ATOM     19  C   UNL     1      48.237   8.816  15.692  0.00  0.00    +0.000 A 
ATOM     20  C   UNL     1      48.725   7.615  16.210  0.00  0.00    +0.000 A 
ATOM     21  C   UNL     1      49.089   6.636  15.290  0.00  0.00    +0.000 A 
ATOM     22  N   UNL     1      48.967   6.765  13.944  0.00  0.00    +0.000 NA
BRANCH  20  23
ATOM     23  C   UNL     1      48.846   7.391  17.702  0.00  0.00    +0.000 C 
BRANCH  23  24
ATOM     24  C   UNL     1      49.368   5.972  18.025  0.00  0.00    +0.000 C 
BRANCH  24  25
ATOM     25  N   UNL     1      48.466   5.117  18.824  0.00  0.00    +0.000 NA
ATOM     26  C   UNL     1      48.959   3.738  19.019  0.00  0.00    +0.000 C 
ATOM     27  C   UNL     1      48.961   2.901  17.729  0.00  0.00    +0.000 C 
ATOM     28  O   UNL     1      47.639   2.808  17.185  0.00  0.00    +0.000 OA
ATOM     29  C   UNL     1      47.101   4.109  16.920  0.00  0.00    +0.000 C 
ATOM     30  C   UNL     1      47.134   5.018  18.167  0.00  0.00    +0.000 C 
ENDBRANCH  24  25
ENDBRANCH  23  24
ENDBRANCH  20  23
ENDBRANCH  16  17
ENDBRANCH   3  16
TORSDOF 6
ENDMDL
MODEL 5
REMARK VINA RESULT:    -6.458      2.022      3.562
REMARK INTER + INTRA:          -9.785
REMARK INTER:                  -9.001
REMARK INTRA:                  -0.784
REMARK UNBOUND:                -1.062
REMARK  Name = 
REMARK  6 active torsions:
REMARK  status: ('A' for Active; 'I' for Inactive)
REMARK    1  A    between atoms: C_2  and  C_19
REMARK    2  A    between atoms: N_3  and  C_4
REMARK    3  A    between atoms: C_4  and  C_5
REMARK    4  A    between atoms: C_8  and  C_9
REMARK    5  A    between atoms: C_9  and  C_10
REMARK    6  A    between atoms: C_10  and  N_11
REMARK                            x       y       z     vdW  Elec       q    Type
REMARK                         _______ _______ _______ _____ _____    ______ ____
ROOT
ATOM      1  O   UNL     1      49.833   7.045  14.013  0.00  0.00    +0.000 OA
ATOM      2  C   UNL     1      49.045   7.064  14.951  0.00  0.00    +0.000 C 
ATOM      3  N   UNL     1      47.810   7.666  14.875  0.00  0.00    +0.000 N 
ATOM      4  H   UNL     1      47.274   7.821  15.716  0.00  0.00    +0.000 HD
ENDROOT
BRANCH   2   5
ATOM      5  C   UNL     1      49.323   6.396  16.223  0.00  0.00    +0.000 A 
ATOM      6  C   UNL     1      50.182   6.917  17.181  0.00  0.00    +0.000 A 
ATOM      7  S   UNL     1      50.228   5.994  18.618  0.00  0.00    +0.000 S 
ATOM      8  C   UNL     1      49.100   4.876  18.004  0.00  0.00    +0.000 A 
ATOM      9  N   UNL     1      48.674   3.826  18.756  0.00  0.00    +0.000 NA
ATOM     10  C   UNL     1      47.805   3.072  18.168  0.00  0.00    +0.000 A 
ATOM     11  N   UNL     1      47.336   3.267  16.893  0.00  0.00    +0.000 N 
ATOM     12  C   UNL     1      47.803   4.266  16.066  0.00  0.00    +0.000 A 
ATOM     13  O   UNL     1      47.494   4.292  14.884  0.00  0.00    +0.000 OA
ATOM     14  C   UNL     1      48.717   5.184  16.713  0.00  0.00    +0.000 A 
ATOM     15  H   UNL     1      46.700   2.607  16.471  0.00  0.00    +0.000 HD
ENDBRANCH   2   5
BRANCH   3  16
ATOM     16  C   UNL     1      47.367   8.350  13.677  0.00  0.00    +0.000 C 
BRANCH  16  17
ATOM     17  C   UNL     1      46.207   7.655  13.002  0.00  0.00    +0.000 A 
ATOM     18  C   UNL     1      45.526   8.286  11.966  0.00  0.00    +0.000 A 
ATOM     19  C   UNL     1      44.479   7.615  11.339  0.00  0.00    +0.000 A 
ATOM     20  C   UNL     1      44.129   6.326  11.744  0.00  0.00    +0.000 A 
ATOM     21  C   UNL     1      44.842   5.789  12.812  0.00  0.00    +0.000 A 
ATOM     22  N   UNL     1      45.862   6.420  13.449  0.00  0.00    +0.000 NA
BRANCH  20  23
ATOM     23  C   UNL     1      43.031   5.551  11.049  0.00  0.00    +0.000 C 
BRANCH  23  24
ATOM     24  C   UNL     1      43.583   4.702   9.882  0.00  0.00    +0.000 C 
BRANCH  24  25
ATOM     25  N   UNL     1      45.006   4.319   9.976  0.00  0.00    +0.000 NA
ATOM     26  C   UNL     1      45.777   4.551   8.737  0.00  0.00    +0.000 C 
ATOM     27  C   UNL     1      45.380   3.613   7.586  0.00  0.00    +0.000 C 
ATOM     28  O   UNL     1      45.575   2.244   7.959  0.00  0.00    +0.000 OA
ATOM     29  C   UNL     1      44.820   1.920   9.133  0.00  0.00    +0.000 C 
ATOM     30  C   UNL     1      45.131   2.873  10.306  0.00  0.00    +0.000 C 
ENDBRANCH  24  25
ENDBRANCH  23  24
ENDBRANCH  20  23
ENDBRANCH  16  17
ENDBRANCH   3  16
TORSDOF 6
ENDMDL
MODEL 6
REMARK VINA RESULT:    -6.421      3.960      8.933
REMARK INTER + INTRA:          -9.736
REMARK INTER:                  -8.774
REMARK INTRA:                  -0.962
REMARK UNBOUND:                -1.062
REMARK  Name = 
REMARK  6 active torsions:
REMARK  status: ('A' for Active; 'I' for Inactive)
REMARK    1  A    between atoms: C_2  and  C_19
REMARK    2  A    between atoms: N_3  and  C_4
REMARK    3  A    between atoms: C_4  and  C_5
REMARK    4  A    between atoms: C_8  and  C_9
REMARK    5  A    between atoms: C_9  and  C_10
REMARK    6  A    between atoms: C_10  and  N_11
REMARK                            x       y       z     vdW  Elec       q    Type
REMARK                         _______ _______ _______ _____ _____    ______ ____
ROOT
ATOM      1  O   UNL     1      47.315   3.120  14.117  0.00  0.00    +0.000 OA
ATOM      2  C   UNL     1      46.936   4.187  14.584  0.00  0.00    +0.000 C 
ATOM      3  N   UNL     1      46.865   4.425  15.937  0.00  0.00    +0.000 N 
ATOM      4  H   UNL     1      46.377   5.241  16.279  0.00  0.00    +0.000 HD
ENDROOT
BRANCH   2   5
ATOM      5  C   UNL     1      46.579   5.330  13.742  0.00  0.00    +0.000 A 
ATOM      6  C   UNL     1      47.430   6.403  13.519  0.00  0.00    +0.000 A 
ATOM      7  S   UNL     1      46.807   7.536  12.402  0.00  0.00    +0.000 S 
ATOM      8  C   UNL     1      45.386   6.625  12.183  0.00  0.00    +0.000 A 
ATOM      9  N   UNL     1      44.420   7.033  11.316  0.00  0.00    +0.000 NA
ATOM     10  C   UNL     1      43.408   6.234  11.239  0.00  0.00    +0.000 A 
ATOM     11  N   UNL     1      43.270   5.074  11.961  0.00  0.00    +0.000 N 
ATOM     12  C   UNL     1      44.182   4.669  12.911  0.00  0.00    +0.000 A 
ATOM     13  O   UNL     1      43.932   3.731  13.655  0.00  0.00    +0.000 OA
ATOM     14  C   UNL     1      45.372   5.491  12.971  0.00  0.00    +0.000 A 
ATOM     15  H   UNL     1      42.426   4.524  11.896  0.00  0.00    +0.000 HD
ENDBRANCH   2   5
BRANCH   3  16
ATOM     16  C   UNL     1      47.209   3.409  16.910  0.00  0.00    +0.000 C 
BRANCH  16  17
ATOM     17  C   UNL     1      48.686   3.380  17.228  0.00  0.00    +0.000 A 
ATOM     18  C   UNL     1      49.426   2.226  16.991  0.00  0.00    +0.000 A 
ATOM     19  C   UNL     1      50.791   2.231  17.264  0.00  0.00    +0.000 A 
ATOM     20  C   UNL     1      51.404   3.385  17.759  0.00  0.00    +0.000 A 
ATOM     21  C   UNL     1      50.578   4.479  17.999  0.00  0.00    +0.000 A 
ATOM     22  N   UNL     1      49.244   4.503  17.751  0.00  0.00    +0.000 NA
BRANCH  20  23
ATOM     23  C   UNL     1      52.894   3.438  18.016  0.00  0.00    +0.000 C 
BRANCH  23  24
ATOM     24  C   UNL     1      53.310   4.769  18.684  0.00  0.00    +0.000 C 
BRANCH  24  25
ATOM     25  N   UNL     1      54.422   5.496  18.040  0.00  0.00    +0.000 NA
ATOM     26  C   UNL     1      54.659   6.847  18.591  0.00  0.00    +0.000 C 
ATOM     27  C   UNL     1      53.534   7.844  18.268  0.00  0.00    +0.000 C 
ATOM     28  O   UNL     1      53.374   7.985  16.851  0.00  0.00    +0.000 OA
ATOM     29  C   UNL     1      53.093   6.720  16.239  0.00  0.00    +0.000 C 
ATOM     30  C   UNL     1      54.157   5.657  16.583  0.00  0.00    +0.000 C 
ENDBRANCH  24  25
ENDBRANCH  23  24
ENDBRANCH  20  23
ENDBRANCH  16  17
ENDBRANCH   3  16
TORSDOF 6
ENDMDL
MODEL 7
REMARK VINA RESULT:    -6.396      1.869      3.205
REMARK INTER + INTRA:          -9.701
REMARK INTER:                  -8.903
REMARK INTRA:                  -0.798
REMARK UNBOUND:                -1.062
REMARK  Name = 
REMARK  6 active torsions:
REMARK  status: ('A' for Active; 'I' for Inactive)
REMARK    1  A    between atoms: C_2  and  C_19
REMARK    2  A    between atoms: N_3  and  C_4
REMARK    3  A    between atoms: C_4  and  C_5
REMARK    4  A    between atoms: C_8  and  C_9
REMARK    5  A    between atoms: C_9  and  C_10
REMARK    6  A    between atoms: C_10  and  N_11
REMARK                            x       y       z     vdW  Elec       q    Type
REMARK                         _______ _______ _______ _____ _____    ______ ____
ROOT
ATOM      1  O   UNL     1      51.068   6.656  15.767  0.00  0.00    +0.000 OA
ATOM      2  C   UNL     1      50.029   6.950  16.346  0.00  0.00    +0.000 C 
ATOM      3  N   UNL     1      48.871   7.277  15.678  0.00  0.00    +0.000 N 
ATOM      4  H   UNL     1      48.099   7.689  16.182  0.00  0.00    +0.000 HD
ENDROOT
BRANCH   2   5
ATOM      5  C   UNL     1      49.906   6.923  17.804  0.00  0.00    +0.000 A 
ATOM      6  C   UNL     1      50.141   8.031  18.605  0.00  0.00    +0.000 A 
ATOM      7  S   UNL     1      49.808   7.751  20.257  0.00  0.00    +0.000 S 
ATOM      8  C   UNL     1      49.339   6.144  19.950  0.00  0.00    +0.000 A 
ATOM      9  N   UNL     1      48.905   5.337  20.954  0.00  0.00    +0.000 NA
ATOM     10  C   UNL     1      48.565   4.151  20.571  0.00  0.00    +0.000 A 
ATOM     11  N   UNL     1      48.634   3.698  19.277  0.00  0.00    +0.000 N 
ATOM     12  C   UNL     1      49.147   4.452  18.244  0.00  0.00    +0.000 A 
ATOM     13  O   UNL     1      49.357   3.950  17.149  0.00  0.00    +0.000 OA
ATOM     14  C   UNL     1      49.462   5.816  18.613  0.00  0.00    +0.000 A 
ATOM     15  H   UNL     1      48.407   2.740  19.053  0.00  0.00    +0.000 HD
ENDBRANCH   2   5
BRANCH   3  16
ATOM     16  C   UNL     1      48.812   7.326  14.231  0.00  0.00    +0.000 C 
BRANCH  16  17
ATOM     17  C   UNL     1      47.653   6.538  13.666  0.00  0.00    +0.000 A 
ATOM     18  C   UNL     1      46.726   7.162  12.838  0.00  0.00    +0.000 A 
ATOM     19  C   UNL     1      45.682   6.410  12.305  0.00  0.00    +0.000 A 
ATOM     20  C   UNL     1      45.580   5.048  12.594  0.00  0.00    +0.000 A 
ATOM     21  C   UNL     1      46.531   4.517  13.460  0.00  0.00    +0.000 A 
ATOM     22  N   UNL     1      47.555   5.225  14.002  0.00  0.00    +0.000 NA
BRANCH  20  23
ATOM     23  C   UNL     1      44.487   4.193  11.989  0.00  0.00    +0.000 C 
BRANCH  23  24
ATOM     24  C   UNL     1      45.057   3.171  10.980  0.00  0.00    +0.000 C 
BRANCH  24  25
ATOM     25  N   UNL     1      44.268   2.969   9.748  0.00  0.00    +0.000 NA
ATOM     26  C   UNL     1      44.583   1.717   9.028  0.00  0.00    +0.000 C 
ATOM     27  C   UNL     1      45.981   1.714   8.390  0.00  0.00    +0.000 C 
ATOM     28  O   UNL     1      46.111   2.789   7.451  0.00  0.00    +0.000 OA
ATOM     29  C   UNL     1      45.866   4.052   8.082  0.00  0.00    +0.000 C 
ATOM     30  C   UNL     1      44.500   4.091   8.797  0.00  0.00    +0.000 C 
ENDBRANCH  24  25
ENDBRANCH  23  24
ENDBRANCH  20  23
ENDBRANCH  16  17
ENDBRANCH   3  16
TORSDOF 6
ENDMDL
MODEL 8
REMARK VINA RESULT:    -6.354      3.131      8.956
REMARK INTER + INTRA:          -9.644
REMARK INTER:                  -8.564
REMARK INTRA:                  -1.081
REMARK UNBOUND:                -1.062
REMARK  Name = 
REMARK  6 active torsions:
REMARK  status: ('A' for Active; 'I' for Inactive)
REMARK    1  A    between atoms: C_2  and  C_19
REMARK    2  A    between atoms: N_3  and  C_4
REMARK    3  A    between atoms: C_4  and  C_5
REMARK    4  A    between atoms: C_8  and  C_9
REMARK    5  A    between atoms: C_9  and  C_10
REMARK    6  A    between atoms: C_10  and  N_11
REMARK                            x       y       z     vdW  Elec       q    Type
REMARK                         _______ _______ _______ _____ _____    ______ ____
ROOT
ATOM      1  O   UNL     1      44.610   7.340  11.814  0.00  0.00    +0.000 OA
ATOM      2  C   UNL     1      45.344   6.373  11.650  0.00  0.00    +0.000 C 
ATOM      3  N   UNL     1      46.715   6.454  11.748  0.00  0.00    +0.000 N 
ATOM      4  H   UNL     1      47.287   5.687  11.427  0.00  0.00    +0.000 HD
ENDROOT
BRANCH   2   5
ATOM      5  C   UNL     1      44.828   5.029  11.393  0.00  0.00    +0.000 A 
ATOM      6  C   UNL     1      44.098   4.305  12.326  0.00  0.00    +0.000 A 
ATOM      7  S   UNL     1      43.517   2.817  11.721  0.00  0.00    +0.000 S 
ATOM      8  C   UNL     1      44.219   3.098  10.195  0.00  0.00    +0.000 A 
ATOM      9  N   UNL     1      44.073   2.203   9.182  0.00  0.00    +0.000 NA
ATOM     10  C   UNL     1      44.643   2.556   8.078  0.00  0.00    +0.000 A 
ATOM     11  N   UNL     1      45.356   3.716   7.902  0.00  0.00    +0.000 N 
ATOM     12  C   UNL     1      45.601   4.608   8.924  0.00  0.00    +0.000 A 
ATOM     13  O   UNL     1      46.389   5.530   8.771  0.00  0.00    +0.000 OA
ATOM     14  C   UNL     1      44.911   4.292  10.157  0.00  0.00    +0.000 A 
ATOM     15  H   UNL     1      45.826   3.906   7.030  0.00  0.00    +0.000 HD
ENDBRANCH   2   5
BRANCH   3  16
ATOM     16  C   UNL     1      47.388   7.707  12.024  0.00  0.00    +0.000 C 
BRANCH  16  17
ATOM     17  C   UNL     1      47.949   7.773  13.426  0.00  0.00    +0.000 A 
ATOM     18  C   UNL     1      47.809   8.935  14.177  0.00  0.00    +0.000 A 
ATOM     19  C   UNL     1      48.307   8.964  15.476  0.00  0.00    +0.000 A 
ATOM     20  C   UNL     1      48.928   7.835  16.015  0.00  0.00    +0.000 A 
ATOM     21  C   UNL     1      49.054   6.730  15.179  0.00  0.00    +0.000 A 
ATOM     22  N   UNL     1      48.587   6.674  13.906  0.00  0.00    +0.000 NA
BRANCH  20  23
ATOM     23  C   UNL     1      49.433   7.818  17.441  0.00  0.00    +0.000 C 
BRANCH  23  24
ATOM     24  C   UNL     1      49.977   6.426  17.837  0.00  0.00    +0.000 C 
BRANCH  24  25
ATOM     25  N   UNL     1      49.303   5.767  18.973  0.00  0.00    +0.000 NA
ATOM     26  C   UNL     1      49.737   4.373  19.206  0.00  0.00    +0.000 C 
ATOM     27  C   UNL     1      49.293   3.402  18.101  0.00  0.00    +0.000 C 
ATOM     28  O   UNL     1      47.866   3.388  17.982  0.00  0.00    +0.000 OA
ATOM     29  C   UNL     1      47.362   4.702  17.707  0.00  0.00    +0.000 C 
ATOM     30  C   UNL     1      47.831   5.736  18.752  0.00  0.00    +0.000 C 
ENDBRANCH  24  25
ENDBRANCH  23  24
ENDBRANCH  20  23
ENDBRANCH  16  17
ENDBRANCH   3  16
TORSDOF 6
ENDMDL
MODEL 9
REMARK VINA RESULT:    -6.250      2.274      3.349
REMARK INTER + INTRA:          -9.505
REMARK INTER:                  -8.604
REMARK INTRA:                  -0.901
REMARK UNBOUND:                -1.062
REMARK  Name = 
REMARK  6 active torsions:
REMARK  status: ('A' for Active; 'I' for Inactive)
REMARK    1  A    between atoms: C_2  and  C_19
REMARK    2  A    between atoms: N_3  and  C_4
REMARK    3  A    between atoms: C_4  and  C_5
REMARK    4  A    between atoms: C_8  and  C_9
REMARK    5  A    between atoms: C_9  and  C_10
REMARK    6  A    between atoms: C_10  and  N_11
REMARK                            x       y       z     vdW  Elec       q    Type
REMARK                         _______ _______ _______ _____ _____    ______ ____
ROOT
ATOM      1  O   UNL     1      49.510   9.589  15.018  0.00  0.00    +0.000 OA
ATOM      2  C   UNL     1      48.455   9.343  15.591  0.00  0.00    +0.000 C 
ATOM      3  N   UNL     1      47.343   8.872  14.932  0.00  0.00    +0.000 N 
ATOM      4  H   UNL     1      46.449   8.860  15.402  0.00  0.00    +0.000 HD
ENDROOT
BRANCH   2   5
ATOM      5  C   UNL     1      48.300   9.474  17.040  0.00  0.00    +0.000 A 
ATOM      6  C   UNL     1      48.142  10.695  17.678  0.00  0.00    +0.000 A 
ATOM      7  S   UNL     1      47.861  10.547  19.357  0.00  0.00    +0.000 S 
ATOM      8  C   UNL     1      47.938   8.848  19.278  0.00  0.00    +0.000 A 
ATOM      9  N   UNL     1      47.750   8.086  20.389  0.00  0.00    +0.000 NA
ATOM     10  C   UNL     1      47.818   6.813  20.175  0.00  0.00    +0.000 A 
ATOM     11  N   UNL     1      48.070   6.238  18.954  0.00  0.00    +0.000 N 
ATOM     12  C   UNL     1      48.351   6.972  17.823  0.00  0.00    +0.000 A 
ATOM     13  O   UNL     1      48.747   6.422  16.805  0.00  0.00    +0.000 OA
ATOM     14  C   UNL     1      48.204   8.402  17.998  0.00  0.00    +0.000 A 
ATOM     15  H   UNL     1      48.168   5.237  18.866  0.00  0.00    +0.000 HD
ENDBRANCH   2   5
BRANCH   3  16
ATOM     16  C   UNL     1      47.336   8.662  13.499  0.00  0.00    +0.000 C 
BRANCH  16  17
ATOM     17  C   UNL     1      46.571   7.423  13.094  0.00  0.00    +0.000 A 
ATOM     18  C   UNL     1      47.027   6.167  13.482  0.00  0.00    +0.000 A 
ATOM     19  C   UNL     1      46.291   5.041  13.123  0.00  0.00    +0.000 A 
ATOM     20  C   UNL     1      45.109   5.178  12.392  0.00  0.00    +0.000 A 
ATOM     21  C   UNL     1      44.750   6.470  12.017  0.00  0.00    +0.000 A 
ATOM     22  N   UNL     1      45.450   7.586  12.345  0.00  0.00    +0.000 NA
BRANCH  20  23
ATOM     23  C   UNL     1      44.261   3.978  12.031  0.00  0.00    +0.000 C 
BRANCH  23  24
ATOM     24  C   UNL     1      44.948   3.094  10.966  0.00  0.00    +0.000 C 
BRANCH  24  25
ATOM     25  N   UNL     1      44.217   2.924   9.695  0.00  0.00    +0.000 NA
ATOM     26  C   UNL     1      44.580   1.703   8.947  0.00  0.00    +0.000 C 
ATOM     27  C   UNL     1      46.005   1.740   8.371  0.00  0.00    +0.000 C 
ATOM     28  O   UNL     1      46.160   2.848   7.477  0.00  0.00    +0.000 OA
ATOM     29  C   UNL     1      45.869   4.086   8.139  0.00  0.00    +0.000 C 
ATOM     30  C   UNL     1      44.473   4.082   8.795  0.00  0.00    +0.000 C 
ENDBRANCH  24  25
ENDBRANCH  23  24
ENDBRANCH  20  23
ENDBRANCH  16  17
ENDBRANCH   3  16
TORSDOF 6
ENDMDL
