MODEL 1
REMARK VINA RESULT:    -8.584      0.000      0.000
REMARK INTER + INTRA:         -13.389
REMARK INTER:                 -12.599
REMARK INTRA:                  -0.790
REMARK UNBOUND:                -0.790
REMARK  Name = 
REMARK  9 active torsions:
REMARK  status: ('A' for Active; 'I' for Inactive)
REMARK    1  A    between atoms: C_1  and  O_2
REMARK    2  A    between atoms: O_2  and  C_3
REMARK    3  A    between atoms: C_5  and  C_6
REMARK    4  A    between atoms: C_6  and  N_7
REMARK    5  A    between atoms: C_8  and  C_10
REMARK    6  A    between atoms: C_22  and  C_23
REMARK    7  A    between atoms: C_23  and  N_24
REMARK    8  A    between atoms: N_24  and  C_25
REMARK    9  A    between atoms: C_25  and  C_26
REMARK                            x       y       z     vdW  Elec       q    Type
REMARK                         _______ _______ _______ _____ _____    ______ ____
ROOT
ATOM      1  C   UNL     1      44.930   5.214  11.729  0.00  0.00    +0.000 A 
ATOM      2  C   UNL     1      45.976   5.984  12.263  0.00  0.00    +0.000 A 
ATOM      3  C   UNL     1      46.930   5.415  13.111  0.00  0.00    +0.000 A 
ATOM      4  C   UNL     1      46.818   4.057  13.356  0.00  0.00    +0.000 A 
ATOM      5  N   UNL     1      45.833   3.278  12.856  0.00  0.00    +0.000 NA
ATOM      6  C   UNL     1      44.904   3.847  12.028  0.00  0.00    +0.000 A 
ENDROOT
BRANCH   1   8
ATOM      7  C   UNL     1      42.800   6.246  11.426  0.00  0.00    +0.000 C 
ATOM      8  O   UNL     1      44.087   5.922  10.916  0.00  0.00    +0.000 OA
ENDBRANCH   1   8
BRANCH   3   9
ATOM      9  C   UNL     1      48.034   6.221  13.725  0.00  0.00    +0.000 C 
BRANCH   9  10
ATOM     10  N   UNL     1      47.863   6.373  15.149  0.00  0.00    +0.000 N 
ATOM     11  C   UNL     1      48.948   6.519  15.980  0.00  0.00    +0.000 C 
ATOM     12  O   UNL     1      50.097   6.574  15.542  0.00  0.00    +0.000 OA
ATOM     13  H   UNL     1      46.970   6.097  15.544  0.00  0.00    +0.000 HD
BRANCH  11  14
ATOM     14  C   UNL     1      48.666   6.675  17.411  0.00  0.00    +0.000 A 
ATOM     15  C   UNL     1      48.385   7.941  17.925  0.00  0.00    +0.000 A 
ATOM     16  S   UNL     1      48.031   7.938  19.588  0.00  0.00    +0.000 S 
ATOM     17  C   UNL     1      48.287   6.264  19.702  0.00  0.00    +0.000 A 
ATOM     18  N   UNL     1      48.168   5.616  20.893  0.00  0.00    +0.000 NA
ATOM     19  C   UNL     1      48.419   4.350  20.841  0.00  0.00    +0.000 A 
ATOM     20  N   UNL     1      48.777   3.673  19.704  0.00  0.00    +0.000 N 
ATOM     21  C   UNL     1      48.889   4.281  18.475  0.00  0.00    +0.000 A 
ATOM     22  O   UNL     1      49.184   3.642  17.470  0.00  0.00    +0.000 OA
ATOM     23  C   UNL     1      48.624   5.708  18.482  0.00  0.00    +0.000 A 
ATOM     24  H   UNL     1      48.961   2.680  19.728  0.00  0.00    +0.000 HD
ENDBRANCH  11  14
ENDBRANCH   9  10
ENDBRANCH   3   9
BRANCH   6  25
ATOM     25  C   UNL     1      43.870   2.900  11.439  0.00  0.00    +0.000 C 
BRANCH  25  26
ATOM     26  N   UNL     1      44.332   2.156  10.267  0.00  0.00    +0.000 NA
ATOM     27  H   UNL     1      43.638   1.438  10.055  0.00  0.00    +0.000 HD
BRANCH  26  28
ATOM     28  C   UNL     1      44.550   3.021   9.117  0.00  0.00    +0.000 C 
BRANCH  28  29
ATOM     29  C   UNL     1      45.672   2.472   8.280  0.00  0.00    +0.000 A 
ATOM     30  C   UNL     1      45.971   1.110   8.259  0.00  0.00    +0.000 A 
ATOM     31  C   UNL     1      47.057   0.683   7.511  0.00  0.00    +0.000 A 
ATOM     32  N   UNL     1      47.848   1.506   6.791  0.00  0.00    +0.000 NA
ATOM     33  C   UNL     1      47.540   2.819   6.823  0.00  0.00    +0.000 A 
ATOM     34  C   UNL     1      46.475   3.341   7.533  0.00  0.00    +0.000 A 
ENDBRANCH  28  29
ENDBRANCH  26  28
ENDBRANCH  25  26
ENDBRANCH   6  25
TORSDOF 8
ENDMDL
MODEL 2
REMARK VINA RESULT:    -8.277      1.796      2.430
REMARK INTER + INTRA:         -12.938
REMARK INTER:                 -11.659
REMARK INTRA:                  -1.279
REMARK UNBOUND:                -0.790
REMARK  Name = 
REMARK  9 active torsions:
REMARK  status: ('A' for Active; 'I' for Inactive)
REMARK    1  A    between atoms: C_1  and  O_2
REMARK    2  A    between atoms: O_2  and  C_3
REMARK    3  A    between atoms: C_5  and  C_6
REMARK    4  A    between atoms: C_6  and  N_7
REMARK    5  A    between atoms: C_8  and  C_10
REMARK    6  A    between atoms: C_22  and  C_23
REMARK    7  A    between atoms: C_23  and  N_24
REMARK    8  A    between atoms: N_24  and  C_25
REMARK    9  A    between atoms: C_25  and  C_26
REMARK                            x       y       z     vdW  Elec       q    Type
REMARK                         _______ _______ _______ _____ _____    ______ ____
ROOT
ATOM      1  C   UNL     1      45.715   4.514  12.591  0.00  0.00    +0.000 A 
ATOM      2  C   UNL     1      46.366   5.671  13.048  0.00  0.00    +0.000 A 
ATOM      3  C   UNL     1      46.040   6.931  12.538  0.00  0.00    +0.000 A 
ATOM      4  C   UNL     1      45.020   6.981  11.603  0.00  0.00    +0.000 A 
ATOM      5  N   UNL     1      44.362   5.894  11.143  0.00  0.00    +0.000 NA
ATOM      6  C   UNL     1      44.691   4.666  11.649  0.00  0.00    +0.000 A 
ENDROOT
BRANCH   1   8
ATOM      7  C   UNL     1      47.126   3.491  14.221  0.00  0.00    +0.000 C 
ATOM      8  O   UNL     1      46.149   3.365  13.196  0.00  0.00    +0.000 OA
ENDBRANCH   1   8
BRANCH   3   9
ATOM      9  C   UNL     1      46.743   8.178  12.979  0.00  0.00    +0.000 C 
BRANCH   9  10
ATOM     10  N   UNL     1      47.146   8.111  14.363  0.00  0.00    +0.000 N 
ATOM     11  C   UNL     1      48.116   8.949  14.858  0.00  0.00    +0.000 C 
ATOM     12  O   UNL     1      48.641   9.815  14.160  0.00  0.00    +0.000 OA
ATOM     13  H   UNL     1      46.906   7.270  14.877  0.00  0.00    +0.000 HD
BRANCH  11  14
ATOM     14  C   UNL     1      48.447   8.806  16.281  0.00  0.00    +0.000 A 
ATOM     15  C   UNL     1      48.315   9.902  17.133  0.00  0.00    +0.000 A 
ATOM     16  S   UNL     1      48.690   9.552  18.754  0.00  0.00    +0.000 S 
ATOM     17  C   UNL     1      49.089   7.946  18.380  0.00  0.00    +0.000 A 
ATOM     18  N   UNL     1      49.525   7.088  19.343  0.00  0.00    +0.000 NA
ATOM     19  C   UNL     1      49.821   5.906  18.914  0.00  0.00    +0.000 A 
ATOM     20  N   UNL     1      49.719   5.504  17.608  0.00  0.00    +0.000 N 
ATOM     21  C   UNL     1      49.264   6.327  16.605  0.00  0.00    +0.000 A 
ATOM     22  O   UNL     1      49.158   5.929  15.449  0.00  0.00    +0.000 OA
ATOM     23  C   UNL     1      48.924   7.671  17.035  0.00  0.00    +0.000 A 
ATOM     24  H   UNL     1      49.967   4.564  17.334  0.00  0.00    +0.000 HD
ENDBRANCH  11  14
ENDBRANCH   9  10
ENDBRANCH   3   9
BRANCH   6  25
ATOM     25  C   UNL     1      43.862   3.495  11.145  0.00  0.00    +0.000 C 
BRANCH  25  26
ATOM     26  N   UNL     1      44.573   2.603  10.230  0.00  0.00    +0.000 NA
ATOM     27  H   UNL     1      44.123   1.687  10.268  0.00  0.00    +0.000 HD
BRANCH  26  28
ATOM     28  C   UNL     1      44.593   3.113   8.867  0.00  0.00    +0.000 C 
BRANCH  28  29
ATOM     29  C   UNL     1      45.746   2.503   8.118  0.00  0.00    +0.000 A 
ATOM     30  C   UNL     1      46.028   1.139   8.194  0.00  0.00    +0.000 A 
ATOM     31  C   UNL     1      47.141   0.657   7.525  0.00  0.00    +0.000 A 
ATOM     32  N   UNL     1      47.975   1.426   6.793  0.00  0.00    +0.000 NA
ATOM     33  C   UNL     1      47.683   2.742   6.731  0.00  0.00    +0.000 A 
ATOM     34  C   UNL     1      46.594   3.317   7.358  0.00  0.00    +0.000 A 
ENDBRANCH  28  29
ENDBRANCH  26  28
ENDBRANCH  25  26
ENDBRANCH   6  25
TORSDOF 8
ENDMDL
MODEL 3
REMARK VINA RESULT:    -8.228      1.873      3.068
REMARK INTER + INTRA:         -12.867
REMARK INTER:                 -11.685
REMARK INTRA:                  -1.182
REMARK UNBOUND:                -0.790
REMARK  Name = 
REMARK  9 active torsions:
REMARK  status: ('A' for Active; 'I' for Inactive)
REMARK    1  A    between atoms: C_1  and  O_2
REMARK    2  A    between atoms: O_2  and  C_3
REMARK    3  A    between atoms: C_5  and  C_6
REMARK    4  A    between atoms: C_6  and  N_7
REMARK    5  A    between atoms: C_8  and  C_10
REMARK    6  A    between atoms: C_22  and  C_23
REMARK    7  A    between atoms: C_23  and  N_24
REMARK    8  A    between atoms: N_24  and  C_25
REMARK    9  A    between atoms: C_25  and  C_26
REMARK                            x       y       z     vdW  Elec       q    Type
REMARK                         _______ _______ _______ _____ _____    ______ ____
ROOT
ATOM      1  C   UNL     1      46.152   6.246  12.317  0.00  0.00    +0.000 A 
ATOM      2  C   UNL     1      46.824   5.877  13.493  0.00  0.00    +0.000 A 
ATOM      3  C   UNL     1      46.762   4.568  13.979  0.00  0.00    +0.000 A 
ATOM      4  C   UNL     1      46.049   3.654  13.223  0.00  0.00    +0.000 A 
ATOM      5  N   UNL     1      45.395   3.964  12.082  0.00  0.00    +0.000 NA
ATOM      6  C   UNL     1      45.462   5.249  11.616  0.00  0.00    +0.000 A 
ENDROOT
BRANCH   1   8
ATOM      7  C   UNL     1      45.660   8.535  12.778  0.00  0.00    +0.000 C 
ATOM      8  O   UNL     1      46.319   7.561  11.978  0.00  0.00    +0.000 OA
ENDBRANCH   1   8
BRANCH   3   9
ATOM      9  C   UNL     1      47.438   4.155  15.251  0.00  0.00    +0.000 C 
BRANCH   9  10
ATOM     10  N   UNL     1      47.404   5.200  16.245  0.00  0.00    +0.000 N 
ATOM     11  C   UNL     1      48.541   5.569  16.922  0.00  0.00    +0.000 C 
ATOM     12  O   UNL     1      49.635   5.061  16.677  0.00  0.00    +0.000 OA
ATOM     13  H   UNL     1      46.497   5.456  16.622  0.00  0.00    +0.000 HD
BRANCH  11  14
ATOM     14  C   UNL     1      48.401   6.648  17.907  0.00  0.00    +0.000 A 
ATOM     15  C   UNL     1      48.390   6.342  19.268  0.00  0.00    +0.000 A 
ATOM     16  S   UNL     1      48.272   7.709  20.272  0.00  0.00    +0.000 S 
ATOM     17  C   UNL     1      48.182   8.757  18.939  0.00  0.00    +0.000 A 
ATOM     18  N   UNL     1      48.042  10.100  19.111  0.00  0.00    +0.000 NA
ATOM     19  C   UNL     1      47.957  10.774  18.012  0.00  0.00    +0.000 A 
ATOM     20  N   UNL     1      48.001  10.226  16.757  0.00  0.00    +0.000 N 
ATOM     21  C   UNL     1      48.164   8.878  16.534  0.00  0.00    +0.000 A 
ATOM     22  O   UNL     1      48.227   8.421  15.397  0.00  0.00    +0.000 OA
ATOM     23  C   UNL     1      48.257   8.074  17.739  0.00  0.00    +0.000 A 
ATOM     24  H   UNL     1      47.930  10.807  15.934  0.00  0.00    +0.000 HD
ENDBRANCH  11  14
ENDBRANCH   9  10
ENDBRANCH   3   9
BRANCH   6  25
ATOM     25  C   UNL     1      44.768   5.513  10.289  0.00  0.00    +0.000 C 
BRANCH  25  26
ATOM     26  N   UNL     1      45.532   5.089   9.115  0.00  0.00    +0.000 NA
ATOM     27  H   UNL     1      46.470   4.829   9.426  0.00  0.00    +0.000 HD
BRANCH  26  28
ATOM     28  C   UNL     1      44.895   3.986   8.412  0.00  0.00    +0.000 C 
BRANCH  28  29
ATOM     29  C   UNL     1      45.947   3.047   7.890  0.00  0.00    +0.000 A 
ATOM     30  C   UNL     1      46.926   3.471   6.991  0.00  0.00    +0.000 A 
ATOM     31  C   UNL     1      47.827   2.537   6.506  0.00  0.00    +0.000 A 
ATOM     32  N   UNL     1      47.825   1.233   6.854  0.00  0.00    +0.000 NA
ATOM     33  C   UNL     1      46.871   0.844   7.726  0.00  0.00    +0.000 A 
ATOM     34  C   UNL     1      45.932   1.700   8.270  0.00  0.00    +0.000 A 
ENDBRANCH  28  29
ENDBRANCH  26  28
ENDBRANCH  25  26
ENDBRANCH   6  25
TORSDOF 8
ENDMDL
MODEL 4
REMARK VINA RESULT:    -7.868      2.454      2.918
REMARK INTER + INTRA:         -12.337
REMARK INTER:                 -11.144
REMARK INTRA:                  -1.194
REMARK UNBOUND:                -0.790
REMARK  Name = 
REMARK  9 active torsions:
REMARK  status: ('A' for Active; 'I' for Inactive)
REMARK    1  A    between atoms: C_1  and  O_2
REMARK    2  A    between atoms: O_2  and  C_3
REMARK    3  A    between atoms: C_5  and  C_6
REMARK    4  A    between atoms: C_6  and  N_7
REMARK    5  A    between atoms: C_8  and  C_10
REMARK    6  A    between atoms: C_22  and  C_23
REMARK    7  A    between atoms: C_23  and  N_24
REMARK    8  A    between atoms: N_24  and  C_25
REMARK    9  A    between atoms: C_25  and  C_26
REMARK                            x       y       z     vdW  Elec       q    Type
REMARK                         _______ _______ _______ _____ _____    ______ ____
ROOT
ATOM      1  C   UNL     1      46.165   5.639  12.532  0.00  0.00    +0.000 A 
ATOM      2  C   UNL     1      47.123   6.374  13.248  0.00  0.00    +0.000 A 
ATOM      3  C   UNL     1      47.576   5.944  14.498  0.00  0.00    +0.000 A 
ATOM      4  C   UNL     1      47.071   4.743  14.966  0.00  0.00    +0.000 A 
ATOM      5  N   UNL     1      46.155   4.000  14.306  0.00  0.00    +0.000 NA
ATOM      6  C   UNL     1      45.718   4.432  13.084  0.00  0.00    +0.000 A 
ENDROOT
BRANCH   1   8
ATOM      7  C   UNL     1      44.642   6.968  11.265  0.00  0.00    +0.000 C 
ATOM      8  O   UNL     1      45.834   6.195  11.327  0.00  0.00    +0.000 OA
ENDBRANCH   1   8
BRANCH   3   9
ATOM      9  C   UNL     1      48.569   6.728  15.301  0.00  0.00    +0.000 C 
BRANCH   9  10
ATOM     10  N   UNL     1      49.636   5.896  15.801  0.00  0.00    +0.000 N 
ATOM     11  C   UNL     1      49.977   5.908  17.133  0.00  0.00    +0.000 C 
ATOM     12  O   UNL     1      49.360   6.586  17.953  0.00  0.00    +0.000 OA
ATOM     13  H   UNL     1      50.294   5.524  15.124  0.00  0.00    +0.000 HD
BRANCH  11  14
ATOM     14  C   UNL     1      51.071   5.020  17.541  0.00  0.00    +0.000 A 
ATOM     15  C   UNL     1      52.247   5.566  18.054  0.00  0.00    +0.000 A 
ATOM     16  S   UNL     1      53.391   4.398  18.525  0.00  0.00    +0.000 S 
ATOM     17  C   UNL     1      52.390   3.124  18.020  0.00  0.00    +0.000 A 
ATOM     18  N   UNL     1      52.796   1.829  18.124  0.00  0.00    +0.000 NA
ATOM     19  C   UNL     1      51.947   0.965  17.675  0.00  0.00    +0.000 A 
ATOM     20  N   UNL     1      50.729   1.278  17.133  0.00  0.00    +0.000 N 
ATOM     21  C   UNL     1      50.267   2.569  17.027  0.00  0.00    +0.000 A 
ATOM     22  O   UNL     1      49.158   2.816  16.561  0.00  0.00    +0.000 OA
ATOM     23  C   UNL     1      51.188   3.581  17.511  0.00  0.00    +0.000 A 
ATOM     24  H   UNL     1      50.108   0.554  16.799  0.00  0.00    +0.000 HD
ENDBRANCH  11  14
ENDBRANCH   9  10
ENDBRANCH   3   9
BRANCH   6  25
ATOM     25  C   UNL     1      44.746   3.512  12.362  0.00  0.00    +0.000 C 
BRANCH  25  26
ATOM     26  N   UNL     1      45.313   2.835  11.195  0.00  0.00    +0.000 NA
ATOM     27  H   UNL     1      45.329   1.832  11.389  0.00  0.00    +0.000 HD
BRANCH  26  28
ATOM     28  C   UNL     1      44.565   3.115   9.978  0.00  0.00    +0.000 C 
BRANCH  28  29
ATOM     29  C   UNL     1      45.439   2.863   8.781  0.00  0.00    +0.000 A 
ATOM     30  C   UNL     1      45.949   1.595   8.500  0.00  0.00    +0.000 A 
ATOM     31  C   UNL     1      46.796   1.450   7.414  0.00  0.00    +0.000 A 
ATOM     32  N   UNL     1      47.159   2.462   6.598  0.00  0.00    +0.000 NA
ATOM     33  C   UNL     1      46.654   3.680   6.886  0.00  0.00    +0.000 A 
ATOM     34  C   UNL     1      45.797   3.925   7.942  0.00  0.00    +0.000 A 
ENDBRANCH  28  29
ENDBRANCH  26  28
ENDBRANCH  25  26
ENDBRANCH   6  25
TORSDOF 8
ENDMDL
MODEL 5
REMARK VINA RESULT:    -7.594      3.063      3.961
REMARK INTER + INTRA:         -11.936
REMARK INTER:                 -10.568
REMARK INTRA:                  -1.368
REMARK UNBOUND:                -0.790
REMARK  Name = 
REMARK  9 active torsions:
REMARK  status: ('A' for Active; 'I' for Inactive)
REMARK    1  A    between atoms: C_1  and  O_2
REMARK    2  A    between atoms: O_2  and  C_3
REMARK    3  A    between atoms: C_5  and  C_6
REMARK    4  A    between atoms: C_6  and  N_7
REMARK    5  A    between atoms: C_8  and  C_10
REMARK    6  A    between atoms: C_22  and  C_23
REMARK    7  A    between atoms: C_23  and  N_24
REMARK    8  A    between atoms: N_24  and  C_25
REMARK    9  A    between atoms: C_25  and  C_26
REMARK                            x       y       z     vdW  Elec       q    Type
REMARK                         _______ _______ _______ _____ _____    ______ ____
ROOT
ATOM      1  C   UNL     1      47.421   5.821  13.569  0.00  0.00    +0.000 A 
ATOM      2  C   UNL     1      48.201   6.332  14.618  0.00  0.00    +0.000 A 
ATOM      3  C   UNL     1      48.173   5.750  15.888  0.00  0.00    +0.000 A 
ATOM      4  C   UNL     1      47.379   4.626  16.042  0.00  0.00    +0.000 A 
ATOM      5  N   UNL     1      46.619   4.097  15.058  0.00  0.00    +0.000 NA
ATOM      6  C   UNL     1      46.654   4.677  13.819  0.00  0.00    +0.000 A 
ENDROOT
BRANCH   1   8
ATOM      7  C   UNL     1      47.105   7.847  12.348  0.00  0.00    +0.000 C 
ATOM      8  O   UNL     1      47.568   6.503  12.391  0.00  0.00    +0.000 OA
ENDBRANCH   1   8
BRANCH   3   9
ATOM      9  C   UNL     1      48.966   6.296  17.035  0.00  0.00    +0.000 C 
BRANCH   9  10
ATOM     10  N   UNL     1      49.963   5.362  17.496  0.00  0.00    +0.000 N 
ATOM     11  C   UNL     1      51.281   5.495  17.128  0.00  0.00    +0.000 C 
ATOM     12  O   UNL     1      51.668   6.436  16.436  0.00  0.00    +0.000 OA
ATOM     13  H   UNL     1      49.636   4.472  17.857  0.00  0.00    +0.000 HD
BRANCH  11  14
ATOM     14  C   UNL     1      52.217   4.497  17.657  0.00  0.00    +0.000 A 
ATOM     15  C   UNL     1      53.437   4.912  18.190  0.00  0.00    +0.000 A 
ATOM     16  S   UNL     1      54.380   3.636  18.804  0.00  0.00    +0.000 S 
ATOM     17  C   UNL     1      53.227   2.479  18.341  0.00  0.00    +0.000 A 
ATOM     18  N   UNL     1      53.438   1.153  18.561  0.00  0.00    +0.000 NA
ATOM     19  C   UNL     1      52.493   0.383  18.132  0.00  0.00    +0.000 A 
ATOM     20  N   UNL     1      51.356   0.821  17.505  0.00  0.00    +0.000 N 
ATOM     21  C   UNL     1      51.090   2.152  17.281  0.00  0.00    +0.000 A 
ATOM     22  O   UNL     1      50.049   2.514  16.741  0.00  0.00    +0.000 OA
ATOM     23  C   UNL     1      52.126   3.059  17.738  0.00  0.00    +0.000 A 
ATOM     24  H   UNL     1      50.652   0.167  17.192  0.00  0.00    +0.000 HD
ENDBRANCH  11  14
ENDBRANCH   9  10
ENDBRANCH   3   9
BRANCH   6  25
ATOM     25  C   UNL     1      45.836   3.987  12.738  0.00  0.00    +0.000 C 
BRANCH  25  26
ATOM     26  N   UNL     1      45.159   4.902  11.819  0.00  0.00    +0.000 NA
ATOM     27  H   UNL     1      45.873   5.406  11.291  0.00  0.00    +0.000 HD
BRANCH  26  28
ATOM     28  C   UNL     1      44.246   4.207  10.923  0.00  0.00    +0.000 C 
BRANCH  28  29
ATOM     29  C   UNL     1      45.011   3.669   9.745  0.00  0.00    +0.000 A 
ATOM     30  C   UNL     1      45.561   4.514   8.781  0.00  0.00    +0.000 A 
ATOM     31  C   UNL     1      46.201   3.945   7.692  0.00  0.00    +0.000 A 
ATOM     32  N   UNL     1      46.333   2.615   7.503  0.00  0.00    +0.000 NA
ATOM     33  C   UNL     1      45.795   1.815   8.448  0.00  0.00    +0.000 A 
ATOM     34  C   UNL     1      45.143   2.287   9.572  0.00  0.00    +0.000 A 
ENDBRANCH  28  29
ENDBRANCH  26  28
ENDBRANCH  25  26
ENDBRANCH   6  25
TORSDOF 8
ENDMDL
MODEL 6
REMARK VINA RESULT:    -7.324      3.425      8.391
REMARK INTER + INTRA:         -11.540
REMARK INTER:                 -10.123
REMARK INTRA:                  -1.417
REMARK UNBOUND:                -0.790
REMARK  Name = 
REMARK  9 active torsions:
REMARK  status: ('A' for Active; 'I' for Inactive)
REMARK    1  A    between atoms: C_1  and  O_2
REMARK    2  A    between atoms: O_2  and  C_3
REMARK    3  A    between atoms: C_5  and  C_6
REMARK    4  A    between atoms: C_6  and  N_7
REMARK    5  A    between atoms: C_8  and  C_10
REMARK    6  A    between atoms: C_22  and  C_23
REMARK    7  A    between atoms: C_23  and  N_24
REMARK    8  A    between atoms: N_24  and  C_25
REMARK    9  A    between atoms: C_25  and  C_26
REMARK                            x       y       z     vdW  Elec       q    Type
REMARK                         _______ _______ _______ _____ _____    ______ ____
ROOT
ATOM      1  C   UNL     1      48.631   8.667  15.827  0.00  0.00    +0.000 A 
ATOM      2  C   UNL     1      48.303   8.883  14.480  0.00  0.00    +0.000 A 
ATOM      3  C   UNL     1      48.479   7.879  13.524  0.00  0.00    +0.000 A 
ATOM      4  C   UNL     1      48.944   6.657  13.981  0.00  0.00    +0.000 A 
ATOM      5  N   UNL     1      49.264   6.404  15.269  0.00  0.00    +0.000 NA
ATOM      6  C   UNL     1      49.089   7.396  16.195  0.00  0.00    +0.000 A 
ENDROOT
BRANCH   1   8
ATOM      7  C   UNL     1      49.471  10.652  16.851  0.00  0.00    +0.000 C 
ATOM      8  O   UNL     1      48.395   9.749  16.631  0.00  0.00    +0.000 OA
ENDBRANCH   1   8
BRANCH   3   9
ATOM      9  C   UNL     1      48.173   8.093  12.073  0.00  0.00    +0.000 C 
BRANCH   9  10
ATOM     10  N   UNL     1      47.504   6.957  11.489  0.00  0.00    +0.000 N 
ATOM     11  C   UNL     1      46.134   6.918  11.387  0.00  0.00    +0.000 C 
ATOM     12  O   UNL     1      45.431   7.864  11.742  0.00  0.00    +0.000 OA
ATOM     13  H   UNL     1      48.032   6.094  11.414  0.00  0.00    +0.000 HD
BRANCH  11  14
ATOM     14  C   UNL     1      45.552   5.721  10.769  0.00  0.00    +0.000 A 
ATOM     15  C   UNL     1      45.721   5.499   9.403  0.00  0.00    +0.000 A 
ATOM     16  S   UNL     1      45.030   4.043   8.860  0.00  0.00    +0.000 S 
ATOM     17  C   UNL     1      44.437   3.675  10.407  0.00  0.00    +0.000 A 
ATOM     18  N   UNL     1      43.711   2.546  10.630  0.00  0.00    +0.000 NA
ATOM     19  C   UNL     1      43.298   2.406  11.846  0.00  0.00    +0.000 A 
ATOM     20  N   UNL     1      43.547   3.293  12.860  0.00  0.00    +0.000 N 
ATOM     21  C   UNL     1      44.293   4.436  12.688  0.00  0.00    +0.000 A 
ATOM     22  O   UNL     1      44.522   5.198  13.622  0.00  0.00    +0.000 OA
ATOM     23  C   UNL     1      44.775   4.644  11.334  0.00  0.00    +0.000 A 
ATOM     24  H   UNL     1      43.196   3.128  13.792  0.00  0.00    +0.000 HD
ENDBRANCH  11  14
ENDBRANCH   9  10
ENDBRANCH   3   9
BRANCH   6  25
ATOM     25  C   UNL     1      49.395   7.022  17.637  0.00  0.00    +0.000 C 
BRANCH  25  26
ATOM     26  N   UNL     1      48.361   6.210  18.281  0.00  0.00    +0.000 NA
ATOM     27  H   UNL     1      47.709   5.900  17.560  0.00  0.00    +0.000 HD
BRANCH  26  28
ATOM     28  C   UNL     1      48.920   5.074  18.998  0.00  0.00    +0.000 C 
BRANCH  28  29
ATOM     29  C   UNL     1      49.107   3.923  18.048  0.00  0.00    +0.000 A 
ATOM     30  C   UNL     1      50.333   3.269  17.921  0.00  0.00    +0.000 A 
ATOM     31  C   UNL     1      50.447   2.256  16.984  0.00  0.00    +0.000 A 
ATOM     32  N   UNL     1      49.440   1.852  16.181  0.00  0.00    +0.000 NA
ATOM     33  C   UNL     1      48.262   2.496  16.320  0.00  0.00    +0.000 A 
ATOM     34  C   UNL     1      48.047   3.514  17.231  0.00  0.00    +0.000 A 
ENDBRANCH  28  29
ENDBRANCH  26  28
ENDBRANCH  25  26
ENDBRANCH   6  25
TORSDOF 8
ENDMDL
MODEL 7
REMARK VINA RESULT:    -7.167      2.940      8.835
REMARK INTER + INTRA:         -11.309
REMARK INTER:                 -10.095
REMARK INTRA:                  -1.214
REMARK UNBOUND:                -0.790
REMARK  Name = 
REMARK  9 active torsions:
REMARK  status: ('A' for Active; 'I' for Inactive)
REMARK    1  A    between atoms: C_1  and  O_2
REMARK    2  A    between atoms: O_2  and  C_3
REMARK    3  A    between atoms: C_5  and  C_6
REMARK    4  A    between atoms: C_6  and  N_7
REMARK    5  A    between atoms: C_8  and  C_10
REMARK    6  A    between atoms: C_22  and  C_23
REMARK    7  A    between atoms: C_23  and  N_24
REMARK    8  A    between atoms: N_24  and  C_25
REMARK    9  A    between atoms: C_25  and  C_26
REMARK                            x       y       z     vdW  Elec       q    Type
REMARK                         _______ _______ _______ _____ _____    ______ ____
ROOT
ATOM      1  C   UNL     1      48.992   8.486  15.697  0.00  0.00    +0.000 A 
ATOM      2  C   UNL     1      48.333   8.641  14.467  0.00  0.00    +0.000 A 
ATOM      3  C   UNL     1      47.968   7.532  13.700  0.00  0.00    +0.000 A 
ATOM      4  C   UNL     1      48.246   6.285  14.232  0.00  0.00    +0.000 A 
ATOM      5  N   UNL     1      48.871   6.090  15.414  0.00  0.00    +0.000 NA
ATOM      6  C   UNL     1      49.224   7.184  16.157  0.00  0.00    +0.000 A 
ENDROOT
BRANCH   1   8
ATOM      7  C   UNL     1      48.353  10.129  17.305  0.00  0.00    +0.000 C 
ATOM      8  O   UNL     1      49.274   9.669  16.323  0.00  0.00    +0.000 OA
ENDBRANCH   1   8
BRANCH   3   9
ATOM      9  C   UNL     1      47.297   7.669  12.366  0.00  0.00    +0.000 C 
BRANCH   9  10
ATOM     10  N   UNL     1      46.675   6.438  11.946  0.00  0.00    +0.000 N 
ATOM     11  C   UNL     1      45.320   6.250  12.078  0.00  0.00    +0.000 C 
ATOM     12  O   UNL     1      44.582   7.135  12.511  0.00  0.00    +0.000 OA
ATOM     13  H   UNL     1      47.277   5.632  11.816  0.00  0.00    +0.000 HD
BRANCH  11  14
ATOM     14  C   UNL     1      44.784   4.965  11.613  0.00  0.00    +0.000 A 
ATOM     15  C   UNL     1      44.036   4.174  12.485  0.00  0.00    +0.000 A 
ATOM     16  S   UNL     1      43.449   2.746  11.774  0.00  0.00    +0.000 S 
ATOM     17  C   UNL     1      44.206   3.097  10.296  0.00  0.00    +0.000 A 
ATOM     18  N   UNL     1      44.118   2.241   9.241  0.00  0.00    +0.000 NA
ATOM     19  C   UNL     1      44.766   2.619   8.190  0.00  0.00    +0.000 A 
ATOM     20  N   UNL     1      45.493   3.776   8.096  0.00  0.00    +0.000 N 
ATOM     21  C   UNL     1      45.594   4.682   9.127  0.00  0.00    +0.000 A 
ATOM     22  O   UNL     1      46.230   5.723   9.004  0.00  0.00    +0.000 OA
ATOM     23  C   UNL     1      44.888   4.299  10.337  0.00  0.00    +0.000 A 
ATOM     24  H   UNL     1      45.979   4.016   7.244  0.00  0.00    +0.000 HD
ENDBRANCH  11  14
ENDBRANCH   9  10
ENDBRANCH   3   9
BRANCH   6  25
ATOM     25  C   UNL     1      49.854   6.894  17.510  0.00  0.00    +0.000 C 
BRANCH  25  26
ATOM     26  N   UNL     1      48.942   6.290  18.482  0.00  0.00    +0.000 NA
ATOM     27  H   UNL     1      48.067   6.073  18.001  0.00  0.00    +0.000 HD
BRANCH  26  28
ATOM     28  C   UNL     1      49.504   5.096  19.097  0.00  0.00    +0.000 C 
BRANCH  28  29
ATOM     29  C   UNL     1      49.515   3.973  18.097  0.00  0.00    +0.000 A 
ATOM     30  C   UNL     1      48.346   3.535  17.474  0.00  0.00    +0.000 A 
ATOM     31  C   UNL     1      48.424   2.456  16.609  0.00  0.00    +0.000 A 
ATOM     32  N   UNL     1      49.567   1.798  16.322  0.00  0.00    +0.000 NA
ATOM     33  C   UNL     1      50.686   2.238  16.934  0.00  0.00    +0.000 A 
ATOM     34  C   UNL     1      50.713   3.309  17.807  0.00  0.00    +0.000 A 
ENDBRANCH  28  29
ENDBRANCH  26  28
ENDBRANCH  25  26
ENDBRANCH   6  25
TORSDOF 8
ENDMDL
MODEL 8
REMARK VINA RESULT:    -6.962      4.199      5.551
REMARK INTER + INTRA:         -11.008
REMARK INTER:                  -9.915
REMARK INTRA:                  -1.093
REMARK UNBOUND:                -0.790
REMARK  Name = 
REMARK  9 active torsions:
REMARK  status: ('A' for Active; 'I' for Inactive)
REMARK    1  A    between atoms: C_1  and  O_2
REMARK    2  A    between atoms: O_2  and  C_3
REMARK    3  A    between atoms: C_5  and  C_6
REMARK    4  A    between atoms: C_6  and  N_7
REMARK    5  A    between atoms: C_8  and  C_10
REMARK    6  A    between atoms: C_22  and  C_23
REMARK    7  A    between atoms: C_23  and  N_24
REMARK    8  A    between atoms: N_24  and  C_25
REMARK    9  A    between atoms: C_25  and  C_26
REMARK                            x       y       z     vdW  Elec       q    Type
REMARK                         _______ _______ _______ _____ _____    ______ ____
ROOT
ATOM      1  C   UNL     1      45.524   5.001  12.496  0.00  0.00    +0.000 A 
ATOM      2  C   UNL     1      46.322   5.987  13.097  0.00  0.00    +0.000 A 
ATOM      3  C   UNL     1      46.145   7.340  12.796  0.00  0.00    +0.000 A 
ATOM      4  C   UNL     1      45.120   7.657  11.921  0.00  0.00    +0.000 A 
ATOM      5  N   UNL     1      44.323   6.741  11.327  0.00  0.00    +0.000 NA
ATOM      6  C   UNL     1      44.507   5.419  11.628  0.00  0.00    +0.000 A 
ENDROOT
BRANCH   1   8
ATOM      7  C   UNL     1      46.940   3.560  13.766  0.00  0.00    +0.000 C 
ATOM      8  O   UNL     1      45.823   3.729  12.902  0.00  0.00    +0.000 OA
ENDBRANCH   1   8
BRANCH   3   9
ATOM      9  C   UNL     1      47.007   8.411  13.393  0.00  0.00    +0.000 C 
BRANCH   9  10
ATOM     10  N   UNL     1      48.250   8.564  12.678  0.00  0.00    +0.000 N 
ATOM     11  C   UNL     1      49.413   8.006  13.154  0.00  0.00    +0.000 C 
ATOM     12  O   UNL     1      49.431   7.319  14.175  0.00  0.00    +0.000 OA
ATOM     13  H   UNL     1      48.302   9.304  11.986  0.00  0.00    +0.000 HD
BRANCH  11  14
ATOM     14  C   UNL     1      50.621   8.214  12.348  0.00  0.00    +0.000 A 
ATOM     15  C   UNL     1      50.740   7.584  11.109  0.00  0.00    +0.000 A 
ATOM     16  S   UNL     1      52.176   7.970  10.285  0.00  0.00    +0.000 S 
ATOM     17  C   UNL     1      52.719   8.949  11.561  0.00  0.00    +0.000 A 
ATOM     18  N   UNL     1      53.926   9.575  11.501  0.00  0.00    +0.000 NA
ATOM     19  C   UNL     1      54.225  10.263  12.552  0.00  0.00    +0.000 A 
ATOM     20  N   UNL     1      53.425  10.383  13.658  0.00  0.00    +0.000 N 
ATOM     21  C   UNL     1      52.189   9.788  13.755  0.00  0.00    +0.000 A 
ATOM     22  O   UNL     1      51.484   9.937  14.748  0.00  0.00    +0.000 OA
ATOM     23  C   UNL     1      51.808   8.995  12.600  0.00  0.00    +0.000 A 
ATOM     24  H   UNL     1      53.716  10.937  14.451  0.00  0.00    +0.000 HD
ENDBRANCH  11  14
ENDBRANCH   9  10
ENDBRANCH   3   9
BRANCH   6  25
ATOM     25  C   UNL     1      43.529   4.448  10.986  0.00  0.00    +0.000 C 
BRANCH  25  26
ATOM     26  N   UNL     1      43.893   4.033   9.630  0.00  0.00    +0.000 NA
ATOM     27  H   UNL     1      44.602   4.680   9.283  0.00  0.00    +0.000 HD
BRANCH  26  28
ATOM     28  C   UNL     1      44.377   2.661   9.585  0.00  0.00    +0.000 C 
BRANCH  28  29
ATOM     29  C   UNL     1      45.459   2.543   8.548  0.00  0.00    +0.000 A 
ATOM     30  C   UNL     1      46.089   1.327   8.282  0.00  0.00    +0.000 A 
ATOM     31  C   UNL     1      47.118   1.305   7.355  0.00  0.00    +0.000 A 
ATOM     32  N   UNL     1      47.552   2.391   6.682  0.00  0.00    +0.000 NA
ATOM     33  C   UNL     1      46.929   3.557   6.953  0.00  0.00    +0.000 A 
ATOM     34  C   UNL     1      45.889   3.680   7.855  0.00  0.00    +0.000 A 
ENDBRANCH  28  29
ENDBRANCH  26  28
ENDBRANCH  25  26
ENDBRANCH   6  25
TORSDOF 8
ENDMDL
MODEL 9
REMARK VINA RESULT:    -6.886      4.561      9.318
REMARK INTER + INTRA:         -10.896
REMARK INTER:                  -9.976
REMARK INTRA:                  -0.920
REMARK UNBOUND:                -0.790
REMARK  Name = 
REMARK  9 active torsions:
REMARK  status: ('A' for Active; 'I' for Inactive)
REMARK    1  A    between atoms: C_1  and  O_2
REMARK    2  A    between atoms: O_2  and  C_3
REMARK    3  A    between atoms: C_5  and  C_6
REMARK    4  A    between atoms: C_6  and  N_7
REMARK    5  A    between atoms: C_8  and  C_10
REMARK    6  A    between atoms: C_22  and  C_23
REMARK    7  A    between atoms: C_23  and  N_24
REMARK    8  A    between atoms: N_24  and  C_25
REMARK    9  A    between atoms: C_25  and  C_26
REMARK                            x       y       z     vdW  Elec       q    Type
REMARK                         _______ _______ _______ _____ _____    ______ ____
ROOT
ATOM      1  C   UNL     1      50.585   4.547  17.997  0.00  0.00    +0.000 A 
ATOM      2  C   UNL     1      49.206   4.524  17.733  0.00  0.00    +0.000 A 
ATOM      3  C   UNL     1      48.602   3.408  17.148  0.00  0.00    +0.000 A 
ATOM      4  C   UNL     1      49.418   2.320  16.888  0.00  0.00    +0.000 A 
ATOM      5  N   UNL     1      50.747   2.297  17.134  0.00  0.00    +0.000 NA
ATOM      6  C   UNL     1      51.327   3.396  17.706  0.00  0.00    +0.000 A 
ENDROOT
BRANCH   1   8
ATOM      7  C   UNL     1      50.120   6.373  19.460  0.00  0.00    +0.000 C 
ATOM      8  O   UNL     1      51.014   5.710  18.576  0.00  0.00    +0.000 OA
ENDBRANCH   1   8
BRANCH   3   9
ATOM      9  C   UNL     1      47.140   3.370  16.821  0.00  0.00    +0.000 C 
BRANCH   9  10
ATOM     10  N   UNL     1      46.773   4.393  15.873  0.00  0.00    +0.000 N 
ATOM     11  C   UNL     1      46.872   4.172  14.520  0.00  0.00    +0.000 C 
ATOM     12  O   UNL     1      47.230   3.086  14.066  0.00  0.00    +0.000 OA
ATOM     13  H   UNL     1      46.708   5.345  16.217  0.00  0.00    +0.000 HD
BRANCH  11  14
ATOM     14  C   UNL     1      46.466   5.275  13.641  0.00  0.00    +0.000 A 
ATOM     15  C   UNL     1      47.340   6.339  13.421  0.00  0.00    +0.000 A 
ATOM     16  S   UNL     1      46.736   7.503  12.339  0.00  0.00    +0.000 S 
ATOM     17  C   UNL     1      45.270   6.666  12.159  0.00  0.00    +0.000 A 
ATOM     18  N   UNL     1      44.277   7.152  11.366  0.00  0.00    +0.000 NA
ATOM     19  C   UNL     1      43.207   6.429  11.344  0.00  0.00    +0.000 A 
ATOM     20  N   UNL     1      43.041   5.262  12.042  0.00  0.00    +0.000 N 
ATOM     21  C   UNL     1      44.024   4.720  12.839  0.00  0.00    +0.000 A 
ATOM     22  O   UNL     1      43.854   3.659  13.431  0.00  0.00    +0.000 OA
ATOM     23  C   UNL     1      45.246   5.501  12.904  0.00  0.00    +0.000 A 
ATOM     24  H   UNL     1      42.178   4.740  11.984  0.00  0.00    +0.000 HD
ENDBRANCH  11  14
ENDBRANCH   9  10
ENDBRANCH   3   9
BRANCH   6  25
ATOM     25  C   UNL     1      52.809   3.275  18.026  0.00  0.00    +0.000 C 
BRANCH  25  26
ATOM     26  N   UNL     1      53.162   2.091  18.810  0.00  0.00    +0.000 NA
ATOM     27  H   UNL     1      52.554   1.325  18.515  0.00  0.00    +0.000 HD
BRANCH  26  28
ATOM     28  C   UNL     1      54.563   1.728  18.660  0.00  0.00    +0.000 C 
BRANCH  28  29
ATOM     29  C   UNL     1      54.666   0.372  18.018  0.00  0.00    +0.000 A 
ATOM     30  C   UNL     1      54.561  -0.802  18.765  0.00  0.00    +0.000 A 
ATOM     31  C   UNL     1      54.725  -2.014  18.116  0.00  0.00    +0.000 A 
ATOM     32  N   UNL     1      54.976  -2.137  16.796  0.00  0.00    +0.000 NA
ATOM     33  C   UNL     1      55.072  -0.990  16.091  0.00  0.00    +0.000 A 
ATOM     34  C   UNL     1      54.918   0.267  16.646  0.00  0.00    +0.000 A 
ENDBRANCH  28  29
ENDBRANCH  26  28
ENDBRANCH  25  26
ENDBRANCH   6  25
TORSDOF 8
ENDMDL
