MODEL 1
REMARK VINA RESULT:    -8.171      0.000      0.000
REMARK INTER + INTRA:         -11.208
REMARK INTER:                 -10.560
REMARK INTRA:                  -0.648
REMARK UNBOUND:                -0.648
REMARK  Name = 
REMARK  5 active torsions:
REMARK  status: ('A' for Active; 'I' for Inactive)
REMARK    1  A    between atoms: C_2  and  C_4
REMARK    2  A    between atoms: C_7  and  O_8
REMARK    3  A    between atoms: O_8  and  C_9
REMARK    4  A    between atoms: C_9  and  C_10
REMARK    5  A    between atoms: C_14  and  C_15
REMARK                            x       y       z     vdW  Elec       q    Type
REMARK                         _______ _______ _______ _____ _____    ______ ____
ROOT
ATOM      1  C   UNL     1      43.468   4.539  11.055  0.00  0.00    +0.000 C 
ENDROOT
BRANCH   1   2
ATOM      2  C   UNL     1      44.540   5.349  11.747  0.00  0.00    +0.000 A 
ATOM      3  C   UNL     1      44.742   6.679  11.396  0.00  0.00    +0.000 A 
ATOM      4  N   UNL     1      45.665   7.464  11.993  0.00  0.00    +0.000 NA
ATOM      5  C   UNL     1      46.391   6.863  12.966  0.00  0.00    +0.000 A 
ATOM      6  C   UNL     1      46.227   5.529  13.336  0.00  0.00    +0.000 A 
ATOM      7  N   UNL     1      45.283   4.761  12.725  0.00  0.00    +0.000 NA
BRANCH   6   8
ATOM      8  C   UNL     1      47.024   4.875  14.376  0.00  0.00    +0.000 A 
ATOM      9  C   UNL     1      47.128   3.497  14.486  0.00  0.00    +0.000 A 
ATOM     10  N   UNL     1      47.845   2.849  15.433  0.00  0.00    +0.000 NA
ATOM     11  C   UNL     1      48.497   3.629  16.304  0.00  0.00    +0.000 A 
ATOM     12  N   UNL     1      48.489   4.968  16.311  0.00  0.00    +0.000 NA
ATOM     13  C   UNL     1      47.753   5.555  15.339  0.00  0.00    +0.000 A 
ENDBRANCH   6   8
ENDBRANCH   1   2
BRANCH   1  14
ATOM     14  O   UNL     1      43.601   4.759   9.648  0.00  0.00    +0.000 OA
BRANCH  14  18
ATOM     15  C   UNL     1      46.234   2.189   7.938  0.00  0.00    +0.000 A 
ATOM     16  C   UNL     1      46.281   3.544   7.626  0.00  0.00    +0.000 A 
ATOM     17  N   UNL     1      45.423   4.453   8.165  0.00  0.00    +0.000 NA
ATOM     18  C   UNL     1      44.527   3.945   9.039  0.00  0.00    +0.000 A 
ATOM     19  C   UNL     1      44.484   2.589   9.355  0.00  0.00    +0.000 A 
ATOM     20  N   UNL     1      45.326   1.672   8.815  0.00  0.00    +0.000 NA
BRANCH  15  22
ATOM     21  N   UNL     1      48.276   1.812   6.694  0.00  0.00    +0.000 N 
ATOM     22  C   UNL     1      47.189   1.242   7.301  0.00  0.00    +0.000 C 
ATOM     23  O   UNL     1      47.021   0.029   7.326  0.00  0.00    +0.000 OA
ATOM     24  H   UNL     1      48.972   1.222   6.262  0.00  0.00    +0.000 HD
ATOM     25  H   UNL     1      48.400   2.818   6.711  0.00  0.00    +0.000 HD
ENDBRANCH  15  22
ENDBRANCH  14  18
ENDBRANCH   1  14
TORSDOF 5
ENDMDL
MODEL 2
REMARK VINA RESULT:    -7.814      1.707      3.570
REMARK INTER + INTRA:         -10.746
REMARK INTER:                 -10.122
REMARK INTRA:                  -0.624
REMARK UNBOUND:                -0.648
REMARK  Name = 
REMARK  5 active torsions:
REMARK  status: ('A' for Active; 'I' for Inactive)
REMARK    1  A    between atoms: C_2  and  C_4
REMARK    2  A    between atoms: C_7  and  O_8
REMARK    3  A    between atoms: O_8  and  C_9
REMARK    4  A    between atoms: C_9  and  C_10
REMARK    5  A    between atoms: C_14  and  C_15
REMARK                            x       y       z     vdW  Elec       q    Type
REMARK                         _______ _______ _______ _____ _____    ______ ____
ROOT
ATOM      1  C   UNL     1      43.852   3.321  11.629  0.00  0.00    +0.000 C 
ENDROOT
BRANCH   1   2
ATOM      2  C   UNL     1      45.034   4.008  12.271  0.00  0.00    +0.000 A 
ATOM      3  C   UNL     1      45.954   3.267  13.006  0.00  0.00    +0.000 A 
ATOM      4  N   UNL     1      47.045   3.817  13.583  0.00  0.00    +0.000 NA
ATOM      5  C   UNL     1      47.186   5.152  13.398  0.00  0.00    +0.000 A 
ATOM      6  C   UNL     1      46.278   5.929  12.679  0.00  0.00    +0.000 A 
ATOM      7  N   UNL     1      45.191   5.350  12.100  0.00  0.00    +0.000 NA
BRANCH   6   8
ATOM      8  C   UNL     1      46.421   7.375  12.495  0.00  0.00    +0.000 A 
ATOM      9  C   UNL     1      45.343   8.245  12.530  0.00  0.00    +0.000 A 
ATOM     10  N   UNL     1      45.426   9.585  12.358  0.00  0.00    +0.000 NA
ATOM     11  C   UNL     1      46.656  10.070  12.150  0.00  0.00    +0.000 A 
ATOM     12  N   UNL     1      47.782   9.347  12.097  0.00  0.00    +0.000 NA
ATOM     13  C   UNL     1      47.631   8.015  12.277  0.00  0.00    +0.000 A 
ENDBRANCH   6   8
ENDBRANCH   1   2
BRANCH   1  14
ATOM     14  O   UNL     1      43.686   3.877  10.322  0.00  0.00    +0.000 OA
BRANCH  14  18
ATOM     15  C   UNL     1      46.424   2.740   7.553  0.00  0.00    +0.000 A 
ATOM     16  C   UNL     1      45.838   1.789   8.382  0.00  0.00    +0.000 A 
ATOM     17  N   UNL     1      44.916   2.110   9.331  0.00  0.00    +0.000 NA
ATOM     18  C   UNL     1      44.600   3.423   9.401  0.00  0.00    +0.000 A 
ATOM     19  C   UNL     1      45.183   4.372   8.565  0.00  0.00    +0.000 A 
ATOM     20  N   UNL     1      46.112   4.066   7.625  0.00  0.00    +0.000 NA
BRANCH  15  22
ATOM     21  N   UNL     1      47.371   2.966   5.336  0.00  0.00    +0.000 N 
ATOM     22  C   UNL     1      47.440   2.328   6.546  0.00  0.00    +0.000 C 
ATOM     23  O   UNL     1      48.291   1.481   6.785  0.00  0.00    +0.000 OA
ATOM     24  H   UNL     1      48.045   2.746   4.617  0.00  0.00    +0.000 HD
ATOM     25  H   UNL     1      46.669   3.680   5.176  0.00  0.00    +0.000 HD
ENDBRANCH  15  22
ENDBRANCH  14  18
ENDBRANCH   1  14
TORSDOF 5
ENDMDL
MODEL 3
REMARK VINA RESULT:    -7.783      2.109      4.474
REMARK INTER + INTRA:         -10.706
REMARK INTER:                 -10.041
REMARK INTRA:                  -0.666
REMARK UNBOUND:                -0.648
REMARK  Name = 
REMARK  5 active torsions:
REMARK  status: ('A' for Active; 'I' for Inactive)
REMARK    1  A    between atoms: C_2  and  C_4
REMARK    2  A    between atoms: C_7  and  O_8
REMARK    3  A    between atoms: O_8  and  C_9
REMARK    4  A    between atoms: C_9  and  C_10
REMARK    5  A    between atoms: C_14  and  C_15
REMARK                            x       y       z     vdW  Elec       q    Type
REMARK                         _______ _______ _______ _____ _____    ______ ____
ROOT
ATOM      1  C   UNL     1      43.932   4.219  11.477  0.00  0.00    +0.000 C 
ENDROOT
BRANCH   1   2
ATOM      2  C   UNL     1      44.780   5.424  11.811  0.00  0.00    +0.000 A 
ATOM      3  C   UNL     1      46.037   5.254  12.382  0.00  0.00    +0.000 A 
ATOM      4  N   UNL     1      46.853   6.288  12.680  0.00  0.00    +0.000 NA
ATOM      5  C   UNL     1      46.361   7.516  12.387  0.00  0.00    +0.000 A 
ATOM      6  C   UNL     1      45.101   7.727  11.828  0.00  0.00    +0.000 A 
ATOM      7  N   UNL     1      44.300   6.667  11.528  0.00  0.00    +0.000 NA
BRANCH   6   8
ATOM      8  C   UNL     1      44.562   9.055  11.528  0.00  0.00    +0.000 A 
ATOM      9  C   UNL     1      43.477   9.252  10.689  0.00  0.00    +0.000 A 
ATOM     10  N   UNL     1      42.950  10.458  10.377  0.00  0.00    +0.000 NA
ATOM     11  C   UNL     1      43.540  11.516  10.947  0.00  0.00    +0.000 A 
ATOM     12  N   UNL     1      44.588  11.471  11.780  0.00  0.00    +0.000 NA
ATOM     13  C   UNL     1      45.068  10.235  12.051  0.00  0.00    +0.000 A 
ENDBRANCH   6   8
ENDBRANCH   1   2
BRANCH   1  14
ATOM     14  O   UNL     1      43.617   4.285  10.083  0.00  0.00    +0.000 OA
BRANCH  14  18
ATOM     15  C   UNL     1      46.389   2.471   7.743  0.00  0.00    +0.000 A 
ATOM     16  C   UNL     1      46.171   3.839   7.628  0.00  0.00    +0.000 A 
ATOM     17  N   UNL     1      45.253   4.503   8.383  0.00  0.00    +0.000 NA
ATOM     18  C   UNL     1      44.576   3.736   9.266  0.00  0.00    +0.000 A 
ATOM     19  C   UNL     1      44.801   2.366   9.384  0.00  0.00    +0.000 A 
ATOM     20  N   UNL     1      45.703   1.692   8.628  0.00  0.00    +0.000 NA
BRANCH  15  22
ATOM     21  N   UNL     1      48.468   2.566   6.506  0.00  0.00    +0.000 N 
ATOM     22  C   UNL     1      47.395   1.799   6.875  0.00  0.00    +0.000 C 
ATOM     23  O   UNL     1      47.279   0.633   6.522  0.00  0.00    +0.000 OA
ATOM     24  H   UNL     1      49.196   2.163   5.934  0.00  0.00    +0.000 HD
ATOM     25  H   UNL     1      48.548   3.522   6.834  0.00  0.00    +0.000 HD
ENDBRANCH  15  22
ENDBRANCH  14  18
ENDBRANCH   1  14
TORSDOF 5
ENDMDL
MODEL 4
REMARK VINA RESULT:    -7.589      1.866      2.788
REMARK INTER + INTRA:         -10.456
REMARK INTER:                  -9.918
REMARK INTRA:                  -0.538
REMARK UNBOUND:                -0.648
REMARK  Name = 
REMARK  5 active torsions:
REMARK  status: ('A' for Active; 'I' for Inactive)
REMARK    1  A    between atoms: C_2  and  C_4
REMARK    2  A    between atoms: C_7  and  O_8
REMARK    3  A    between atoms: O_8  and  C_9
REMARK    4  A    between atoms: C_9  and  C_10
REMARK    5  A    between atoms: C_14  and  C_15
REMARK                            x       y       z     vdW  Elec       q    Type
REMARK                         _______ _______ _______ _____ _____    ______ ____
ROOT
ATOM      1  C   UNL     1      44.349   5.656  10.662  0.00  0.00    +0.000 C 
ENDROOT
BRANCH   1   2
ATOM      2  C   UNL     1      45.200   5.386  11.881  0.00  0.00    +0.000 A 
ATOM      3  C   UNL     1      44.824   4.400  12.787  0.00  0.00    +0.000 A 
ATOM      4  N   UNL     1      45.553   4.093  13.882  0.00  0.00    +0.000 NA
ATOM      5  C   UNL     1      46.688   4.817  14.042  0.00  0.00    +0.000 A 
ATOM      6  C   UNL     1      47.090   5.822  13.162  0.00  0.00    +0.000 A 
ATOM      7  N   UNL     1      46.341   6.106  12.061  0.00  0.00    +0.000 NA
BRANCH   6   8
ATOM      8  C   UNL     1      48.306   6.617  13.345  0.00  0.00    +0.000 A 
ATOM      9  C   UNL     1      48.937   6.749  14.571  0.00  0.00    +0.000 A 
ATOM     10  N   UNL     1      50.057   7.478  14.790  0.00  0.00    +0.000 NA
ATOM     11  C   UNL     1      50.569   8.093  13.717  0.00  0.00    +0.000 A 
ATOM     12  N   UNL     1      50.067   8.046  12.476  0.00  0.00    +0.000 NA
ATOM     13  C   UNL     1      48.948   7.302  12.325  0.00  0.00    +0.000 A 
ENDBRANCH   6   8
ENDBRANCH   1   2
BRANCH   1  14
ATOM     14  O   UNL     1      43.834   4.401  10.208  0.00  0.00    +0.000 OA
BRANCH  14  18
ATOM     15  C   UNL     1      46.446   2.533   7.729  0.00  0.00    +0.000 A 
ATOM     16  C   UNL     1      45.701   1.792   8.640  0.00  0.00    +0.000 A 
ATOM     17  N   UNL     1      44.812   2.362   9.499  0.00  0.00    +0.000 NA
ATOM     18  C   UNL     1      44.694   3.705   9.392  0.00  0.00    +0.000 A 
ATOM     19  C   UNL     1      45.437   4.445   8.475  0.00  0.00    +0.000 A 
ATOM     20  N   UNL     1      46.335   3.889   7.624  0.00  0.00    +0.000 NA
BRANCH  15  22
ATOM     21  N   UNL     1      48.486   2.607   6.427  0.00  0.00    +0.000 N 
ATOM     22  C   UNL     1      47.416   1.853   6.828  0.00  0.00    +0.000 C 
ATOM     23  O   UNL     1      47.275   0.689   6.475  0.00  0.00    +0.000 OA
ATOM     24  H   UNL     1      49.192   2.197   5.832  0.00  0.00    +0.000 HD
ATOM     25  H   UNL     1      48.589   3.562   6.756  0.00  0.00    +0.000 HD
ENDBRANCH  15  22
ENDBRANCH  14  18
ENDBRANCH   1  14
TORSDOF 5
ENDMDL
MODEL 5
REMARK VINA RESULT:    -7.431      1.642      2.293
REMARK INTER + INTRA:         -10.252
REMARK INTER:                  -9.646
REMARK INTRA:                  -0.606
REMARK UNBOUND:                -0.648
REMARK  Name = 
REMARK  5 active torsions:
REMARK  status: ('A' for Active; 'I' for Inactive)
REMARK    1  A    between atoms: C_2  and  C_4
REMARK    2  A    between atoms: C_7  and  O_8
REMARK    3  A    between atoms: O_8  and  C_9
REMARK    4  A    between atoms: C_9  and  C_10
REMARK    5  A    between atoms: C_14  and  C_15
REMARK                            x       y       z     vdW  Elec       q    Type
REMARK                         _______ _______ _______ _____ _____    ______ ____
ROOT
ATOM      1  C   UNL     1      44.224   4.654  11.409  0.00  0.00    +0.000 C 
ENDROOT
BRANCH   1   2
ATOM      2  C   UNL     1      44.799   6.025  11.676  0.00  0.00    +0.000 A 
ATOM      3  C   UNL     1      44.156   7.156  11.187  0.00  0.00    +0.000 A 
ATOM      4  N   UNL     1      44.605   8.411  11.412  0.00  0.00    +0.000 NA
ATOM      5  C   UNL     1      45.737   8.495  12.151  0.00  0.00    +0.000 A 
ATOM      6  C   UNL     1      46.418   7.383  12.646  0.00  0.00    +0.000 A 
ATOM      7  N   UNL     1      45.940   6.130  12.414  0.00  0.00    +0.000 NA
BRANCH   6   8
ATOM      8  C   UNL     1      47.651   7.473  13.430  0.00  0.00    +0.000 A 
ATOM      9  C   UNL     1      48.449   8.606  13.444  0.00  0.00    +0.000 A 
ATOM     10  N   UNL     1      49.599   8.733  14.146  0.00  0.00    +0.000 NA
ATOM     11  C   UNL     1      49.956   7.669  14.876  0.00  0.00    +0.000 A 
ATOM     12  N   UNL     1      49.279   6.516  14.959  0.00  0.00    +0.000 NA
ATOM     13  C   UNL     1      48.138   6.454  14.234  0.00  0.00    +0.000 A 
ENDBRANCH   6   8
ENDBRANCH   1   2
BRANCH   1  14
ATOM     14  O   UNL     1      43.857   4.600  10.028  0.00  0.00    +0.000 OA
BRANCH  14  18
ATOM     15  C   UNL     1      46.474   2.500   7.748  0.00  0.00    +0.000 A 
ATOM     16  C   UNL     1      46.403   3.884   7.629  0.00  0.00    +0.000 A 
ATOM     17  N   UNL     1      45.544   4.642   8.364  0.00  0.00    +0.000 NA
ATOM     18  C   UNL     1      44.771   3.951   9.231  0.00  0.00    +0.000 A 
ATOM     19  C   UNL     1      44.848   2.565   9.353  0.00  0.00    +0.000 A 
ATOM     20  N   UNL     1      45.691   1.799   8.617  0.00  0.00    +0.000 NA
BRANCH  15  22
ATOM     21  N   UNL     1      48.519   2.413   6.455  0.00  0.00    +0.000 N 
ATOM     22  C   UNL     1      47.423   1.725   6.902  0.00  0.00    +0.000 C 
ATOM     23  O   UNL     1      47.243   0.545   6.631  0.00  0.00    +0.000 OA
ATOM     24  H   UNL     1      49.212   1.939   5.894  0.00  0.00    +0.000 HD
ATOM     25  H   UNL     1      48.653   3.384   6.716  0.00  0.00    +0.000 HD
ENDBRANCH  15  22
ENDBRANCH  14  18
ENDBRANCH   1  14
TORSDOF 5
ENDMDL
MODEL 6
REMARK VINA RESULT:    -7.152      2.744      6.950
REMARK INTER + INTRA:          -9.891
REMARK INTER:                  -9.308
REMARK INTRA:                  -0.583
REMARK UNBOUND:                -0.648
REMARK  Name = 
REMARK  5 active torsions:
REMARK  status: ('A' for Active; 'I' for Inactive)
REMARK    1  A    between atoms: C_2  and  C_4
REMARK    2  A    between atoms: C_7  and  O_8
REMARK    3  A    between atoms: O_8  and  C_9
REMARK    4  A    between atoms: C_9  and  C_10
REMARK    5  A    between atoms: C_14  and  C_15
REMARK                            x       y       z     vdW  Elec       q    Type
REMARK                         _______ _______ _______ _____ _____    ______ ____
ROOT
ATOM      1  C   UNL     1      44.230   6.140  11.325  0.00  0.00    +0.000 C 
ENDROOT
BRANCH   1   2
ATOM      2  C   UNL     1      44.221   4.705  10.853  0.00  0.00    +0.000 A 
ATOM      3  C   UNL     1      43.418   3.767  11.494  0.00  0.00    +0.000 A 
ATOM      4  N   UNL     1      43.346   2.475  11.105  0.00  0.00    +0.000 NA
ATOM      5  C   UNL     1      44.116   2.149  10.039  0.00  0.00    +0.000 A 
ATOM      6  C   UNL     1      44.943   3.058   9.380  0.00  0.00    +0.000 A 
ATOM      7  N   UNL     1      44.991   4.357   9.785  0.00  0.00    +0.000 NA
BRANCH   6   8
ATOM      8  C   UNL     1      45.789   2.701   8.239  0.00  0.00    +0.000 A 
ATOM      9  C   UNL     1      46.371   1.451   8.100  0.00  0.00    +0.000 A 
ATOM     10  N   UNL     1      47.165   1.079   7.069  0.00  0.00    +0.000 NA
ATOM     11  C   UNL     1      47.372   2.008   6.129  0.00  0.00    +0.000 A 
ATOM     12  N   UNL     1      46.868   3.250   6.133  0.00  0.00    +0.000 NA
ATOM     13  C   UNL     1      46.084   3.559   7.191  0.00  0.00    +0.000 A 
ENDBRANCH   6   8
ENDBRANCH   1   2
BRANCH   1  14
ATOM     14  O   UNL     1      44.602   6.139  12.706  0.00  0.00    +0.000 OA
BRANCH  14  18
ATOM     15  C   UNL     1      48.471   7.150  13.390  0.00  0.00    +0.000 A 
ATOM     16  C   UNL     1      47.527   8.141  13.140  0.00  0.00    +0.000 A 
ATOM     17  N   UNL     1      46.216   7.863  12.900  0.00  0.00    +0.000 NA
ATOM     18  C   UNL     1      45.894   6.551  12.937  0.00  0.00    +0.000 A 
ATOM     19  C   UNL     1      46.839   5.561  13.194  0.00  0.00    +0.000 A 
ATOM     20  N   UNL     1      48.150   5.825  13.421  0.00  0.00    +0.000 NA
BRANCH  15  22
ATOM     21  N   UNL     1      50.657   7.694  12.504  0.00  0.00    +0.000 N 
ATOM     22  C   UNL     1      49.894   7.517  13.627  0.00  0.00    +0.000 C 
ATOM     23  O   UNL     1      50.353   7.663  14.753  0.00  0.00    +0.000 OA
ATOM     24  H   UNL     1      51.626   7.965  12.596  0.00  0.00    +0.000 HD
ATOM     25  H   UNL     1      50.243   7.590  11.584  0.00  0.00    +0.000 HD
ENDBRANCH  15  22
ENDBRANCH  14  18
ENDBRANCH   1  14
TORSDOF 5
ENDMDL
MODEL 7
REMARK VINA RESULT:    -7.099      2.866      7.605
REMARK INTER + INTRA:          -9.822
REMARK INTER:                  -9.307
REMARK INTRA:                  -0.515
REMARK UNBOUND:                -0.648
REMARK  Name = 
REMARK  5 active torsions:
REMARK  status: ('A' for Active; 'I' for Inactive)
REMARK    1  A    between atoms: C_2  and  C_4
REMARK    2  A    between atoms: C_7  and  O_8
REMARK    3  A    between atoms: O_8  and  C_9
REMARK    4  A    between atoms: C_9  and  C_10
REMARK    5  A    between atoms: C_14  and  C_15
REMARK                            x       y       z     vdW  Elec       q    Type
REMARK                         _______ _______ _______ _____ _____    ______ ____
ROOT
ATOM      1  C   UNL     1      45.108   5.458  13.129  0.00  0.00    +0.000 C 
ENDROOT
BRANCH   1   2
ATOM      2  C   UNL     1      44.650   4.352  12.207  0.00  0.00    +0.000 A 
ATOM      3  C   UNL     1      43.591   3.531  12.578  0.00  0.00    +0.000 A 
ATOM      4  N   UNL     1      43.117   2.542  11.789  0.00  0.00    +0.000 NA
ATOM      5  C   UNL     1      43.750   2.400  10.599  0.00  0.00    +0.000 A 
ATOM      6  C   UNL     1      44.823   3.196  10.198  0.00  0.00    +0.000 A 
ATOM      7  N   UNL     1      45.276   4.191  11.008  0.00  0.00    +0.000 NA
BRANCH   6   8
ATOM      8  C   UNL     1      45.518   3.030   8.920  0.00  0.00    +0.000 A 
ATOM      9  C   UNL     1      45.991   1.806   8.477  0.00  0.00    +0.000 A 
ATOM     10  N   UNL     1      46.644   1.606   7.308  0.00  0.00    +0.000 NA
ATOM     11  C   UNL     1      46.819   2.692   6.547  0.00  0.00    +0.000 A 
ATOM     12  N   UNL     1      46.410   3.932   6.848  0.00  0.00    +0.000 NA
ATOM     13  C   UNL     1      45.764   4.064   8.029  0.00  0.00    +0.000 A 
ENDBRANCH   6   8
ENDBRANCH   1   2
BRANCH   1  14
ATOM     14  O   UNL     1      46.538   5.476  13.105  0.00  0.00    +0.000 OA
BRANCH  14  18
ATOM     15  C   UNL     1      48.358   4.700  16.646  0.00  0.00    +0.000 A 
ATOM     16  C   UNL     1      47.426   3.804  16.132  0.00  0.00    +0.000 A 
ATOM     17  N   UNL     1      46.781   4.011  14.951  0.00  0.00    +0.000 NA
ATOM     18  C   UNL     1      47.123   5.148  14.305  0.00  0.00    +0.000 A 
ATOM     19  C   UNL     1      48.061   6.041  14.819  0.00  0.00    +0.000 A 
ATOM     20  N   UNL     1      48.700   5.851  16.000  0.00  0.00    +0.000 NA
BRANCH  15  22
ATOM     21  N   UNL     1      49.197   3.103  18.261  0.00  0.00    +0.000 N 
ATOM     22  C   UNL     1      49.016   4.425  17.953  0.00  0.00    +0.000 C 
ATOM     23  O   UNL     1      49.384   5.321  18.701  0.00  0.00    +0.000 OA
ATOM     24  H   UNL     1      49.657   2.850  19.124  0.00  0.00    +0.000 HD
ATOM     25  H   UNL     1      48.904   2.382  17.610  0.00  0.00    +0.000 HD
ENDBRANCH  15  22
ENDBRANCH  14  18
ENDBRANCH   1  14
TORSDOF 5
ENDMDL
MODEL 8
REMARK VINA RESULT:    -6.967      2.552      7.274
REMARK INTER + INTRA:          -9.652
REMARK INTER:                  -9.155
REMARK INTRA:                  -0.497
REMARK UNBOUND:                -0.648
REMARK  Name = 
REMARK  5 active torsions:
REMARK  status: ('A' for Active; 'I' for Inactive)
REMARK    1  A    between atoms: C_2  and  C_4
REMARK    2  A    between atoms: C_7  and  O_8
REMARK    3  A    between atoms: O_8  and  C_9
REMARK    4  A    between atoms: C_9  and  C_10
REMARK    5  A    between atoms: C_14  and  C_15
REMARK                            x       y       z     vdW  Elec       q    Type
REMARK                         _______ _______ _______ _____ _____    ______ ____
ROOT
ATOM      1  C   UNL     1      44.679   6.426  11.482  0.00  0.00    +0.000 C 
ENDROOT
BRANCH   1   2
ATOM      2  C   UNL     1      44.465   5.011  10.998  0.00  0.00    +0.000 A 
ATOM      3  C   UNL     1      43.533   4.194  11.627  0.00  0.00    +0.000 A 
ATOM      4  N   UNL     1      43.276   2.929  11.227  0.00  0.00    +0.000 NA
ATOM      5  C   UNL     1      43.997   2.503  10.161  0.00  0.00    +0.000 A 
ATOM      6  C   UNL     1      44.950   3.289   9.513  0.00  0.00    +0.000 A 
ATOM      7  N   UNL     1      45.183   4.563   9.930  0.00  0.00    +0.000 NA
BRANCH   6   8
ATOM      8  C   UNL     1      45.741   2.822   8.373  0.00  0.00    +0.000 A 
ATOM      9  C   UNL     1      46.088   3.646   7.314  0.00  0.00    +0.000 A 
ATOM     10  N   UNL     1      46.809   3.257   6.237  0.00  0.00    +0.000 NA
ATOM     11  C   UNL     1      47.210   1.980   6.234  0.00  0.00    +0.000 A 
ATOM     12  N   UNL     1      46.952   1.079   7.191  0.00  0.00    +0.000 NA
ATOM     13  C   UNL     1      46.226   1.530   8.240  0.00  0.00    +0.000 A 
ENDBRANCH   6   8
ENDBRANCH   1   2
BRANCH   1  14
ATOM     14  O   UNL     1      46.061   6.743  11.295  0.00  0.00    +0.000 OA
BRANCH  14  18
ATOM     15  C   UNL     1      48.227   6.701  14.725  0.00  0.00    +0.000 A 
ATOM     16  C   UNL     1      47.814   7.912  14.178  0.00  0.00    +0.000 A 
ATOM     17  N   UNL     1      47.088   7.989  13.029  0.00  0.00    +0.000 NA
ATOM     18  C   UNL     1      46.785   6.800  12.463  0.00  0.00    +0.000 A 
ATOM     19  C   UNL     1      47.195   5.589  13.015  0.00  0.00    +0.000 A 
ATOM     20  N   UNL     1      47.929   5.500  14.152  0.00  0.00    +0.000 NA
BRANCH  15  22
ATOM     21  N   UNL     1      48.590   7.499  16.982  0.00  0.00    +0.000 N 
ATOM     22  C   UNL     1      49.035   6.684  15.976  0.00  0.00    +0.000 C 
ATOM     23  O   UNL     1      50.027   5.978  16.103  0.00  0.00    +0.000 OA
ATOM     24  H   UNL     1      49.082   7.517  17.864  0.00  0.00    +0.000 HD
ATOM     25  H   UNL     1      47.751   8.054  16.856  0.00  0.00    +0.000 HD
ENDBRANCH  15  22
ENDBRANCH  14  18
ENDBRANCH   1  14
TORSDOF 5
ENDMDL
MODEL 9
REMARK VINA RESULT:    -6.701      3.296      8.154
REMARK INTER + INTRA:          -9.307
REMARK INTER:                  -8.893
REMARK INTRA:                  -0.414
REMARK UNBOUND:                -0.648
REMARK  Name = 
REMARK  5 active torsions:
REMARK  status: ('A' for Active; 'I' for Inactive)
REMARK    1  A    between atoms: C_2  and  C_4
REMARK    2  A    between atoms: C_7  and  O_8
REMARK    3  A    between atoms: O_8  and  C_9
REMARK    4  A    between atoms: C_9  and  C_10
REMARK    5  A    between atoms: C_14  and  C_15
REMARK                            x       y       z     vdW  Elec       q    Type
REMARK                         _______ _______ _______ _____ _____    ______ ____
ROOT
ATOM      1  C   UNL     1      46.269   5.151  13.984  0.00  0.00    +0.000 C 
ENDROOT
BRANCH   1   2
ATOM      2  C   UNL     1      45.264   4.749  12.930  0.00  0.00    +0.000 A 
ATOM      3  C   UNL     1      43.903   4.824  13.204  0.00  0.00    +0.000 A 
ATOM      4  N   UNL     1      42.953   4.504  12.297  0.00  0.00    +0.000 NA
ATOM      5  C   UNL     1      43.420   4.099  11.091  0.00  0.00    +0.000 A 
ATOM      6  C   UNL     1      44.776   3.999  10.785  0.00  0.00    +0.000 A 
ATOM      7  N   UNL     1      45.713   4.336  11.713  0.00  0.00    +0.000 NA
BRANCH   6   8
ATOM      8  C   UNL     1      45.280   3.544   9.487  0.00  0.00    +0.000 A 
ATOM      9  C   UNL     1      45.657   4.419   8.481  0.00  0.00    +0.000 A 
ATOM     10  N   UNL     1      46.120   4.046   7.265  0.00  0.00    +0.000 NA
ATOM     11  C   UNL     1      46.217   2.727   7.059  0.00  0.00    +0.000 A 
ATOM     12  N   UNL     1      45.895   1.773   7.942  0.00  0.00    +0.000 NA
ATOM     13  C   UNL     1      45.438   2.212   9.138  0.00  0.00    +0.000 A 
ENDBRANCH   6   8
ENDBRANCH   1   2
BRANCH   1  14
ATOM     14  O   UNL     1      46.585   3.983  14.747  0.00  0.00    +0.000 OA
BRANCH  14  18
ATOM     15  C   UNL     1      48.750   4.548  18.132  0.00  0.00    +0.000 A 
ATOM     16  C   UNL     1      48.957   5.370  17.029  0.00  0.00    +0.000 A 
ATOM     17  N   UNL     1      48.264   5.227  15.865  0.00  0.00    +0.000 NA
ATOM     18  C   UNL     1      47.347   4.234  15.864  0.00  0.00    +0.000 A 
ATOM     19  C   UNL     1      47.137   3.416  16.972  0.00  0.00    +0.000 A 
ATOM     20  N   UNL     1      47.830   3.541  18.131  0.00  0.00    +0.000 NA
BRANCH  15  22
ATOM     21  N   UNL     1      49.096   4.093  20.484  0.00  0.00    +0.000 N 
ATOM     22  C   UNL     1      49.553   4.744  19.370  0.00  0.00    +0.000 C 
ATOM     23  O   UNL     1      50.564   5.433  19.391  0.00  0.00    +0.000 OA
ATOM     24  H   UNL     1      49.608   4.168  21.351  0.00  0.00    +0.000 HD
ATOM     25  H   UNL     1      48.268   3.509  20.430  0.00  0.00    +0.000 HD
ENDBRANCH  15  22
ENDBRANCH  14  18
ENDBRANCH   1  14
TORSDOF 5
ENDMDL
