MODEL 1
REMARK VINA RESULT:    -8.104      0.000      0.000
REMARK INTER + INTRA:          -9.876
REMARK INTER:                  -9.525
REMARK INTRA:                  -0.351
REMARK UNBOUND:                -0.351
REMARK  Name = 
REMARK  3 active torsions:
REMARK  status: ('A' for Active; 'I' for Inactive)
REMARK    1  A    between atoms: C_2  and  C_4
REMARK    2  A    between atoms: N_8  and  C_9
REMARK    3  A    between atoms: C_9  and  C_10
REMARK                            x       y       z     vdW  Elec       q    Type
REMARK                         _______ _______ _______ _____ _____    ______ ____
ROOT
ATOM      1  C   UNL     1      46.445   2.470   7.681  0.00  0.00    +0.000 A 
ATOM      2  C   UNL     1      45.622   1.887   8.613  0.00  0.00    +0.000 A 
ATOM      3  N   UNL     1      44.742   2.577   9.367  0.00  0.00    +0.000 NA
ATOM      4  C   UNL     1      44.695   3.908   9.193  0.00  0.00    +0.000 A 
ATOM      5  N   UNL     1      43.811   4.668   9.938  0.00  0.00    +0.000 N 
ATOM      6  N   UNL     1      45.466   4.570   8.320  0.00  0.00    +0.000 NA
ATOM      7  C   UNL     1      46.331   3.837   7.581  0.00  0.00    +0.000 A 
ATOM      8  H   UNL     1      44.146   5.627   9.908  0.00  0.00    +0.000 HD
ENDROOT
BRANCH   1  10
ATOM      9  N   UNL     1      48.514   2.403   6.410  0.00  0.00    +0.000 N 
ATOM     10  C   UNL     1      47.417   1.728   6.868  0.00  0.00    +0.000 C 
ATOM     11  O   UNL     1      47.258   0.540   6.626  0.00  0.00    +0.000 OA
ATOM     12  H   UNL     1      49.205   1.850   5.917  0.00  0.00    +0.000 HD
ATOM     13  H   UNL     1      48.817   3.294   6.776  0.00  0.00    +0.000 HD
ENDBRANCH   1  10
BRANCH   5  14
ATOM     14  C   UNL     1      43.621   4.168  11.290  0.00  0.00    +0.000 C 
BRANCH  14  15
ATOM     15  C   UNL     1      44.787   4.593  12.158  0.00  0.00    +0.000 A 
ATOM     16  C   UNL     1      45.149   5.937  12.227  0.00  0.00    +0.000 A 
ATOM     17  C   UNL     1      46.252   6.298  12.996  0.00  0.00    +0.000 A 
ATOM     18  C   UNL     1      46.966   5.311  13.664  0.00  0.00    +0.000 A 
ATOM     19  C   UNL     1      46.546   3.997  13.536  0.00  0.00    +0.000 A 
ATOM     20  N   UNL     1      45.480   3.616  12.799  0.00  0.00    +0.000 NA
ENDBRANCH  14  15
ENDBRANCH   5  14
TORSDOF 3
ENDMDL
MODEL 2
REMARK VINA RESULT:    -7.320      2.906      6.024
REMARK INTER + INTRA:          -8.954
REMARK INTER:                  -8.583
REMARK INTRA:                  -0.372
REMARK UNBOUND:                -0.351
REMARK  Name = 
REMARK  3 active torsions:
REMARK  status: ('A' for Active; 'I' for Inactive)
REMARK    1  A    between atoms: C_2  and  C_4
REMARK    2  A    between atoms: N_8  and  C_9
REMARK    3  A    between atoms: C_9  and  C_10
REMARK                            x       y       z     vdW  Elec       q    Type
REMARK                         _______ _______ _______ _____ _____    ______ ____
ROOT
ATOM      1  C   UNL     1      46.758   5.123  13.667  0.00  0.00    +0.000 A 
ATOM      2  C   UNL     1      45.842   5.675  12.804  0.00  0.00    +0.000 A 
ATOM      3  N   UNL     1      45.037   4.945  12.005  0.00  0.00    +0.000 NA
ATOM      4  C   UNL     1      45.165   3.608  12.059  0.00  0.00    +0.000 A 
ATOM      5  N   UNL     1      44.365   2.808  11.262  0.00  0.00    +0.000 N 
ATOM      6  N   UNL     1      46.037   2.978  12.857  0.00  0.00    +0.000 NA
ATOM      7  C   UNL     1      46.821   3.750  13.645  0.00  0.00    +0.000 A 
ATOM      8  H   UNL     1      44.820   1.902  11.201  0.00  0.00    +0.000 HD
ENDROOT
BRANCH   1  10
ATOM      9  N   UNL     1      47.663   7.269  14.357  0.00  0.00    +0.000 N 
ATOM     10  C   UNL     1      47.649   5.912  14.528  0.00  0.00    +0.000 C 
ATOM     11  O   UNL     1      48.341   5.373  15.380  0.00  0.00    +0.000 OA
ATOM     12  H   UNL     1      48.228   7.795  15.013  0.00  0.00    +0.000 HD
ATOM     13  H   UNL     1      46.951   7.778  13.855  0.00  0.00    +0.000 HD
ENDBRANCH   1  10
BRANCH   5  14
ATOM     14  C   UNL     1      44.077   3.395   9.964  0.00  0.00    +0.000 C 
BRANCH  14  15
ATOM     15  C   UNL     1      45.129   2.961   8.965  0.00  0.00    +0.000 A 
ATOM     16  C   UNL     1      45.653   3.883   8.061  0.00  0.00    +0.000 A 
ATOM     17  C   UNL     1      46.586   3.450   7.123  0.00  0.00    +0.000 A 
ATOM     18  C   UNL     1      46.961   2.112   7.106  0.00  0.00    +0.000 A 
ATOM     19  C   UNL     1      46.386   1.258   8.033  0.00  0.00    +0.000 A 
ATOM     20  N   UNL     1      45.480   1.648   8.956  0.00  0.00    +0.000 NA
ENDBRANCH  14  15
ENDBRANCH   5  14
TORSDOF 3
ENDMDL
MODEL 3
REMARK VINA RESULT:    -7.148      3.072      6.125
REMARK INTER + INTRA:          -8.752
REMARK INTER:                  -8.411
REMARK INTRA:                  -0.341
REMARK UNBOUND:                -0.351
REMARK  Name = 
REMARK  3 active torsions:
REMARK  status: ('A' for Active; 'I' for Inactive)
REMARK    1  A    between atoms: C_2  and  C_4
REMARK    2  A    between atoms: N_8  and  C_9
REMARK    3  A    between atoms: C_9  and  C_10
REMARK                            x       y       z     vdW  Elec       q    Type
REMARK                         _______ _______ _______ _____ _____    ______ ____
ROOT
ATOM      1  C   UNL     1      45.331   6.808  12.403  0.00  0.00    +0.000 A 
ATOM      2  C   UNL     1      44.265   6.433  11.623  0.00  0.00    +0.000 A 
ATOM      3  N   UNL     1      44.063   5.169  11.195  0.00  0.00    +0.000 NA
ATOM      4  C   UNL     1      44.973   4.247  11.549  0.00  0.00    +0.000 A 
ATOM      5  N   UNL     1      44.818   2.934  11.140  0.00  0.00    +0.000 N 
ATOM      6  N   UNL     1      46.052   4.519  12.295  0.00  0.00    +0.000 NA
ATOM      7  C   UNL     1      46.213   5.798  12.706  0.00  0.00    +0.000 A 
ATOM      8  H   UNL     1      45.728   2.490  11.216  0.00  0.00    +0.000 HD
ENDROOT
BRANCH   1  10
ATOM      9  N   UNL     1      44.646   9.136  12.515  0.00  0.00    +0.000 N 
ATOM     10  C   UNL     1      45.567   8.185  12.858  0.00  0.00    +0.000 C 
ATOM     11  O   UNL     1      46.545   8.465  13.536  0.00  0.00    +0.000 OA
ATOM     12  H   UNL     1      44.793  10.059  12.905  0.00  0.00    +0.000 HD
ATOM     13  H   UNL     1      43.718   8.923  12.179  0.00  0.00    +0.000 HD
ENDBRANCH   1  10
BRANCH   5  14
ATOM     14  C   UNL     1      44.228   2.811   9.817  0.00  0.00    +0.000 C 
BRANCH  14  15
ATOM     15  C   UNL     1      45.324   2.645   8.785  0.00  0.00    +0.000 A 
ATOM     16  C   UNL     1      45.709   3.730   7.999  0.00  0.00    +0.000 A 
ATOM     17  C   UNL     1      46.687   3.542   7.027  0.00  0.00    +0.000 A 
ATOM     18  C   UNL     1      47.245   2.281   6.859  0.00  0.00    +0.000 A 
ATOM     19  C   UNL     1      46.801   1.254   7.675  0.00  0.00    +0.000 A 
ATOM     20  N   UNL     1      45.855   1.404   8.629  0.00  0.00    +0.000 NA
ENDBRANCH  14  15
ENDBRANCH   5  14
TORSDOF 3
ENDMDL
MODEL 4
REMARK VINA RESULT:    -6.502      2.819      6.108
REMARK INTER + INTRA:          -7.993
REMARK INTER:                  -7.905
REMARK INTRA:                  -0.088
REMARK UNBOUND:                -0.351
REMARK  Name = 
REMARK  3 active torsions:
REMARK  status: ('A' for Active; 'I' for Inactive)
REMARK    1  A    between atoms: C_2  and  C_4
REMARK    2  A    between atoms: N_8  and  C_9
REMARK    3  A    between atoms: C_9  and  C_10
REMARK                            x       y       z     vdW  Elec       q    Type
REMARK                         _______ _______ _______ _____ _____    ______ ____
ROOT
ATOM      1  C   UNL     1      46.491   4.749  13.968  0.00  0.00    +0.000 A 
ATOM      2  C   UNL     1      46.440   3.744  13.033  0.00  0.00    +0.000 A 
ATOM      3  N   UNL     1      45.929   3.902  11.795  0.00  0.00    +0.000 NA
ATOM      4  C   UNL     1      45.433   5.111  11.484  0.00  0.00    +0.000 A 
ATOM      5  N   UNL     1      44.896   5.333  10.228  0.00  0.00    +0.000 N 
ATOM      6  N   UNL     1      45.425   6.149  12.331  0.00  0.00    +0.000 NA
ATOM      7  C   UNL     1      45.952   5.947  13.561  0.00  0.00    +0.000 A 
ATOM      8  H   UNL     1      44.304   6.155  10.300  0.00  0.00    +0.000 HD
ENDROOT
BRANCH   1  10
ATOM      9  N   UNL     1      47.822   5.576  15.823  0.00  0.00    +0.000 N 
ATOM     10  C   UNL     1      47.031   4.580  15.323  0.00  0.00    +0.000 C 
ATOM     11  O   UNL     1      46.766   3.588  15.987  0.00  0.00    +0.000 OA
ATOM     12  H   UNL     1      48.119   5.470  16.786  0.00  0.00    +0.000 HD
ATOM     13  H   UNL     1      47.871   6.505  15.429  0.00  0.00    +0.000 HD
ENDBRANCH   1  10
BRANCH   5  14
ATOM     14  C   UNL     1      44.208   4.174   9.685  0.00  0.00    +0.000 C 
BRANCH  14  15
ATOM     15  C   UNL     1      45.130   3.432   8.739  0.00  0.00    +0.000 A 
ATOM     16  C   UNL     1      45.341   2.064   8.903  0.00  0.00    +0.000 A 
ATOM     17  C   UNL     1      46.227   1.414   8.049  0.00  0.00    +0.000 A 
ATOM     18  C   UNL     1      46.883   2.144   7.065  0.00  0.00    +0.000 A 
ATOM     19  C   UNL     1      46.623   3.502   6.975  0.00  0.00    +0.000 A 
ATOM     20  N   UNL     1      45.768   4.162   7.787  0.00  0.00    +0.000 NA
ENDBRANCH  14  15
ENDBRANCH   5  14
TORSDOF 3
ENDMDL
MODEL 5
REMARK VINA RESULT:    -6.417      3.071      6.112
REMARK INTER + INTRA:          -7.894
REMARK INTER:                  -7.522
REMARK INTRA:                  -0.372
REMARK UNBOUND:                -0.351
REMARK  Name = 
REMARK  3 active torsions:
REMARK  status: ('A' for Active; 'I' for Inactive)
REMARK    1  A    between atoms: C_2  and  C_4
REMARK    2  A    between atoms: N_8  and  C_9
REMARK    3  A    between atoms: C_9  and  C_10
REMARK                            x       y       z     vdW  Elec       q    Type
REMARK                         _______ _______ _______ _____ _____    ______ ____
ROOT
ATOM      1  C   UNL     1      47.360   6.380  13.266  0.00  0.00    +0.000 A 
ATOM      2  C   UNL     1      46.527   6.966  12.344  0.00  0.00    +0.000 A 
ATOM      3  N   UNL     1      45.530   6.309  11.716  0.00  0.00    +0.000 NA
ATOM      4  C   UNL     1      45.369   5.008  12.011  0.00  0.00    +0.000 A 
ATOM      5  N   UNL     1      44.363   4.283  11.399  0.00  0.00    +0.000 N 
ATOM      6  N   UNL     1      46.139   4.345  12.886  0.00  0.00    +0.000 NA
ATOM      7  C   UNL     1      47.124   5.045  13.495  0.00  0.00    +0.000 A 
ATOM      8  H   UNL     1      44.606   3.301  11.492  0.00  0.00    +0.000 HD
ENDROOT
BRANCH   1  10
ATOM      9  N   UNL     1      48.526   8.443  13.798  0.00  0.00    +0.000 N 
ATOM     10  C   UNL     1      48.457   7.085  13.941  0.00  0.00    +0.000 C 
ATOM     11  O   UNL     1      49.272   6.477  14.621  0.00  0.00    +0.000 OA
ATOM     12  H   UNL     1      49.247   8.912  14.334  0.00  0.00    +0.000 HD
ATOM     13  H   UNL     1      47.761   9.011  13.464  0.00  0.00    +0.000 HD
ENDBRANCH   1  10
BRANCH   5  14
ATOM     14  C   UNL     1      44.118   4.686  10.024  0.00  0.00    +0.000 C 
BRANCH  14  15
ATOM     15  C   UNL     1      44.984   3.864   9.091  0.00  0.00    +0.000 A 
ATOM     16  C   UNL     1      45.045   2.480   9.238  0.00  0.00    +0.000 A 
ATOM     17  C   UNL     1      45.881   1.751   8.398  0.00  0.00    +0.000 A 
ATOM     18  C   UNL     1      46.639   2.421   7.446  0.00  0.00    +0.000 A 
ATOM     19  C   UNL     1      46.528   3.799   7.370  0.00  0.00    +0.000 A 
ATOM     20  N   UNL     1      45.724   4.535   8.170  0.00  0.00    +0.000 NA
ENDBRANCH  14  15
ENDBRANCH   5  14
TORSDOF 3
ENDMDL
MODEL 6
REMARK VINA RESULT:    -6.145      4.925      8.069
REMARK INTER + INTRA:          -7.573
REMARK INTER:                  -7.305
REMARK INTRA:                  -0.268
REMARK UNBOUND:                -0.351
REMARK  Name = 
REMARK  3 active torsions:
REMARK  status: ('A' for Active; 'I' for Inactive)
REMARK    1  A    between atoms: C_2  and  C_4
REMARK    2  A    between atoms: N_8  and  C_9
REMARK    3  A    between atoms: C_9  and  C_10
REMARK                            x       y       z     vdW  Elec       q    Type
REMARK                         _______ _______ _______ _____ _____    ______ ____
ROOT
ATOM      1  C   UNL     1      48.561   3.946  17.903  0.00  0.00    +0.000 A 
ATOM      2  C   UNL     1      47.634   4.776  17.322  0.00  0.00    +0.000 A 
ATOM      3  N   UNL     1      47.129   4.581  16.086  0.00  0.00    +0.000 NA
ATOM      4  C   UNL     1      47.582   3.521  15.397  0.00  0.00    +0.000 A 
ATOM      5  N   UNL     1      47.100   3.270  14.124  0.00  0.00    +0.000 N 
ATOM      6  N   UNL     1      48.495   2.663  15.872  0.00  0.00    +0.000 NA
ATOM      7  C   UNL     1      48.971   2.895  17.117  0.00  0.00    +0.000 A 
ATOM      8  H   UNL     1      47.773   2.662  13.667  0.00  0.00    +0.000 HD
ENDROOT
BRANCH   1  10
ATOM      9  N   UNL     1      48.502   3.567  20.301  0.00  0.00    +0.000 N 
ATOM     10  C   UNL     1      49.127   4.162  19.240  0.00  0.00    +0.000 C 
ATOM     11  O   UNL     1      50.135   4.837  19.396  0.00  0.00    +0.000 OA
ATOM     12  H   UNL     1      48.955   3.670  21.201  0.00  0.00    +0.000 HD
ATOM     13  H   UNL     1      47.832   2.818  20.208  0.00  0.00    +0.000 HD
ENDBRANCH   1  10
BRANCH   5  14
ATOM     14  C   UNL     1      46.813   4.479  13.370  0.00  0.00    +0.000 C 
BRANCH  14  15
ATOM     15  C   UNL     1      45.513   4.308  12.611  0.00  0.00    +0.000 A 
ATOM     16  C   UNL     1      45.050   5.330  11.784  0.00  0.00    +0.000 A 
ATOM     17  C   UNL     1      43.831   5.167  11.132  0.00  0.00    +0.000 A 
ATOM     18  C   UNL     1      43.106   3.999  11.330  0.00  0.00    +0.000 A 
ATOM     19  C   UNL     1      43.632   3.035  12.174  0.00  0.00    +0.000 A 
ATOM     20  N   UNL     1      44.812   3.162  12.820  0.00  0.00    +0.000 NA
ENDBRANCH  14  15
ENDBRANCH   5  14
TORSDOF 3
ENDMDL
MODEL 7
REMARK VINA RESULT:    -6.045      4.261      6.376
REMARK INTER + INTRA:          -7.456
REMARK INTER:                  -7.184
REMARK INTRA:                  -0.272
REMARK UNBOUND:                -0.351
REMARK  Name = 
REMARK  3 active torsions:
REMARK  status: ('A' for Active; 'I' for Inactive)
REMARK    1  A    between atoms: C_2  and  C_4
REMARK    2  A    between atoms: N_8  and  C_9
REMARK    3  A    between atoms: C_9  and  C_10
REMARK                            x       y       z     vdW  Elec       q    Type
REMARK                         _______ _______ _______ _____ _____    ______ ____
ROOT
ATOM      1  C   UNL     1      46.005   5.463  12.207  0.00  0.00    +0.000 A 
ATOM      2  C   UNL     1      46.884   5.905  13.164  0.00  0.00    +0.000 A 
ATOM      3  N   UNL     1      47.399   5.112  14.127  0.00  0.00    +0.000 NA
ATOM      4  C   UNL     1      47.004   3.829  14.143  0.00  0.00    +0.000 A 
ATOM      5  N   UNL     1      47.498   2.968  15.107  0.00  0.00    +0.000 N 
ATOM      6  N   UNL     1      46.140   3.308  13.261  0.00  0.00    +0.000 NA
ATOM      7  C   UNL     1      45.653   4.138  12.310  0.00  0.00    +0.000 A 
ATOM      8  H   UNL     1      46.860   2.179  15.156  0.00  0.00    +0.000 HD
ENDROOT
BRANCH   1  10
ATOM      9  N   UNL     1      45.231   5.781   9.927  0.00  0.00    +0.000 N 
ATOM     10  C   UNL     1      45.429   6.324  11.166  0.00  0.00    +0.000 C 
ATOM     11  O   UNL     1      45.121   7.483  11.406  0.00  0.00    +0.000 OA
ATOM     12  H   UNL     1      44.763   6.372   9.250  0.00  0.00    +0.000 HD
ATOM     13  H   UNL     1      45.234   4.788   9.743  0.00  0.00    +0.000 HD
ENDBRANCH   1  10
BRANCH   5  14
ATOM     14  C   UNL     1      47.717   3.610  16.393  0.00  0.00    +0.000 C 
BRANCH  14  15
ATOM     15  C   UNL     1      49.094   3.251  16.912  0.00  0.00    +0.000 A 
ATOM     16  C   UNL     1      49.830   4.186  17.638  0.00  0.00    +0.000 A 
ATOM     17  C   UNL     1      51.110   3.848  18.067  0.00  0.00    +0.000 A 
ATOM     18  C   UNL     1      51.623   2.596  17.752  0.00  0.00    +0.000 A 
ATOM     19  C   UNL     1      50.831   1.727  17.019  0.00  0.00    +0.000 A 
ATOM     20  N   UNL     1      49.584   2.025  16.591  0.00  0.00    +0.000 NA
ENDBRANCH  14  15
ENDBRANCH   5  14
TORSDOF 3
ENDMDL
MODEL 8
REMARK VINA RESULT:    -5.895      3.493      5.260
REMARK INTER + INTRA:          -7.279
REMARK INTER:                  -7.073
REMARK INTRA:                  -0.207
REMARK UNBOUND:                -0.351
REMARK  Name = 
REMARK  3 active torsions:
REMARK  status: ('A' for Active; 'I' for Inactive)
REMARK    1  A    between atoms: C_2  and  C_4
REMARK    2  A    between atoms: N_8  and  C_9
REMARK    3  A    between atoms: C_9  and  C_10
REMARK                            x       y       z     vdW  Elec       q    Type
REMARK                         _______ _______ _______ _____ _____    ______ ____
ROOT
ATOM      1  C   UNL     1      45.507   4.890  10.994  0.00  0.00    +0.000 A 
ATOM      2  C   UNL     1      45.272   3.884  11.898  0.00  0.00    +0.000 A 
ATOM      3  N   UNL     1      45.670   3.931  13.187  0.00  0.00    +0.000 NA
ATOM      4  C   UNL     1      46.346   5.022  13.582  0.00  0.00    +0.000 A 
ATOM      5  N   UNL     1      46.779   5.127  14.892  0.00  0.00    +0.000 N 
ATOM      6  N   UNL     1      46.635   6.049  12.771  0.00  0.00    +0.000 NA
ATOM      7  C   UNL     1      46.212   5.961  11.489  0.00  0.00    +0.000 A 
ATOM      8  H   UNL     1      47.518   5.824  14.905  0.00  0.00    +0.000 HD
ENDROOT
BRANCH   1  10
ATOM      9  N   UNL     1      43.811   4.440   9.314  0.00  0.00    +0.000 N 
ATOM     10  C   UNL     1      45.091   4.838   9.586  0.00  0.00    +0.000 C 
ATOM     11  O   UNL     1      45.859   5.157   8.690  0.00  0.00    +0.000 OA
ATOM     12  H   UNL     1      43.527   4.486   8.343  0.00  0.00    +0.000 HD
ATOM     13  H   UNL     1      43.076   4.405  10.005  0.00  0.00    +0.000 HD
ENDBRANCH   1  10
BRANCH   5  14
ATOM     14  C   UNL     1      47.180   3.854  15.468  0.00  0.00    +0.000 C 
BRANCH  14  15
ATOM     15  C   UNL     1      47.943   4.095  16.753  0.00  0.00    +0.000 A 
ATOM     16  C   UNL     1      47.322   4.743  17.820  0.00  0.00    +0.000 A 
ATOM     17  C   UNL     1      48.057   4.993  18.975  0.00  0.00    +0.000 A 
ATOM     18  C   UNL     1      49.389   4.602  19.031  0.00  0.00    +0.000 A 
ATOM     19  C   UNL     1      49.934   3.971  17.924  0.00  0.00    +0.000 A 
ATOM     20  N   UNL     1      49.247   3.713  16.790  0.00  0.00    +0.000 NA
ENDBRANCH  14  15
ENDBRANCH   5  14
TORSDOF 3
ENDMDL
MODEL 9
REMARK VINA RESULT:    -5.748      4.451      7.625
REMARK INTER + INTRA:          -7.107
REMARK INTER:                  -6.864
REMARK INTRA:                  -0.243
REMARK UNBOUND:                -0.351
REMARK  Name = 
REMARK  3 active torsions:
REMARK  status: ('A' for Active; 'I' for Inactive)
REMARK    1  A    between atoms: C_2  and  C_4
REMARK    2  A    between atoms: N_8  and  C_9
REMARK    3  A    between atoms: C_9  and  C_10
REMARK                            x       y       z     vdW  Elec       q    Type
REMARK                         _______ _______ _______ _____ _____    ______ ____
ROOT
ATOM      1  C   UNL     1      48.345   4.512  17.150  0.00  0.00    +0.000 A 
ATOM      2  C   UNL     1      47.383   3.746  16.538  0.00  0.00    +0.000 A 
ATOM      3  N   UNL     1      46.892   4.008  15.309  0.00  0.00    +0.000 NA
ATOM      4  C   UNL     1      47.371   5.089  14.672  0.00  0.00    +0.000 A 
ATOM      5  N   UNL     1      46.906   5.406  13.409  0.00  0.00    +0.000 N 
ATOM      6  N   UNL     1      48.300   5.903  15.191  0.00  0.00    +0.000 NA
ATOM      7  C   UNL     1      48.768   5.601  16.424  0.00  0.00    +0.000 A 
ATOM      8  H   UNL     1      47.126   6.385  13.249  0.00  0.00    +0.000 HD
ENDROOT
BRANCH   1  10
ATOM      9  N   UNL     1      48.278   3.251  19.225  0.00  0.00    +0.000 N 
ATOM     10  C   UNL     1      48.872   4.242  18.494  0.00  0.00    +0.000 C 
ATOM     11  O   UNL     1      49.822   4.874  18.936  0.00  0.00    +0.000 OA
ATOM     12  H   UNL     1      48.709   3.036  20.116  0.00  0.00    +0.000 HD
ATOM     13  H   UNL     1      47.670   2.550  18.828  0.00  0.00    +0.000 HD
ENDBRANCH   1  10
BRANCH   5  14
ATOM     14  C   UNL     1      45.498   5.096  13.220  0.00  0.00    +0.000 C 
BRANCH  14  15
ATOM     15  C   UNL     1      45.258   4.678  11.784  0.00  0.00    +0.000 A 
ATOM     16  C   UNL     1      44.651   3.454  11.508  0.00  0.00    +0.000 A 
ATOM     17  C   UNL     1      44.482   3.073  10.180  0.00  0.00    +0.000 A 
ATOM     18  C   UNL     1      44.929   3.914   9.169  0.00  0.00    +0.000 A 
ATOM     19  C   UNL     1      45.529   5.110   9.528  0.00  0.00    +0.000 A 
ATOM     20  N   UNL     1      45.706   5.509  10.807  0.00  0.00    +0.000 NA
ENDBRANCH  14  15
ENDBRANCH   5  14
TORSDOF 3
ENDMDL
