MODEL 1
REMARK VINA RESULT:    -8.157      0.000      0.000
REMARK INTER + INTRA:         -10.820
REMARK INTER:                 -10.064
REMARK INTRA:                  -0.756
REMARK UNBOUND:                -0.756
REMARK  Name = 
REMARK  5 active torsions:
REMARK  status: ('A' for Active; 'I' for Inactive)
REMARK    1  A    between atoms: C_1  and  C_2
REMARK    2  A    between atoms: C_2  and  O_3
REMARK    3  A    between atoms: C_2  and  C_13
REMARK    4  A    between atoms: O_3  and  C_4
REMARK    5  A    between atoms: C_7  and  C_8
REMARK                            x       y       z     vdW  Elec       q    Type
REMARK                         _______ _______ _______ _____ _____    ______ ____
ROOT
ATOM      1  O   UNL     1      43.708   4.722   9.856  0.00  0.00    +0.000 OA
ENDROOT
BRANCH   1   2
ATOM      2  C   UNL     1      44.572   3.858   9.245  0.00  0.00    +0.000 A 
ATOM      3  C   UNL     1      44.584   2.475   9.401  0.00  0.00    +0.000 A 
ATOM      4  C   UNL     1      45.496   1.703   8.686  0.00  0.00    +0.000 A 
ATOM      5  C   UNL     1      46.384   2.342   7.832  0.00  0.00    +0.000 A 
ATOM      6  N   UNL     1      46.410   3.689   7.645  0.00  0.00    +0.000 NA
ATOM      7  C   UNL     1      45.495   4.405   8.354  0.00  0.00    +0.000 A 
BRANCH   5   8
ATOM      8  C   UNL     1      47.360   1.515   7.061  0.00  0.00    +0.000 C 
ATOM      9  N   UNL     1      48.451   2.175   6.566  0.00  0.00    +0.000 N 
ATOM     10  O   UNL     1      47.201   0.315   6.872  0.00  0.00    +0.000 OA
ATOM     11  H   UNL     1      48.557   3.170   6.729  0.00  0.00    +0.000 HD
ATOM     12  H   UNL     1      49.136   1.662   6.028  0.00  0.00    +0.000 HD
ENDBRANCH   5   8
ENDBRANCH   1   2
BRANCH   1  14
ATOM     13  C   UNL     1      42.340   5.444  11.761  0.00  0.00    +0.000 C 
ATOM     14  C   UNL     1      43.523   4.599  11.277  0.00  0.00    +0.000 C 
BRANCH  14  15
ATOM     15  C   UNL     1      44.781   5.079  11.994  0.00  0.00    +0.000 A 
ATOM     16  C   UNL     1      45.256   6.396  11.872  0.00  0.00    +0.000 A 
ATOM     17  C   UNL     1      46.385   6.820  12.585  0.00  0.00    +0.000 A 
ATOM     18  C   UNL     1      47.046   5.933  13.431  0.00  0.00    +0.000 A 
ATOM     19 CL   UNL     1      48.428   6.466  14.310  0.00  0.00    +0.000 Cl
ATOM     20  C   UNL     1      46.577   4.630  13.568  0.00  0.00    +0.000 A 
ATOM     21  F   UNL     1      47.187   3.762  14.389  0.00  0.00    +0.000 F 
ATOM     22  C   UNL     1      45.457   4.201  12.860  0.00  0.00    +0.000 A 
ENDBRANCH  14  15
ENDBRANCH   1  14
TORSDOF 4
ENDMDL
MODEL 2
REMARK VINA RESULT:    -7.948      1.120      1.530
REMARK INTER + INTRA:         -10.563
REMARK INTER:                  -9.959
REMARK INTRA:                  -0.604
REMARK UNBOUND:                -0.756
REMARK  Name = 
REMARK  5 active torsions:
REMARK  status: ('A' for Active; 'I' for Inactive)
REMARK    1  A    between atoms: C_1  and  C_2
REMARK    2  A    between atoms: C_2  and  O_3
REMARK    3  A    between atoms: C_2  and  C_13
REMARK    4  A    between atoms: O_3  and  C_4
REMARK    5  A    between atoms: C_7  and  C_8
REMARK                            x       y       z     vdW  Elec       q    Type
REMARK                         _______ _______ _______ _____ _____    ______ ____
ROOT
ATOM      1  O   UNL     1      43.841   4.825   9.878  0.00  0.00    +0.000 OA
ENDROOT
BRANCH   1   2
ATOM      2  C   UNL     1      44.658   3.927   9.252  0.00  0.00    +0.000 A 
ATOM      3  C   UNL     1      44.643   2.547   9.437  0.00  0.00    +0.000 A 
ATOM      4  C   UNL     1      45.506   1.738   8.704  0.00  0.00    +0.000 A 
ATOM      5  C   UNL     1      46.374   2.336   7.801  0.00  0.00    +0.000 A 
ATOM      6  N   UNL     1      46.426   3.678   7.584  0.00  0.00    +0.000 NA
ATOM      7  C   UNL     1      45.558   4.432   8.313  0.00  0.00    +0.000 A 
BRANCH   5   8
ATOM      8  C   UNL     1      47.298   1.469   7.010  0.00  0.00    +0.000 C 
ATOM      9  N   UNL     1      48.382   2.092   6.456  0.00  0.00    +0.000 N 
ATOM     10  O   UNL     1      47.103   0.269   6.856  0.00  0.00    +0.000 OA
ATOM     11  H   UNL     1      48.518   3.087   6.591  0.00  0.00    +0.000 HD
ATOM     12  H   UNL     1      49.033   1.551   5.902  0.00  0.00    +0.000 HD
ENDBRANCH   5   8
ENDBRANCH   1   2
BRANCH   1  14
ATOM     13  C   UNL     1      42.413   5.475  11.765  0.00  0.00    +0.000 C 
ATOM     14  C   UNL     1      43.631   4.675  11.293  0.00  0.00    +0.000 C 
BRANCH  14  15
ATOM     15  C   UNL     1      44.860   5.182  12.043  0.00  0.00    +0.000 A 
ATOM     16  C   UNL     1      45.365   4.529  13.180  0.00  0.00    +0.000 A 
ATOM     17  C   UNL     1      46.526   4.991  13.814  0.00  0.00    +0.000 A 
ATOM     18  C   UNL     1      47.195   6.105  13.313  0.00  0.00    +0.000 A 
ATOM     19 CL   UNL     1      48.627   6.659  14.096  0.00  0.00    +0.000 Cl
ATOM     20  C   UNL     1      46.710   6.751  12.181  0.00  0.00    +0.000 A 
ATOM     21  F   UNL     1      47.346   7.816  11.671  0.00  0.00    +0.000 F 
ATOM     22  C   UNL     1      45.555   6.300  11.548  0.00  0.00    +0.000 A 
ENDBRANCH  14  15
ENDBRANCH   1  14
TORSDOF 4
ENDMDL
MODEL 3
REMARK VINA RESULT:    -7.170      4.081      6.629
REMARK INTER + INTRA:          -9.603
REMARK INTER:                  -9.032
REMARK INTRA:                  -0.571
REMARK UNBOUND:                -0.756
REMARK  Name = 
REMARK  5 active torsions:
REMARK  status: ('A' for Active; 'I' for Inactive)
REMARK    1  A    between atoms: C_1  and  C_2
REMARK    2  A    between atoms: C_2  and  O_3
REMARK    3  A    between atoms: C_2  and  C_13
REMARK    4  A    between atoms: O_3  and  C_4
REMARK    5  A    between atoms: C_7  and  C_8
REMARK                            x       y       z     vdW  Elec       q    Type
REMARK                         _______ _______ _______ _____ _____    ______ ____
ROOT
ATOM      1  O   UNL     1      45.289   4.246  11.534  0.00  0.00    +0.000 OA
ENDROOT
BRANCH   1   2
ATOM      2  C   UNL     1      45.373   5.597  11.719  0.00  0.00    +0.000 A 
ATOM      3  C   UNL     1      46.493   6.286  12.178  0.00  0.00    +0.000 A 
ATOM      4  C   UNL     1      46.460   7.674  12.284  0.00  0.00    +0.000 A 
ATOM      5  C   UNL     1      45.295   8.341  11.931  0.00  0.00    +0.000 A 
ATOM      6  N   UNL     1      44.177   7.713  11.476  0.00  0.00    +0.000 NA
ATOM      7  C   UNL     1      44.255   6.357  11.378  0.00  0.00    +0.000 A 
BRANCH   5   8
ATOM      8  C   UNL     1      45.259   9.829  12.040  0.00  0.00    +0.000 C 
ATOM      9  N   UNL     1      44.025  10.391  12.224  0.00  0.00    +0.000 N 
ATOM     10  O   UNL     1      46.269  10.520  11.964  0.00  0.00    +0.000 OA
ATOM     11  H   UNL     1      43.203   9.800  12.275  0.00  0.00    +0.000 HD
ATOM     12  H   UNL     1      43.946  11.397  12.293  0.00  0.00    +0.000 HD
ENDBRANCH   5   8
ENDBRANCH   1   2
BRANCH   1  14
ATOM     13  C   UNL     1      43.613   2.536  10.994  0.00  0.00    +0.000 C 
ATOM     14  C   UNL     1      44.400   3.760  10.513  0.00  0.00    +0.000 C 
BRANCH  14  15
ATOM     15  C   UNL     1      45.212   3.356   9.285  0.00  0.00    +0.000 A 
ATOM     16  C   UNL     1      45.732   4.304   8.388  0.00  0.00    +0.000 A 
ATOM     17  C   UNL     1      46.518   3.904   7.299  0.00  0.00    +0.000 A 
ATOM     18  C   UNL     1      46.796   2.553   7.102  0.00  0.00    +0.000 A 
ATOM     19 CL   UNL     1      47.771   2.072   5.766  0.00  0.00    +0.000 Cl
ATOM     20  C   UNL     1      46.296   1.608   7.992  0.00  0.00    +0.000 A 
ATOM     21  F   UNL     1      46.564   0.304   7.832  0.00  0.00    +0.000 F 
ATOM     22  C   UNL     1      45.511   1.999   9.074  0.00  0.00    +0.000 A 
ENDBRANCH  14  15
ENDBRANCH   1  14
TORSDOF 4
ENDMDL
MODEL 4
REMARK VINA RESULT:    -7.031      4.233      6.649
REMARK INTER + INTRA:          -9.431
REMARK INTER:                  -8.822
REMARK INTRA:                  -0.609
REMARK UNBOUND:                -0.756
REMARK  Name = 
REMARK  5 active torsions:
REMARK  status: ('A' for Active; 'I' for Inactive)
REMARK    1  A    between atoms: C_1  and  C_2
REMARK    2  A    between atoms: C_2  and  O_3
REMARK    3  A    between atoms: C_2  and  C_13
REMARK    4  A    between atoms: O_3  and  C_4
REMARK    5  A    between atoms: C_7  and  C_8
REMARK                            x       y       z     vdW  Elec       q    Type
REMARK                         _______ _______ _______ _____ _____    ______ ____
ROOT
ATOM      1  O   UNL     1      45.445   3.999  12.068  0.00  0.00    +0.000 OA
ENDROOT
BRANCH   1   2
ATOM      2  C   UNL     1      45.897   5.239  12.420  0.00  0.00    +0.000 A 
ATOM      3  C   UNL     1      45.350   6.451  12.008  0.00  0.00    +0.000 A 
ATOM      4  C   UNL     1      45.884   7.649  12.475  0.00  0.00    +0.000 A 
ATOM      5  C   UNL     1      46.965   7.603  13.343  0.00  0.00    +0.000 A 
ATOM      6  N   UNL     1      47.534   6.445  13.775  0.00  0.00    +0.000 NA
ATOM      7  C   UNL     1      46.975   5.296  13.303  0.00  0.00    +0.000 A 
BRANCH   5   8
ATOM      8  C   UNL     1      47.537   8.886  13.848  0.00  0.00    +0.000 C 
ATOM      9  N   UNL     1      47.489   9.077  15.202  0.00  0.00    +0.000 N 
ATOM     10  O   UNL     1      48.019   9.731  13.102  0.00  0.00    +0.000 OA
ATOM     11  H   UNL     1      47.078   8.368  15.798  0.00  0.00    +0.000 HD
ATOM     12  H   UNL     1      47.854   9.935  15.593  0.00  0.00    +0.000 HD
ENDBRANCH   5   8
ENDBRANCH   1   2
BRANCH   1  14
ATOM     13  C   UNL     1      43.384   2.849  11.397  0.00  0.00    +0.000 C 
ATOM     14  C   UNL     1      44.429   3.914  11.053  0.00  0.00    +0.000 C 
BRANCH  14  15
ATOM     15  C   UNL     1      45.075   3.542   9.721  0.00  0.00    +0.000 A 
ATOM     16  C   UNL     1      45.531   4.513   8.813  0.00  0.00    +0.000 A 
ATOM     17  C   UNL     1      46.166   4.138   7.622  0.00  0.00    +0.000 A 
ATOM     18  C   UNL     1      46.359   2.789   7.332  0.00  0.00    +0.000 A 
ATOM     19 CL   UNL     1      47.149   2.338   5.869  0.00  0.00    +0.000 Cl
ATOM     20  C   UNL     1      45.922   1.821   8.230  0.00  0.00    +0.000 A 
ATOM     21  F   UNL     1      46.110   0.516   7.980  0.00  0.00    +0.000 F 
ATOM     22  C   UNL     1      45.286   2.186   9.414  0.00  0.00    +0.000 A 
ENDBRANCH  14  15
ENDBRANCH   1  14
TORSDOF 4
ENDMDL
MODEL 5
REMARK VINA RESULT:    -6.369      4.287      6.753
REMARK INTER + INTRA:          -8.615
REMARK INTER:                  -7.989
REMARK INTRA:                  -0.626
REMARK UNBOUND:                -0.756
REMARK  Name = 
REMARK  5 active torsions:
REMARK  status: ('A' for Active; 'I' for Inactive)
REMARK    1  A    between atoms: C_1  and  C_2
REMARK    2  A    between atoms: C_2  and  O_3
REMARK    3  A    between atoms: C_2  and  C_13
REMARK    4  A    between atoms: O_3  and  C_4
REMARK    5  A    between atoms: C_7  and  C_8
REMARK                            x       y       z     vdW  Elec       q    Type
REMARK                         _______ _______ _______ _____ _____    ______ ____
ROOT
ATOM      1  O   UNL     1      45.231   4.991  11.979  0.00  0.00    +0.000 OA
ENDROOT
BRANCH   1   2
ATOM      2  C   UNL     1      45.830   6.214  12.079  0.00  0.00    +0.000 A 
ATOM      3  C   UNL     1      47.164   6.492  11.795  0.00  0.00    +0.000 A 
ATOM      4  C   UNL     1      47.640   7.796  11.900  0.00  0.00    +0.000 A 
ATOM      5  C   UNL     1      46.763   8.795  12.296  0.00  0.00    +0.000 A 
ATOM      6  N   UNL     1      45.452   8.575  12.584  0.00  0.00    +0.000 NA
ATOM      7  C   UNL     1      45.024   7.288  12.458  0.00  0.00    +0.000 A 
BRANCH   5   8
ATOM      8  C   UNL     1      47.271  10.195  12.406  0.00  0.00    +0.000 C 
ATOM      9  N   UNL     1      47.936  10.508  13.559  0.00  0.00    +0.000 N 
ATOM     10  O   UNL     1      47.103  11.027  11.521  0.00  0.00    +0.000 OA
ATOM     11  H   UNL     1      48.055   9.805  14.280  0.00  0.00    +0.000 HD
ATOM     12  H   UNL     1      48.290  11.446  13.687  0.00  0.00    +0.000 HD
ENDBRANCH   5   8
ENDBRANCH   1   2
BRANCH   1  14
ATOM     13  C   UNL     1      43.049   4.048  11.366  0.00  0.00    +0.000 C 
ATOM     14  C   UNL     1      44.312   4.777  10.893  0.00  0.00    +0.000 C 
BRANCH  14  15
ATOM     15  C   UNL     1      44.985   3.925   9.821  0.00  0.00    +0.000 A 
ATOM     16  C   UNL     1      44.909   2.522   9.823  0.00  0.00    +0.000 A 
ATOM     17  C   UNL     1      45.495   1.771   8.795  0.00  0.00    +0.000 A 
ATOM     18  C   UNL     1      46.155   2.417   7.752  0.00  0.00    +0.000 A 
ATOM     19 CL   UNL     1      46.864   1.485   6.489  0.00  0.00    +0.000 Cl
ATOM     20  C   UNL     1      46.225   3.806   7.735  0.00  0.00    +0.000 A 
ATOM     21  F   UNL     1      46.842   4.451   6.733  0.00  0.00    +0.000 F 
ATOM     22  C   UNL     1      45.649   4.558   8.755  0.00  0.00    +0.000 A 
ENDBRANCH  14  15
ENDBRANCH   1  14
TORSDOF 4
ENDMDL
MODEL 6
REMARK VINA RESULT:    -5.833      4.075      6.108
REMARK INTER + INTRA:          -7.954
REMARK INTER:                  -7.495
REMARK INTRA:                  -0.459
REMARK UNBOUND:                -0.756
REMARK  Name = 
REMARK  5 active torsions:
REMARK  status: ('A' for Active; 'I' for Inactive)
REMARK    1  A    between atoms: C_1  and  C_2
REMARK    2  A    between atoms: C_2  and  O_3
REMARK    3  A    between atoms: C_2  and  C_13
REMARK    4  A    between atoms: O_3  and  C_4
REMARK    5  A    between atoms: C_7  and  C_8
REMARK                            x       y       z     vdW  Elec       q    Type
REMARK                         _______ _______ _______ _____ _____    ______ ____
ROOT
ATOM      1  O   UNL     1      48.208   5.474  14.032  0.00  0.00    +0.000 OA
ENDROOT
BRANCH   1   2
ATOM      2  C   UNL     1      46.963   5.264  13.511  0.00  0.00    +0.000 A 
ATOM      3  C   UNL     1      46.101   6.251  13.039  0.00  0.00    +0.000 A 
ATOM      4  C   UNL     1      44.871   5.897  12.493  0.00  0.00    +0.000 A 
ATOM      5  C   UNL     1      44.528   4.553  12.440  0.00  0.00    +0.000 A 
ATOM      6  N   UNL     1      45.334   3.553  12.887  0.00  0.00    +0.000 NA
ATOM      7  C   UNL     1      46.533   3.941  13.403  0.00  0.00    +0.000 A 
BRANCH   5   8
ATOM      8  C   UNL     1      43.210   4.171  11.852  0.00  0.00    +0.000 C 
ATOM      9  N   UNL     1      42.252   5.147  11.832  0.00  0.00    +0.000 N 
ATOM     10  O   UNL     1      42.985   3.049  11.413  0.00  0.00    +0.000 OA
ATOM     11  H   UNL     1      42.458   6.066  12.208  0.00  0.00    +0.000 HD
ATOM     12  H   UNL     1      41.338   4.935  11.453  0.00  0.00    +0.000 HD
ENDBRANCH   5   8
ENDBRANCH   1   2
BRANCH   1  14
ATOM     13  C   UNL     1      49.637   7.378  14.628  0.00  0.00    +0.000 C 
ATOM     14  C   UNL     1      48.379   6.566  14.952  0.00  0.00    +0.000 C 
BRANCH  14  15
ATOM     15  C   UNL     1      48.513   6.017  16.370  0.00  0.00    +0.000 A 
ATOM     16  C   UNL     1      48.951   6.812  17.442  0.00  0.00    +0.000 A 
ATOM     17  C   UNL     1      49.013   6.291  18.741  0.00  0.00    +0.000 A 
ATOM     18  C   UNL     1      48.631   4.973  18.981  0.00  0.00    +0.000 A 
ATOM     19 CL   UNL     1      48.703   4.345  20.583  0.00  0.00    +0.000 Cl
ATOM     20  C   UNL     1      48.185   4.182  17.928  0.00  0.00    +0.000 A 
ATOM     21  F   UNL     1      47.797   2.915  18.137  0.00  0.00    +0.000 F 
ATOM     22  C   UNL     1      48.124   4.692  16.633  0.00  0.00    +0.000 A 
ENDBRANCH  14  15
ENDBRANCH   1  14
TORSDOF 4
ENDMDL
MODEL 7
REMARK VINA RESULT:    -5.369      3.370      4.798
REMARK INTER + INTRA:          -7.380
REMARK INTER:                  -6.819
REMARK INTRA:                  -0.561
REMARK UNBOUND:                -0.756
REMARK  Name = 
REMARK  5 active torsions:
REMARK  status: ('A' for Active; 'I' for Inactive)
REMARK    1  A    between atoms: C_1  and  C_2
REMARK    2  A    between atoms: C_2  and  O_3
REMARK    3  A    between atoms: C_2  and  C_13
REMARK    4  A    between atoms: O_3  and  C_4
REMARK    5  A    between atoms: C_7  and  C_8
REMARK                            x       y       z     vdW  Elec       q    Type
REMARK                         _______ _______ _______ _____ _____    ______ ____
ROOT
ATOM      1  O   UNL     1      46.389   6.173  13.302  0.00  0.00    +0.000 OA
ENDROOT
BRANCH   1   2
ATOM      2  C   UNL     1      45.934   5.476  12.219  0.00  0.00    +0.000 A 
ATOM      3  C   UNL     1      45.896   5.944  10.908  0.00  0.00    +0.000 A 
ATOM      4  C   UNL     1      45.443   5.113   9.886  0.00  0.00    +0.000 A 
ATOM      5  C   UNL     1      45.031   3.828  10.207  0.00  0.00    +0.000 A 
ATOM      6  N   UNL     1      45.050   3.325  11.471  0.00  0.00    +0.000 NA
ATOM      7  C   UNL     1      45.509   4.166  12.438  0.00  0.00    +0.000 A 
BRANCH   5   8
ATOM      8  C   UNL     1      44.549   2.935   9.112  0.00  0.00    +0.000 C 
ATOM      9  N   UNL     1      44.179   3.551   7.948  0.00  0.00    +0.000 N 
ATOM     10  O   UNL     1      44.478   1.718   9.238  0.00  0.00    +0.000 OA
ATOM     11  H   UNL     1      44.238   4.560   7.870  0.00  0.00    +0.000 HD
ATOM     12  H   UNL     1      43.836   2.991   7.179  0.00  0.00    +0.000 HD
ENDBRANCH   5   8
ENDBRANCH   1   2
BRANCH   1  14
ATOM     13  C   UNL     1      48.190   6.373  14.957  0.00  0.00    +0.000 C 
ATOM     14  C   UNL     1      47.812   6.296  13.474  0.00  0.00    +0.000 C 
BRANCH  14  15
ATOM     15  C   UNL     1      48.296   7.571  12.788  0.00  0.00    +0.000 A 
ATOM     16  C   UNL     1      49.490   7.615  12.049  0.00  0.00    +0.000 A 
ATOM     17  C   UNL     1      49.880   8.787  11.387  0.00  0.00    +0.000 A 
ATOM     18  C   UNL     1      49.076   9.922  11.453  0.00  0.00    +0.000 A 
ATOM     19 CL   UNL     1      49.559  11.356  10.628  0.00  0.00    +0.000 Cl
ATOM     20  C   UNL     1      47.886   9.885  12.172  0.00  0.00    +0.000 A 
ATOM     21  F   UNL     1      47.087  10.961  12.237  0.00  0.00    +0.000 F 
ATOM     22  C   UNL     1      47.494   8.724  12.835  0.00  0.00    +0.000 A 
ENDBRANCH  14  15
ENDBRANCH   1  14
TORSDOF 4
ENDMDL
MODEL 8
REMARK VINA RESULT:    -5.265      4.169      6.160
REMARK INTER + INTRA:          -7.253
REMARK INTER:                  -6.731
REMARK INTRA:                  -0.522
REMARK UNBOUND:                -0.756
REMARK  Name = 
REMARK  5 active torsions:
REMARK  status: ('A' for Active; 'I' for Inactive)
REMARK    1  A    between atoms: C_1  and  C_2
REMARK    2  A    between atoms: C_2  and  O_3
REMARK    3  A    between atoms: C_2  and  C_13
REMARK    4  A    between atoms: O_3  and  C_4
REMARK    5  A    between atoms: C_7  and  C_8
REMARK                            x       y       z     vdW  Elec       q    Type
REMARK                         _______ _______ _______ _____ _____    ______ ____
ROOT
ATOM      1  O   UNL     1      48.280   5.527  14.079  0.00  0.00    +0.000 OA
ENDROOT
BRANCH   1   2
ATOM      2  C   UNL     1      47.116   5.375  13.380  0.00  0.00    +0.000 A 
ATOM      3  C   UNL     1      46.114   4.449  13.660  0.00  0.00    +0.000 A 
ATOM      4  C   UNL     1      44.954   4.426  12.890  0.00  0.00    +0.000 A 
ATOM      5  C   UNL     1      44.828   5.333  11.848  0.00  0.00    +0.000 A 
ATOM      6  N   UNL     1      45.777   6.257  11.536  0.00  0.00    +0.000 NA
ATOM      7  C   UNL     1      46.891   6.253  12.320  0.00  0.00    +0.000 A 
BRANCH   5   8
ATOM      8  C   UNL     1      43.583   5.313  11.025  0.00  0.00    +0.000 C 
ATOM      9  N   UNL     1      43.716   4.861   9.741  0.00  0.00    +0.000 N 
ATOM     10  O   UNL     1      42.499   5.683  11.461  0.00  0.00    +0.000 OA
ATOM     11  H   UNL     1      44.625   4.568   9.400  0.00  0.00    +0.000 HD
ATOM     12  H   UNL     1      42.904   4.837   9.139  0.00  0.00    +0.000 HD
ENDBRANCH   5   8
ENDBRANCH   1   2
BRANCH   1  14
ATOM     13  C   UNL     1      49.627   7.451  14.789  0.00  0.00    +0.000 C 
ATOM     14  C   UNL     1      48.366   6.612  15.019  0.00  0.00    +0.000 C 
BRANCH  14  15
ATOM     15  C   UNL     1      48.414   6.049  16.437  0.00  0.00    +0.000 A 
ATOM     16  C   UNL     1      48.214   4.685  16.708  0.00  0.00    +0.000 A 
ATOM     17  C   UNL     1      48.317   4.192  18.015  0.00  0.00    +0.000 A 
ATOM     18  C   UNL     1      48.627   5.057  19.062  0.00  0.00    +0.000 A 
ATOM     19 CL   UNL     1      48.760   4.439  20.665  0.00  0.00    +0.000 Cl
ATOM     20  C   UNL     1      48.838   6.407  18.802  0.00  0.00    +0.000 A 
ATOM     21  F   UNL     1      49.154   7.256  19.791  0.00  0.00    +0.000 F 
ATOM     22  C   UNL     1      48.734   6.905  17.506  0.00  0.00    +0.000 A 
ENDBRANCH  14  15
ENDBRANCH   1  14
TORSDOF 4
ENDMDL
