MODEL 1
REMARK VINA RESULT:    -6.842      0.000      0.000
REMARK INTER + INTRA:          -9.297
REMARK INTER:                  -8.641
REMARK INTRA:                  -0.656
REMARK UNBOUND:                -0.656
REMARK  Name = 
REMARK  5 active torsions:
REMARK  status: ('A' for Active; 'I' for Inactive)
REMARK    1  A    between atoms: N_1  and  C_2
REMARK    2  A    between atoms: C_2  and  C_3
REMARK    3  A    between atoms: C_7  and  C_8
REMARK    4  A    between atoms: C_8  and  N_9
REMARK    5  A    between atoms: C_14  and  C_15
REMARK                            x       y       z     vdW  Elec       q    Type
REMARK                         _______ _______ _______ _____ _____    ______ ____
ROOT
ATOM      1  N   UNL     1      44.162   4.315  10.780  0.00  0.00    +0.000 N 
ATOM      2  C   UNL     1      43.615   3.093  11.112  0.00  0.00    +0.000 A 
ATOM      3  C   UNL     1      44.101   2.145  10.241  0.00  0.00    +0.000 A 
ATOM      4  C   UNL     1      44.976   2.798   9.336  0.00  0.00    +0.000 A 
ATOM      5  C   UNL     1      45.683   2.373   8.203  0.00  0.00    +0.000 A 
ATOM      6  C   UNL     1      46.432   3.338   7.549  0.00  0.00    +0.000 A 
ATOM      7  N   UNL     1      46.557   4.630   7.957  0.00  0.00    +0.000 NA
ATOM      8  C   UNL     1      45.889   5.034   9.063  0.00  0.00    +0.000 A 
ATOM      9  C   UNL     1      45.056   4.142   9.732  0.00  0.00    +0.000 A 
ENDROOT
BRANCH   6  10
ATOM     10  C   UNL     1      47.116   2.978   6.255  0.00  0.00    +0.000 C 
ATOM     11  N   UNL     1      48.456   2.708   6.356  0.00  0.00    +0.000 N 
ATOM     12  O   UNL     1      46.532   2.937   5.181  0.00  0.00    +0.000 OA
ATOM     13  H   UNL     1      48.909   2.780   7.259  0.00  0.00    +0.000 HD
ATOM     14  H   UNL     1      48.990   2.500   5.524  0.00  0.00    +0.000 HD
ENDBRANCH   6  10
BRANCH   1  15
ATOM     15  C   UNL     1      43.608   5.600  11.237  0.00  0.00    +0.000 C 
BRANCH  15  20
ATOM     16  C   UNL     1      45.039   7.550  12.299  0.00  0.00    +0.000 C 
ATOM     17  C   UNL     1      46.509   7.158  12.150  0.00  0.00    +0.000 C 
ATOM     18  C   UNL     1      46.676   5.823  12.852  0.00  0.00    +0.000 C 
ATOM     19  C   UNL     1      45.279   5.295  13.170  0.00  0.00    +0.000 C 
ATOM     20  C   UNL     1      44.257   6.221  12.496  0.00  0.00    +0.000 C 
BRANCH  16  21
ATOM     21  C   UNL     1      44.617   8.465  11.144  0.00  0.00    +0.000 C 
BRANCH  21  22
ATOM     22  N   UNL     1      43.690   9.494  11.588  0.00  0.00    +0.000 NA
ATOM     23  H   UNL     1      44.049  10.411  11.317  0.00  0.00    +0.000 HD
ATOM     24  H   UNL     1      43.658   9.503  12.607  0.00  0.00    +0.000 HD
ENDBRANCH  21  22
ENDBRANCH  16  21
ENDBRANCH  15  20
ENDBRANCH   1  15
TORSDOF 5
ENDMDL
MODEL 2
REMARK VINA RESULT:    -5.802      4.177      6.336
REMARK INTER + INTRA:          -7.984
REMARK INTER:                  -7.633
REMARK INTRA:                  -0.351
REMARK UNBOUND:                -0.656
REMARK  Name = 
REMARK  5 active torsions:
REMARK  status: ('A' for Active; 'I' for Inactive)
REMARK    1  A    between atoms: N_1  and  C_2
REMARK    2  A    between atoms: C_2  and  C_3
REMARK    3  A    between atoms: C_7  and  C_8
REMARK    4  A    between atoms: C_8  and  N_9
REMARK    5  A    between atoms: C_14  and  C_15
REMARK                            x       y       z     vdW  Elec       q    Type
REMARK                         _______ _______ _______ _____ _____    ______ ____
ROOT
ATOM      1  N   UNL     1      47.390   5.660  14.698  0.00  0.00    +0.000 N 
ATOM      2  C   UNL     1      48.284   6.686  14.474  0.00  0.00    +0.000 A 
ATOM      3  C   UNL     1      48.150   7.105  13.170  0.00  0.00    +0.000 A 
ATOM      4  C   UNL     1      47.144   6.313  12.562  0.00  0.00    +0.000 A 
ATOM      5  C   UNL     1      46.645   6.225  11.256  0.00  0.00    +0.000 A 
ATOM      6  C   UNL     1      45.651   5.283  11.040  0.00  0.00    +0.000 A 
ATOM      7  N   UNL     1      45.111   4.492  12.006  0.00  0.00    +0.000 NA
ATOM      8  C   UNL     1      45.581   4.592  13.272  0.00  0.00    +0.000 A 
ATOM      9  C   UNL     1      46.631   5.461  13.553  0.00  0.00    +0.000 A 
ENDROOT
BRANCH   6  10
ATOM     10  C   UNL     1      45.158   5.052   9.635  0.00  0.00    +0.000 C 
ATOM     11  N   UNL     1      43.838   4.700   9.527  0.00  0.00    +0.000 N 
ATOM     12  O   UNL     1      45.878   5.154   8.651  0.00  0.00    +0.000 OA
ATOM     13  H   UNL     1      43.282   4.599  10.367  0.00  0.00    +0.000 HD
ATOM     14  H   UNL     1      43.447   4.489   8.620  0.00  0.00    +0.000 HD
ENDBRANCH   6  10
BRANCH   1  15
ATOM     15  C   UNL     1      47.494   4.730  15.834  0.00  0.00    +0.000 C 
BRANCH  15  20
ATOM     16  C   UNL     1      49.188   3.646  17.547  0.00  0.00    +0.000 C 
ATOM     17  C   UNL     1      48.557   3.764  18.935  0.00  0.00    +0.000 C 
ATOM     18  C   UNL     1      48.305   5.242  19.173  0.00  0.00    +0.000 C 
ATOM     19  C   UNL     1      48.521   5.963  17.845  0.00  0.00    +0.000 C 
ATOM     20  C   UNL     1      48.725   4.901  16.755  0.00  0.00    +0.000 C 
BRANCH  16  21
ATOM     21  C   UNL     1      48.887   2.269  16.946  0.00  0.00    +0.000 C 
BRANCH  21  22
ATOM     22  N   UNL     1      49.961   1.819  16.075  0.00  0.00    +0.000 NA
ATOM     23  H   UNL     1      49.584   1.173  15.379  0.00  0.00    +0.000 HD
ATOM     24  H   UNL     1      50.631   1.274  16.618  0.00  0.00    +0.000 HD
ENDBRANCH  21  22
ENDBRANCH  16  21
ENDBRANCH  15  20
ENDBRANCH   1  15
TORSDOF 5
ENDMDL
MODEL 3
REMARK VINA RESULT:    -5.755      3.372      5.369
REMARK INTER + INTRA:          -7.924
REMARK INTER:                  -7.405
REMARK INTRA:                  -0.519
REMARK UNBOUND:                -0.656
REMARK  Name = 
REMARK  5 active torsions:
REMARK  status: ('A' for Active; 'I' for Inactive)
REMARK    1  A    between atoms: N_1  and  C_2
REMARK    2  A    between atoms: C_2  and  C_3
REMARK    3  A    between atoms: C_7  and  C_8
REMARK    4  A    between atoms: C_8  and  N_9
REMARK    5  A    between atoms: C_14  and  C_15
REMARK                            x       y       z     vdW  Elec       q    Type
REMARK                         _______ _______ _______ _____ _____    ______ ____
ROOT
ATOM      1  N   UNL     1      46.047   7.620  12.919  0.00  0.00    +0.000 N 
ATOM      2  C   UNL     1      45.402   8.516  12.092  0.00  0.00    +0.000 A 
ATOM      3  C   UNL     1      44.494   7.825  11.323  0.00  0.00    +0.000 A 
ATOM      4  C   UNL     1      44.578   6.455  11.679  0.00  0.00    +0.000 A 
ATOM      5  C   UNL     1      43.972   5.292  11.187  0.00  0.00    +0.000 A 
ATOM      6  C   UNL     1      44.340   4.102  11.796  0.00  0.00    +0.000 A 
ATOM      7  N   UNL     1      45.196   4.004  12.850  0.00  0.00    +0.000 NA
ATOM      8  C   UNL     1      45.766   5.131  13.337  0.00  0.00    +0.000 A 
ATOM      9  C   UNL     1      45.505   6.356  12.729  0.00  0.00    +0.000 A 
ENDROOT
BRANCH   6  10
ATOM     10  C   UNL     1      43.820   2.804  11.235  0.00  0.00    +0.000 C 
ATOM     11  N   UNL     1      44.505   2.318  10.152  0.00  0.00    +0.000 N 
ATOM     12  O   UNL     1      42.849   2.220  11.696  0.00  0.00    +0.000 OA
ATOM     13  H   UNL     1      45.286   2.845   9.783  0.00  0.00    +0.000 HD
ATOM     14  H   UNL     1      44.189   1.473   9.697  0.00  0.00    +0.000 HD
ENDBRANCH   6  10
BRANCH   1  15
ATOM     15  C   UNL     1      47.314   7.920  13.605  0.00  0.00    +0.000 C 
BRANCH  15  20
ATOM     16  C   UNL     1      49.902   7.429  13.811  0.00  0.00    +0.000 C 
ATOM     17  C   UNL     1      50.634   8.675  13.312  0.00  0.00    +0.000 C 
ATOM     18  C   UNL     1      50.167   8.912  11.888  0.00  0.00    +0.000 C 
ATOM     19  C   UNL     1      48.973   7.994  11.639  0.00  0.00    +0.000 C 
ATOM     20  C   UNL     1      48.597   7.331  12.971  0.00  0.00    +0.000 C 
BRANCH  16  21
ATOM     21  C   UNL     1      49.770   7.470  15.337  0.00  0.00    +0.000 C 
BRANCH  21  22
ATOM     22  N   UNL     1      49.568   6.141  15.893  0.00  0.00    +0.000 NA
ATOM     23  H   UNL     1      50.326   5.529  15.588  0.00  0.00    +0.000 HD
ATOM     24  H   UNL     1      48.717   5.737  15.503  0.00  0.00    +0.000 HD
ENDBRANCH  21  22
ENDBRANCH  16  21
ENDBRANCH  15  20
ENDBRANCH   1  15
TORSDOF 5
ENDMDL
MODEL 4
REMARK VINA RESULT:    -5.742      4.224      7.047
REMARK INTER + INTRA:          -7.908
REMARK INTER:                  -7.488
REMARK INTRA:                  -0.420
REMARK UNBOUND:                -0.656
REMARK  Name = 
REMARK  5 active torsions:
REMARK  status: ('A' for Active; 'I' for Inactive)
REMARK    1  A    between atoms: N_1  and  C_2
REMARK    2  A    between atoms: C_2  and  C_3
REMARK    3  A    between atoms: C_7  and  C_8
REMARK    4  A    between atoms: C_8  and  N_9
REMARK    5  A    between atoms: C_14  and  C_15
REMARK                            x       y       z     vdW  Elec       q    Type
REMARK                         _______ _______ _______ _____ _____    ______ ____
ROOT
ATOM      1  N   UNL     1      46.045   6.502  11.882  0.00  0.00    +0.000 N 
ATOM      2  C   UNL     1      45.135   7.534  11.787  0.00  0.00    +0.000 A 
ATOM      3  C   UNL     1      45.574   8.576  12.572  0.00  0.00    +0.000 A 
ATOM      4  C   UNL     1      46.794   8.178  13.177  0.00  0.00    +0.000 A 
ATOM      5  C   UNL     1      47.641   8.775  14.120  0.00  0.00    +0.000 A 
ATOM      6  C   UNL     1      48.757   8.042  14.493  0.00  0.00    +0.000 A 
ATOM      7  N   UNL     1      49.097   6.831  13.974  0.00  0.00    +0.000 NA
ATOM      8  C   UNL     1      48.288   6.266  13.048  0.00  0.00    +0.000 A 
ATOM      9  C   UNL     1      47.109   6.905  12.678  0.00  0.00    +0.000 A 
ENDROOT
BRANCH   6  10
ATOM     10  C   UNL     1      49.642   8.570  15.593  0.00  0.00    +0.000 C 
ATOM     11  N   UNL     1      50.338   7.618  16.292  0.00  0.00    +0.000 N 
ATOM     12  O   UNL     1      49.733   9.760  15.862  0.00  0.00    +0.000 OA
ATOM     13  H   UNL     1      50.215   6.641  16.056  0.00  0.00    +0.000 HD
ATOM     14  H   UNL     1      50.920   7.894  17.070  0.00  0.00    +0.000 HD
ENDBRANCH   6  10
BRANCH   1  15
ATOM     15  C   UNL     1      45.740   5.116  11.489  0.00  0.00    +0.000 C 
BRANCH  15  20
ATOM     16  C   UNL     1      43.802   3.731  10.346  0.00  0.00    +0.000 C 
ATOM     17  C   UNL     1      44.465   2.603   9.556  0.00  0.00    +0.000 C 
ATOM     18  C   UNL     1      45.412   3.261   8.570  0.00  0.00    +0.000 C 
ATOM     19  C   UNL     1      45.522   4.735   8.954  0.00  0.00    +0.000 C 
ATOM     20  C   UNL     1      44.785   4.935  10.286  0.00  0.00    +0.000 C 
BRANCH  16  21
ATOM     21  C   UNL     1      43.372   3.227  11.728  0.00  0.00    +0.000 C 
BRANCH  21  22
ATOM     22  N   UNL     1      42.979   1.827  11.688  0.00  0.00    +0.000 NA
ATOM     23  H   UNL     1      43.682   1.293  11.172  0.00  0.00    +0.000 HD
ATOM     24  H   UNL     1      42.118   1.732  11.150  0.00  0.00    +0.000 HD
ENDBRANCH  21  22
ENDBRANCH  16  21
ENDBRANCH  15  20
ENDBRANCH   1  15
TORSDOF 5
ENDMDL
MODEL 5
REMARK VINA RESULT:    -5.649      3.276      5.678
REMARK INTER + INTRA:          -7.791
REMARK INTER:                  -7.083
REMARK INTRA:                  -0.708
REMARK UNBOUND:                -0.656
REMARK  Name = 
REMARK  5 active torsions:
REMARK  status: ('A' for Active; 'I' for Inactive)
REMARK    1  A    between atoms: N_1  and  C_2
REMARK    2  A    between atoms: C_2  and  C_3
REMARK    3  A    between atoms: C_7  and  C_8
REMARK    4  A    between atoms: C_8  and  N_9
REMARK    5  A    between atoms: C_14  and  C_15
REMARK                            x       y       z     vdW  Elec       q    Type
REMARK                         _______ _______ _______ _____ _____    ______ ____
ROOT
ATOM      1  N   UNL     1      46.196   4.333  13.309  0.00  0.00    +0.000 N 
ATOM      2  C   UNL     1      46.628   4.107  14.599  0.00  0.00    +0.000 A 
ATOM      3  C   UNL     1      47.461   5.139  14.967  0.00  0.00    +0.000 A 
ATOM      4  C   UNL     1      47.553   6.033  13.871  0.00  0.00    +0.000 A 
ATOM      5  C   UNL     1      48.304   7.192  13.633  0.00  0.00    +0.000 A 
ATOM      6  C   UNL     1      48.135   7.789  12.393  0.00  0.00    +0.000 A 
ATOM      7  N   UNL     1      47.269   7.356  11.436  0.00  0.00    +0.000 NA
ATOM      8  C   UNL     1      46.530   6.248  11.676  0.00  0.00    +0.000 A 
ATOM      9  C   UNL     1      46.699   5.549  12.868  0.00  0.00    +0.000 A 
ENDROOT
BRANCH   6  10
ATOM     10  C   UNL     1      49.002   8.965  12.026  0.00  0.00    +0.000 C 
ATOM     11  N   UNL     1      50.293   8.907  12.482  0.00  0.00    +0.000 N 
ATOM     12  O   UNL     1      48.593   9.918  11.376  0.00  0.00    +0.000 OA
ATOM     13  H   UNL     1      50.586   8.114  13.040  0.00  0.00    +0.000 HD
ATOM     14  H   UNL     1      50.922   9.679  12.310  0.00  0.00    +0.000 HD
ENDBRANCH   6  10
BRANCH   1  15
ATOM     15  C   UNL     1      45.603   3.286  12.460  0.00  0.00    +0.000 C 
BRANCH  15  20
ATOM     16  C   UNL     1      43.461   3.617  10.952  0.00  0.00    +0.000 C 
ATOM     17  C   UNL     1      43.115   5.106  10.987  0.00  0.00    +0.000 C 
ATOM     18  C   UNL     1      42.901   5.468  12.444  0.00  0.00    +0.000 C 
ATOM     19  C   UNL     1      43.382   4.288  13.285  0.00  0.00    +0.000 C 
ATOM     20  C   UNL     1      44.061   3.281  12.346  0.00  0.00    +0.000 C 
BRANCH  16  21
ATOM     21  C   UNL     1      44.305   3.300   9.713  0.00  0.00    +0.000 C 
BRANCH  21  22
ATOM     22  N   UNL     1      44.191   4.343   8.706  0.00  0.00    +0.000 NA
ATOM     23  H   UNL     1      44.963   4.258   8.042  0.00  0.00    +0.000 HD
ATOM     24  H   UNL     1      44.312   5.254   9.148  0.00  0.00    +0.000 HD
ENDBRANCH  21  22
ENDBRANCH  16  21
ENDBRANCH  15  20
ENDBRANCH   1  15
TORSDOF 5
ENDMDL
MODEL 6
REMARK VINA RESULT:    -5.581      3.867      5.603
REMARK INTER + INTRA:          -7.704
REMARK INTER:                  -7.224
REMARK INTRA:                  -0.480
REMARK UNBOUND:                -0.656
REMARK  Name = 
REMARK  5 active torsions:
REMARK  status: ('A' for Active; 'I' for Inactive)
REMARK    1  A    between atoms: N_1  and  C_2
REMARK    2  A    between atoms: C_2  and  C_3
REMARK    3  A    between atoms: C_7  and  C_8
REMARK    4  A    between atoms: C_8  and  N_9
REMARK    5  A    between atoms: C_14  and  C_15
REMARK                            x       y       z     vdW  Elec       q    Type
REMARK                         _______ _______ _______ _____ _____    ______ ____
ROOT
ATOM      1  N   UNL     1      47.342   5.961  14.028  0.00  0.00    +0.000 N 
ATOM      2  C   UNL     1      47.422   7.261  13.577  0.00  0.00    +0.000 A 
ATOM      3  C   UNL     1      46.669   7.373  12.430  0.00  0.00    +0.000 A 
ATOM      4  C   UNL     1      46.105   6.101  12.157  0.00  0.00    +0.000 A 
ATOM      5  C   UNL     1      45.334   5.594  11.103  0.00  0.00    +0.000 A 
ATOM      6  C   UNL     1      44.988   4.255  11.183  0.00  0.00    +0.000 A 
ATOM      7  N   UNL     1      45.302   3.435  12.223  0.00  0.00    +0.000 NA
ATOM      8  C   UNL     1      46.029   3.931  13.251  0.00  0.00    +0.000 A 
ATOM      9  C   UNL     1      46.480   5.248  13.207  0.00  0.00    +0.000 A 
ENDROOT
BRANCH   6  10
ATOM     10  C   UNL     1      44.267   3.617  10.024  0.00  0.00    +0.000 C 
ATOM     11  N   UNL     1      44.074   4.427   8.936  0.00  0.00    +0.000 N 
ATOM     12  O   UNL     1      43.865   2.461  10.044  0.00  0.00    +0.000 OA
ATOM     13  H   UNL     1      44.397   5.386   8.969  0.00  0.00    +0.000 HD
ATOM     14  H   UNL     1      43.562   4.080   8.137  0.00  0.00    +0.000 HD
ENDBRANCH   6  10
BRANCH   1  15
ATOM     15  C   UNL     1      48.288   5.381  14.995  0.00  0.00    +0.000 C 
BRANCH  15  20
ATOM     16  C   UNL     1      48.259   5.347  17.636  0.00  0.00    +0.000 C 
ATOM     17  C   UNL     1      49.311   4.331  18.082  0.00  0.00    +0.000 C 
ATOM     18  C   UNL     1      48.931   3.006  17.447  0.00  0.00    +0.000 C 
ATOM     19  C   UNL     1      47.838   3.286  16.420  0.00  0.00    +0.000 C 
ATOM     20  C   UNL     1      47.680   4.808  16.297  0.00  0.00    +0.000 C 
BRANCH  16  21
ATOM     21  C   UNL     1      48.852   6.760  17.644  0.00  0.00    +0.000 C 
BRANCH  21  22
ATOM     22  N   UNL     1      47.814   7.776  17.718  0.00  0.00    +0.000 NA
ATOM     23  H   UNL     1      47.720   8.093  18.685  0.00  0.00    +0.000 HD
ATOM     24  H   UNL     1      46.915   7.359  17.479  0.00  0.00    +0.000 HD
ENDBRANCH  21  22
ENDBRANCH  16  21
ENDBRANCH  15  20
ENDBRANCH   1  15
TORSDOF 5
ENDMDL
MODEL 7
REMARK VINA RESULT:    -5.573      4.149      5.866
REMARK INTER + INTRA:          -7.694
REMARK INTER:                  -7.211
REMARK INTRA:                  -0.483
REMARK UNBOUND:                -0.656
REMARK  Name = 
REMARK  5 active torsions:
REMARK  status: ('A' for Active; 'I' for Inactive)
REMARK    1  A    between atoms: N_1  and  C_2
REMARK    2  A    between atoms: C_2  and  C_3
REMARK    3  A    between atoms: C_7  and  C_8
REMARK    4  A    between atoms: C_8  and  N_9
REMARK    5  A    between atoms: C_14  and  C_15
REMARK                            x       y       z     vdW  Elec       q    Type
REMARK                         _______ _______ _______ _____ _____    ______ ____
ROOT
ATOM      1  N   UNL     1      47.304   6.699  13.593  0.00  0.00    +0.000 N 
ATOM      2  C   UNL     1      46.768   7.862  13.082  0.00  0.00    +0.000 A 
ATOM      3  C   UNL     1      45.671   7.538  12.317  0.00  0.00    +0.000 A 
ATOM      4  C   UNL     1      45.521   6.128  12.351  0.00  0.00    +0.000 A 
ATOM      5  C   UNL     1      44.653   5.235  11.708  0.00  0.00    +0.000 A 
ATOM      6  C   UNL     1      44.841   3.890  11.984  0.00  0.00    +0.000 A 
ATOM      7  N   UNL     1      45.763   3.400  12.858  0.00  0.00    +0.000 NA
ATOM      8  C   UNL     1      46.587   4.265  13.493  0.00  0.00    +0.000 A 
ATOM      9  C   UNL     1      46.510   5.626  13.211  0.00  0.00    +0.000 A 
ENDROOT
BRANCH   6  10
ATOM     10  C   UNL     1      44.025   2.870  11.233  0.00  0.00    +0.000 C 
ATOM     11  N   UNL     1      44.575   2.430  10.057  0.00  0.00    +0.000 N 
ATOM     12  O   UNL     1      42.941   2.463  11.627  0.00  0.00    +0.000 OA
ATOM     13  H   UNL     1      45.462   2.812   9.752  0.00  0.00    +0.000 HD
ATOM     14  H   UNL     1      44.066   1.777   9.479  0.00  0.00    +0.000 HD
ENDBRANCH   6  10
BRANCH   1  15
ATOM     15  C   UNL     1      48.668   6.610  14.140  0.00  0.00    +0.000 C 
BRANCH  15  20
ATOM     16  C   UNL     1      50.234   7.464  16.089  0.00  0.00    +0.000 C 
ATOM     17  C   UNL     1      50.970   6.243  16.638  0.00  0.00    +0.000 C 
ATOM     18  C   UNL     1      49.906   5.261  17.093  0.00  0.00    +0.000 C 
ATOM     19  C   UNL     1      48.564   5.766  16.569  0.00  0.00    +0.000 C 
ATOM     20  C   UNL     1      48.835   6.957  15.638  0.00  0.00    +0.000 C 
BRANCH  16  21
ATOM     21  C   UNL     1      51.103   8.183  15.051  0.00  0.00    +0.000 C 
BRANCH  21  22
ATOM     22  N   UNL     1      52.346   7.467  14.807  0.00  0.00    +0.000 NA
ATOM     23  H   UNL     1      52.702   7.714  13.882  0.00  0.00    +0.000 HD
ATOM     24  H   UNL     1      52.158   6.466  14.768  0.00  0.00    +0.000 HD
ENDBRANCH  21  22
ENDBRANCH  16  21
ENDBRANCH  15  20
ENDBRANCH   1  15
TORSDOF 5
ENDMDL
MODEL 8
REMARK VINA RESULT:    -5.436      5.327      7.742
REMARK INTER + INTRA:          -7.522
REMARK INTER:                  -7.080
REMARK INTRA:                  -0.441
REMARK UNBOUND:                -0.656
REMARK  Name = 
REMARK  5 active torsions:
REMARK  status: ('A' for Active; 'I' for Inactive)
REMARK    1  A    between atoms: N_1  and  C_2
REMARK    2  A    between atoms: C_2  and  C_3
REMARK    3  A    between atoms: C_7  and  C_8
REMARK    4  A    between atoms: C_8  and  N_9
REMARK    5  A    between atoms: C_14  and  C_15
REMARK                            x       y       z     vdW  Elec       q    Type
REMARK                         _______ _______ _______ _____ _____    ______ ____
ROOT
ATOM      1  N   UNL     1      46.927   5.525  14.080  0.00  0.00    +0.000 N 
ATOM      2  C   UNL     1      47.679   6.600  13.656  0.00  0.00    +0.000 A 
ATOM      3  C   UNL     1      48.669   6.833  14.583  0.00  0.00    +0.000 A 
ATOM      4  C   UNL     1      48.526   5.876  15.619  0.00  0.00    +0.000 A 
ATOM      5  C   UNL     1      49.178   5.676  16.843  0.00  0.00    +0.000 A 
ATOM      6  C   UNL     1      48.723   4.618  17.615  0.00  0.00    +0.000 A 
ATOM      7  N   UNL     1      47.740   3.754  17.243  0.00  0.00    +0.000 NA
ATOM      8  C   UNL     1      47.126   3.936  16.050  0.00  0.00    +0.000 A 
ATOM      9  C   UNL     1      47.475   5.022  15.252  0.00  0.00    +0.000 A 
ENDROOT
BRANCH   6  10
ATOM     10  C   UNL     1      49.295   4.424  18.995  0.00  0.00    +0.000 C 
ATOM     11  N   UNL     1      50.635   4.138  19.040  0.00  0.00    +0.000 N 
ATOM     12  O   UNL     1      48.621   4.501  20.013  0.00  0.00    +0.000 OA
ATOM     13  H   UNL     1      51.153   4.055  18.174  0.00  0.00    +0.000 HD
ATOM     14  H   UNL     1      51.080   3.954  19.929  0.00  0.00    +0.000 HD
ENDBRANCH   6  10
BRANCH   1  15
ATOM     15  C   UNL     1      45.586   5.219  13.555  0.00  0.00    +0.000 C 
BRANCH  15  20
ATOM     16  C   UNL     1      44.553   5.271  11.124  0.00  0.00    +0.000 C 
ATOM     17  C   UNL     1      43.264   4.449  11.169  0.00  0.00    +0.000 C 
ATOM     18  C   UNL     1      43.652   3.060  11.640  0.00  0.00    +0.000 C 
ATOM     19  C   UNL     1      45.094   3.130  12.135  0.00  0.00    +0.000 C 
ATOM     20  C   UNL     1      45.525   4.604  12.137  0.00  0.00    +0.000 C 
BRANCH  16  21
ATOM     21  C   UNL     1      44.236   6.759  11.310  0.00  0.00    +0.000 C 
BRANCH  21  22
ATOM     22  N   UNL     1      42.809   7.020  11.206  0.00  0.00    +0.000 NA
ATOM     23  H   UNL     1      42.309   6.440  11.883  0.00  0.00    +0.000 HD
ATOM     24  H   UNL     1      42.476   6.718  10.291  0.00  0.00    +0.000 HD
ENDBRANCH  21  22
ENDBRANCH  16  21
ENDBRANCH  15  20
ENDBRANCH   1  15
TORSDOF 5
ENDMDL
MODEL 9
REMARK VINA RESULT:    -5.334      4.958      7.827
REMARK INTER + INTRA:          -7.392
REMARK INTER:                  -6.864
REMARK INTRA:                  -0.528
REMARK UNBOUND:                -0.656
REMARK  Name = 
REMARK  5 active torsions:
REMARK  status: ('A' for Active; 'I' for Inactive)
REMARK    1  A    between atoms: N_1  and  C_2
REMARK    2  A    between atoms: C_2  and  C_3
REMARK    3  A    between atoms: C_7  and  C_8
REMARK    4  A    between atoms: C_8  and  N_9
REMARK    5  A    between atoms: C_14  and  C_15
REMARK                            x       y       z     vdW  Elec       q    Type
REMARK                         _______ _______ _______ _____ _____    ______ ____
ROOT
ATOM      1  N   UNL     1      47.259   5.388  13.349  0.00  0.00    +0.000 N 
ATOM      2  C   UNL     1      47.978   6.475  12.899  0.00  0.00    +0.000 A 
ATOM      3  C   UNL     1      48.692   6.994  13.955  0.00  0.00    +0.000 A 
ATOM      4  C   UNL     1      48.406   6.207  15.100  0.00  0.00    +0.000 A 
ATOM      5  C   UNL     1      48.766   6.303  16.450  0.00  0.00    +0.000 A 
ATOM      6  C   UNL     1      48.252   5.331  17.294  0.00  0.00    +0.000 A 
ATOM      7  N   UNL     1      47.477   4.287  16.891  0.00  0.00    +0.000 NA
ATOM      8  C   UNL     1      47.147   4.184  15.582  0.00  0.00    +0.000 A 
ATOM      9  C   UNL     1      47.562   5.164  14.685  0.00  0.00    +0.000 A 
ENDROOT
BRANCH   6  10
ATOM     10  C   UNL     1      48.498   5.447  18.776  0.00  0.00    +0.000 C 
ATOM     11  N   UNL     1      48.106   6.631  19.344  0.00  0.00    +0.000 N 
ATOM     12  O   UNL     1      49.021   4.559  19.436  0.00  0.00    +0.000 OA
ATOM     13  H   UNL     1      47.703   7.351  18.759  0.00  0.00    +0.000 HD
ATOM     14  H   UNL     1      48.277   6.796  20.326  0.00  0.00    +0.000 HD
ENDBRANCH   6  10
BRANCH   1  15
ATOM     15  C   UNL     1      46.119   4.813  12.617  0.00  0.00    +0.000 C 
BRANCH  15  20
ATOM     16  C   UNL     1      43.513   4.386  12.697  0.00  0.00    +0.000 C 
ATOM     17  C   UNL     1      42.938   4.882  11.370  0.00  0.00    +0.000 C 
ATOM     18  C   UNL     1      43.316   6.347  11.253  0.00  0.00    +0.000 C 
ATOM     19  C   UNL     1      44.333   6.646  12.352  0.00  0.00    +0.000 C 
ATOM     20  C   UNL     1      44.714   5.318  13.021  0.00  0.00    +0.000 C 
BRANCH  16  21
ATOM     21  C   UNL     1      43.776   2.878  12.627  0.00  0.00    +0.000 C 
BRANCH  21  22
ATOM     22  N   UNL     1      43.001   2.248  11.570  0.00  0.00    +0.000 NA
ATOM     23  H   UNL     1      43.447   1.369  11.301  0.00  0.00    +0.000 HD
ATOM     24  H   UNL     1      43.028   2.833  10.735  0.00  0.00    +0.000 HD
ENDBRANCH  21  22
ENDBRANCH  16  21
ENDBRANCH  15  20
ENDBRANCH   1  15
TORSDOF 5
ENDMDL
