MODEL 1
REMARK VINA RESULT:    -7.968      0.000      0.000
REMARK INTER + INTRA:         -12.529
REMARK INTER:                 -11.229
REMARK INTRA:                  -1.300
REMARK UNBOUND:                -1.300
REMARK  Name = 
REMARK  7 active torsions:
REMARK  status: ('A' for Active; 'I' for Inactive)
REMARK    1  A    between atoms: C_2  and  C_3
REMARK    2  A    between atoms: C_5  and  N_6
REMARK    3  A    between atoms: N_6  and  C_7
REMARK    4  A    between atoms: C_7  and  C_8
REMARK    5  A    between atoms: C_12  and  C_13
REMARK    6  A    between atoms: C_17  and  C_18
REMARK    7  A    between atoms: C_27  and  C_28
REMARK                            x       y       z     vdW  Elec       q    Type
REMARK                         _______ _______ _______ _____ _____    ______ ____
ROOT
ATOM      1  C   UNL     1      48.542   8.452  12.939  0.00  0.00    +0.000 C 
ATOM      2  C   UNL     1      49.404   9.036  11.813  0.00  0.00    +0.000 C 
ATOM      3  C   UNL     1      49.025   9.894  12.966  0.00  0.00    +0.000 C 
ENDROOT
BRANCH   1   4
ATOM      4  C   UNL     1      47.060   8.259  12.590  0.00  0.00    +0.000 A 
ATOM      5  C   UNL     1      46.189   9.346  12.459  0.00  0.00    +0.000 A 
ATOM      6  C   UNL     1      44.935   9.186  11.873  0.00  0.00    +0.000 A 
ATOM      7  C   UNL     1      44.539   7.934  11.396  0.00  0.00    +0.000 A 
ATOM      8  C   UNL     1      45.355   6.804  11.556  0.00  0.00    +0.000 A 
ATOM      9  C   UNL     1      46.575   6.985  12.223  0.00  0.00    +0.000 A 
BRANCH   8  10
ATOM     10  C   UNL     1      45.027   5.500  10.937  0.00  0.00    +0.000 A 
ATOM     11  C   UNL     1      44.036   4.679  11.488  0.00  0.00    +0.000 A 
ATOM     12  C   UNL     1      43.703   3.493  10.856  0.00  0.00    +0.000 A 
ATOM     13  N   UNL     1      44.278   3.066   9.715  0.00  0.00    +0.000 NA
ATOM     14  C   UNL     1      45.238   3.855   9.161  0.00  0.00    +0.000 A 
ATOM     15  C   UNL     1      45.626   5.067   9.745  0.00  0.00    +0.000 A 
BRANCH  14  16
ATOM     16  C   UNL     1      45.909   3.423   7.862  0.00  0.00    +0.000 C 
ATOM     17  F   UNL     1      46.564   2.230   7.933  0.00  0.00    +0.000 F 
ATOM     18  F   UNL     1      45.018   3.296   6.834  0.00  0.00    +0.000 F 
ATOM     19  F   UNL     1      46.833   4.329   7.429  0.00  0.00    +0.000 F 
ENDBRANCH  14  16
ENDBRANCH   8  10
ENDBRANCH   1   4
BRANCH   1  20
ATOM     20  N   UNL     1      49.126   7.327  13.687  0.00  0.00    +0.000 N 
ATOM     21  H   UNL     1      49.408   6.522  13.132  0.00  0.00    +0.000 HD
BRANCH  20  24
ATOM     22  C   UNL     1      48.787   6.934  17.372  0.00  0.00    +0.000 A 
ATOM     23  C   UNL     1      49.023   7.546  16.137  0.00  0.00    +0.000 A 
ATOM     24  C   UNL     1      48.795   6.853  14.958  0.00  0.00    +0.000 A 
ATOM     25  N   UNL     1      48.319   5.590  14.985  0.00  0.00    +0.000 NA
ATOM     26  C   UNL     1      48.088   5.011  16.201  0.00  0.00    +0.000 A 
ATOM     27  C   UNL     1      48.311   5.637  17.413  0.00  0.00    +0.000 A 
BRANCH  26  28
ATOM     28  C   UNL     1      47.589   3.602  16.191  0.00  0.00    +0.000 C 
ATOM     29  N   UNL     1      46.921   3.200  17.315  0.00  0.00    +0.000 N 
ATOM     30  O   UNL     1      47.759   2.854  15.238  0.00  0.00    +0.000 OA
ATOM     31  H   UNL     1      46.772   3.850  18.078  0.00  0.00    +0.000 HD
ATOM     32  H   UNL     1      46.531   2.269  17.352  0.00  0.00    +0.000 HD
ENDBRANCH  26  28
BRANCH  22  34
ATOM     33  N   UNL     1      49.281   8.231  19.561  0.00  0.00    +0.000 NA
ATOM     34  C   UNL     1      49.068   7.645  18.585  0.00  0.00    +0.000 C 
ENDBRANCH  22  34
ENDBRANCH  20  24
ENDBRANCH   1  20
TORSDOF 7
ENDMDL
MODEL 2
REMARK VINA RESULT:    -7.283      2.691      3.945
REMARK INTER + INTRA:         -11.563
REMARK INTER:                 -10.173
REMARK INTRA:                  -1.391
REMARK UNBOUND:                -1.300
REMARK  Name = 
REMARK  7 active torsions:
REMARK  status: ('A' for Active; 'I' for Inactive)
REMARK    1  A    between atoms: C_2  and  C_3
REMARK    2  A    between atoms: C_5  and  N_6
REMARK    3  A    between atoms: N_6  and  C_7
REMARK    4  A    between atoms: C_7  and  C_8
REMARK    5  A    between atoms: C_12  and  C_13
REMARK    6  A    between atoms: C_17  and  C_18
REMARK    7  A    between atoms: C_27  and  C_28
REMARK                            x       y       z     vdW  Elec       q    Type
REMARK                         _______ _______ _______ _____ _____    ______ ____
ROOT
ATOM      1  C   UNL     1      49.753   8.143  16.185  0.00  0.00    +0.000 C 
ATOM      2  C   UNL     1      49.964   9.508  16.852  0.00  0.00    +0.000 C 
ATOM      3  C   UNL     1      48.686   8.781  17.061  0.00  0.00    +0.000 C 
ENDROOT
BRANCH   1   4
ATOM      4  C   UNL     1      49.483   8.192  14.676  0.00  0.00    +0.000 A 
ATOM      5  C   UNL     1      50.514   8.389  13.751  0.00  0.00    +0.000 A 
ATOM      6  C   UNL     1      50.306   8.151  12.393  0.00  0.00    +0.000 A 
ATOM      7  C   UNL     1      49.063   7.698  11.942  0.00  0.00    +0.000 A 
ATOM      8  C   UNL     1      47.984   7.541  12.824  0.00  0.00    +0.000 A 
ATOM      9  C   UNL     1      48.205   7.868  14.171  0.00  0.00    +0.000 A 
BRANCH   8  10
ATOM     10  C   UNL     1      46.703   6.931  12.403  0.00  0.00    +0.000 A 
ATOM     11  C   UNL     1      45.679   7.720  11.870  0.00  0.00    +0.000 A 
ATOM     12  C   UNL     1      44.514   7.119  11.425  0.00  0.00    +0.000 A 
ATOM     13  N   UNL     1      44.296   5.790  11.464  0.00  0.00    +0.000 NA
ATOM     14  C   UNL     1      45.285   5.005  11.972  0.00  0.00    +0.000 A 
ATOM     15  C   UNL     1      46.488   5.544  12.441  0.00  0.00    +0.000 A 
BRANCH  14  16
ATOM     16  C   UNL     1      45.092   3.494  12.026  0.00  0.00    +0.000 C 
ATOM     17  F   UNL     1      45.130   2.874  10.813  0.00  0.00    +0.000 F 
ATOM     18  F   UNL     1      46.041   2.876  12.789  0.00  0.00    +0.000 F 
ATOM     19  F   UNL     1      43.896   3.145  12.583  0.00  0.00    +0.000 F 
ENDBRANCH  14  16
ENDBRANCH   8  10
ENDBRANCH   1   4
BRANCH   1  20
ATOM     20  N   UNL     1      50.681   7.074  16.587  0.00  0.00    +0.000 N 
ATOM     21  H   UNL     1      51.581   7.063  16.112  0.00  0.00    +0.000 HD
BRANCH  20  24
ATOM     22  C   UNL     1      50.983   3.500  17.579  0.00  0.00    +0.000 A 
ATOM     23  C   UNL     1      51.342   4.834  17.368  0.00  0.00    +0.000 A 
ATOM     24  C   UNL     1      50.394   5.757  16.953  0.00  0.00    +0.000 A 
ATOM     25  N   UNL     1      49.109   5.386  16.771  0.00  0.00    +0.000 NA
ATOM     26  C   UNL     1      48.775   4.079  16.990  0.00  0.00    +0.000 A 
ATOM     27  C   UNL     1      49.672   3.105  17.386  0.00  0.00    +0.000 A 
BRANCH  26  28
ATOM     28  C   UNL     1      47.349   3.700  16.751  0.00  0.00    +0.000 C 
ATOM     29  N   UNL     1      46.747   4.296  15.677  0.00  0.00    +0.000 N 
ATOM     30  O   UNL     1      46.755   2.902  17.464  0.00  0.00    +0.000 OA
ATOM     31  H   UNL     1      47.273   4.932  15.088  0.00  0.00    +0.000 HD
ATOM     32  H   UNL     1      45.795   4.053  15.445  0.00  0.00    +0.000 HD
ENDBRANCH  26  28
BRANCH  22  34
ATOM     33  N   UNL     1      52.785   1.780  18.298  0.00  0.00    +0.000 NA
ATOM     34  C   UNL     1      51.981   2.546  17.967  0.00  0.00    +0.000 C 
ENDBRANCH  22  34
ENDBRANCH  20  24
ENDBRANCH   1  20
TORSDOF 7
ENDMDL
MODEL 3
REMARK VINA RESULT:    -7.134      4.076      7.059
REMARK INTER + INTRA:         -11.353
REMARK INTER:                  -9.832
REMARK INTRA:                  -1.522
REMARK UNBOUND:                -1.300
REMARK  Name = 
REMARK  7 active torsions:
REMARK  status: ('A' for Active; 'I' for Inactive)
REMARK    1  A    between atoms: C_2  and  C_3
REMARK    2  A    between atoms: C_5  and  N_6
REMARK    3  A    between atoms: N_6  and  C_7
REMARK    4  A    between atoms: C_7  and  C_8
REMARK    5  A    between atoms: C_12  and  C_13
REMARK    6  A    between atoms: C_17  and  C_18
REMARK    7  A    between atoms: C_27  and  C_28
REMARK                            x       y       z     vdW  Elec       q    Type
REMARK                         _______ _______ _______ _____ _____    ______ ____
ROOT
ATOM      1  C   UNL     1      48.583   9.079  12.478  0.00  0.00    +0.000 C 
ATOM      2  C   UNL     1      49.163  10.186  11.589  0.00  0.00    +0.000 C 
ATOM      3  C   UNL     1      49.663   8.794  11.447  0.00  0.00    +0.000 C 
ENDROOT
BRANCH   1   4
ATOM      4  C   UNL     1      49.055   9.104  13.938  0.00  0.00    +0.000 A 
ATOM      5  C   UNL     1      48.790  10.192  14.777  0.00  0.00    +0.000 A 
ATOM      6  C   UNL     1      48.969  10.087  16.156  0.00  0.00    +0.000 A 
ATOM      7  C   UNL     1      49.404   8.883  16.717  0.00  0.00    +0.000 A 
ATOM      8  C   UNL     1      49.736   7.784  15.911  0.00  0.00    +0.000 A 
ATOM      9  C   UNL     1      49.621   7.951  14.523  0.00  0.00    +0.000 A 
BRANCH   8  10
ATOM     10  C   UNL     1      50.060   6.458  16.482  0.00  0.00    +0.000 A 
ATOM     11  C   UNL     1      51.376   6.134  16.828  0.00  0.00    +0.000 A 
ATOM     12  C   UNL     1      51.646   4.910  17.418  0.00  0.00    +0.000 A 
ATOM     13  N   UNL     1      50.703   3.989  17.694  0.00  0.00    +0.000 NA
ATOM     14  C   UNL     1      49.416   4.290  17.371  0.00  0.00    +0.000 A 
ATOM     15  C   UNL     1      49.070   5.507  16.772  0.00  0.00    +0.000 A 
BRANCH  14  16
ATOM     16  C   UNL     1      48.311   3.285  17.676  0.00  0.00    +0.000 C 
ATOM     17  F   UNL     1      48.414   2.107  17.000  0.00  0.00    +0.000 F 
ATOM     18  F   UNL     1      48.263   2.951  19.000  0.00  0.00    +0.000 F 
ATOM     19  F   UNL     1      47.071   3.774  17.382  0.00  0.00    +0.000 F 
ENDBRANCH  14  16
ENDBRANCH   8  10
ENDBRANCH   1   4
BRANCH   1  20
ATOM     20  N   UNL     1      47.144   8.810  12.325  0.00  0.00    +0.000 N 
ATOM     21  H   UNL     1      46.518   9.562  12.603  0.00  0.00    +0.000 HD
BRANCH  20  24
ATOM     22  C   UNL     1      46.264   5.285  13.134  0.00  0.00    +0.000 A 
ATOM     23  C   UNL     1      46.982   6.485  13.120  0.00  0.00    +0.000 A 
ATOM     24  C   UNL     1      46.452   7.611  12.509  0.00  0.00    +0.000 A 
ATOM     25  N   UNL     1      45.227   7.572  11.943  0.00  0.00    +0.000 NA
ATOM     26  C   UNL     1      44.537   6.393  11.973  0.00  0.00    +0.000 A 
ATOM     27  C   UNL     1      45.013   5.230  12.548  0.00  0.00    +0.000 A 
BRANCH  26  28
ATOM     28  C   UNL     1      43.197   6.382  11.311  0.00  0.00    +0.000 C 
ATOM     29  N   UNL     1      42.651   7.609  11.052  0.00  0.00    +0.000 N 
ATOM     30  O   UNL     1      42.622   5.343  11.013  0.00  0.00    +0.000 OA
ATOM     31  H   UNL     1      43.162   8.452  11.286  0.00  0.00    +0.000 HD
ATOM     32  H   UNL     1      41.763   7.664  10.575  0.00  0.00    +0.000 HD
ENDBRANCH  26  28
BRANCH  22  34
ATOM     33  N   UNL     1      47.297   3.161  14.201  0.00  0.00    +0.000 NA
ATOM     34  C   UNL     1      46.840   4.116  13.730  0.00  0.00    +0.000 C 
ENDBRANCH  22  34
ENDBRANCH  20  24
ENDBRANCH   1  20
TORSDOF 7
ENDMDL
MODEL 4
REMARK VINA RESULT:    -7.115      1.496      2.641
REMARK INTER + INTRA:         -11.327
REMARK INTER:                 -10.026
REMARK INTRA:                  -1.300
REMARK UNBOUND:                -1.300
REMARK  Name = 
REMARK  7 active torsions:
REMARK  status: ('A' for Active; 'I' for Inactive)
REMARK    1  A    between atoms: C_2  and  C_3
REMARK    2  A    between atoms: C_5  and  N_6
REMARK    3  A    between atoms: N_6  and  C_7
REMARK    4  A    between atoms: C_7  and  C_8
REMARK    5  A    between atoms: C_12  and  C_13
REMARK    6  A    between atoms: C_17  and  C_18
REMARK    7  A    between atoms: C_27  and  C_28
REMARK                            x       y       z     vdW  Elec       q    Type
REMARK                         _______ _______ _______ _____ _____    ______ ____
ROOT
ATOM      1  C   UNL     1      48.744   8.291  12.947  0.00  0.00    +0.000 C 
ATOM      2  C   UNL     1      49.600   8.799  11.780  0.00  0.00    +0.000 C 
ATOM      3  C   UNL     1      49.351   9.686  12.946  0.00  0.00    +0.000 C 
ENDROOT
BRANCH   1   4
ATOM      4  C   UNL     1      47.237   8.228  12.667  0.00  0.00    +0.000 A 
ATOM      5  C   UNL     1      46.467   9.388  12.526  0.00  0.00    +0.000 A 
ATOM      6  C   UNL     1      45.178   9.326  11.999  0.00  0.00    +0.000 A 
ATOM      7  C   UNL     1      44.644   8.099  11.592  0.00  0.00    +0.000 A 
ATOM      8  C   UNL     1      45.357   6.904  11.767  0.00  0.00    +0.000 A 
ATOM      9  C   UNL     1      46.618   6.993  12.375  0.00  0.00    +0.000 A 
BRANCH   8  10
ATOM     10  C   UNL     1      44.881   5.614  11.218  0.00  0.00    +0.000 A 
ATOM     11  C   UNL     1      43.824   4.928  11.826  0.00  0.00    +0.000 A 
ATOM     12  C   UNL     1      43.355   3.755  11.259  0.00  0.00    +0.000 A 
ATOM     13  N   UNL     1      43.855   3.219  10.129  0.00  0.00    +0.000 NA
ATOM     14  C   UNL     1      44.877   3.877   9.519  0.00  0.00    +0.000 A 
ATOM     15  C   UNL     1      45.403   5.067  10.036  0.00  0.00    +0.000 A 
BRANCH  14  16
ATOM     16  C   UNL     1      45.467   3.318   8.230  0.00  0.00    +0.000 C 
ATOM     17  F   UNL     1      46.521   4.025   7.735  0.00  0.00    +0.000 F 
ATOM     18  F   UNL     1      45.918   2.036   8.378  0.00  0.00    +0.000 F 
ATOM     19  F   UNL     1      44.550   3.263   7.221  0.00  0.00    +0.000 F 
ENDBRANCH  14  16
ENDBRANCH   8  10
ENDBRANCH   1   4
BRANCH   1  20
ATOM     20  N   UNL     1      49.262   7.120  13.671  0.00  0.00    +0.000 N 
ATOM     21  H   UNL     1      49.382   6.273  13.120  0.00  0.00    +0.000 HD
BRANCH  20  24
ATOM     22  C   UNL     1      48.010   5.323  16.680  0.00  0.00    +0.000 A 
ATOM     23  C   UNL     1      48.334   5.567  15.342  0.00  0.00    +0.000 A 
ATOM     24  C   UNL     1      49.014   6.722  14.986  0.00  0.00    +0.000 A 
ATOM     25  N   UNL     1      49.394   7.612  15.927  0.00  0.00    +0.000 NA
ATOM     26  C   UNL     1      49.075   7.352  17.231  0.00  0.00    +0.000 A 
ATOM     27  C   UNL     1      48.384   6.232  17.652  0.00  0.00    +0.000 A 
BRANCH  26  28
ATOM     28  C   UNL     1      49.487   8.374  18.241  0.00  0.00    +0.000 C 
ATOM     29  N   UNL     1      49.831   7.888  19.473  0.00  0.00    +0.000 N 
ATOM     30  O   UNL     1      49.522   9.571  17.985  0.00  0.00    +0.000 OA
ATOM     31  H   UNL     1      49.818   6.890  19.646  0.00  0.00    +0.000 HD
ATOM     32  H   UNL     1      50.150   8.528  20.185  0.00  0.00    +0.000 HD
ENDBRANCH  26  28
BRANCH  22  34
ATOM     33  N   UNL     1      46.677   3.196  17.330  0.00  0.00    +0.000 NA
ATOM     34  C   UNL     1      47.269   4.146  17.030  0.00  0.00    +0.000 C 
ENDBRANCH  22  34
ENDBRANCH  20  24
ENDBRANCH   1  20
TORSDOF 7
ENDMDL
MODEL 5
REMARK VINA RESULT:    -7.059      3.702      7.391
REMARK INTER + INTRA:         -11.248
REMARK INTER:                  -9.953
REMARK INTRA:                  -1.295
REMARK UNBOUND:                -1.300
REMARK  Name = 
REMARK  7 active torsions:
REMARK  status: ('A' for Active; 'I' for Inactive)
REMARK    1  A    between atoms: C_2  and  C_3
REMARK    2  A    between atoms: C_5  and  N_6
REMARK    3  A    between atoms: N_6  and  C_7
REMARK    4  A    between atoms: C_7  and  C_8
REMARK    5  A    between atoms: C_12  and  C_13
REMARK    6  A    between atoms: C_17  and  C_18
REMARK    7  A    between atoms: C_27  and  C_28
REMARK                            x       y       z     vdW  Elec       q    Type
REMARK                         _______ _______ _______ _____ _____    ______ ____
ROOT
ATOM      1  C   UNL     1      45.665   8.368  11.809  0.00  0.00    +0.000 C 
ATOM      2  C   UNL     1      45.036   9.215  12.921  0.00  0.00    +0.000 C 
ATOM      3  C   UNL     1      45.699   9.888  11.774  0.00  0.00    +0.000 C 
ENDROOT
BRANCH   1   4
ATOM      4  C   UNL     1      46.990   7.688  12.181  0.00  0.00    +0.000 A 
ATOM      5  C   UNL     1      48.137   7.833  11.393  0.00  0.00    +0.000 A 
ATOM      6  C   UNL     1      49.387   7.454  11.880  0.00  0.00    +0.000 A 
ATOM      7  C   UNL     1      49.508   6.933  13.172  0.00  0.00    +0.000 A 
ATOM      8  C   UNL     1      48.379   6.716  13.976  0.00  0.00    +0.000 A 
ATOM      9  C   UNL     1      47.129   7.034  13.424  0.00  0.00    +0.000 A 
BRANCH   8  10
ATOM     10  C   UNL     1      48.488   6.303  15.393  0.00  0.00    +0.000 A 
ATOM     11  C   UNL     1      48.806   7.238  16.385  0.00  0.00    +0.000 A 
ATOM     12  C   UNL     1      48.841   6.841  17.711  0.00  0.00    +0.000 A 
ATOM     13  N   UNL     1      48.578   5.586  18.123  0.00  0.00    +0.000 NA
ATOM     14  C   UNL     1      48.259   4.665  17.173  0.00  0.00    +0.000 A 
ATOM     15  C   UNL     1      48.205   4.995  15.814  0.00  0.00    +0.000 A 
BRANCH  14  16
ATOM     16  C   UNL     1      47.939   3.235  17.591  0.00  0.00    +0.000 C 
ATOM     17  F   UNL     1      48.309   2.920  18.864  0.00  0.00    +0.000 F 
ATOM     18  F   UNL     1      46.604   2.957  17.513  0.00  0.00    +0.000 F 
ATOM     19  F   UNL     1      48.548   2.313  16.790  0.00  0.00    +0.000 F 
ENDBRANCH  14  16
ENDBRANCH   8  10
ENDBRANCH   1   4
BRANCH   1  20
ATOM     20  N   UNL     1      44.747   7.502  11.052  0.00  0.00    +0.000 N 
ATOM     21  H   UNL     1      43.754   7.667  11.203  0.00  0.00    +0.000 HD
BRANCH  20  24
ATOM     22  C   UNL     1      45.504   4.343   9.237  0.00  0.00    +0.000 A 
ATOM     23  C   UNL     1      45.530   5.702   9.567  0.00  0.00    +0.000 A 
ATOM     24  C   UNL     1      44.892   6.156  10.710  0.00  0.00    +0.000 A 
ATOM     25  N   UNL     1      44.260   5.293  11.533  0.00  0.00    +0.000 NA
ATOM     26  C   UNL     1      44.252   3.968  11.198  0.00  0.00    +0.000 A 
ATOM     27  C   UNL     1      44.851   3.450  10.065  0.00  0.00    +0.000 A 
BRANCH  26  28
ATOM     28  C   UNL     1      43.518   3.046  12.117  0.00  0.00    +0.000 C 
ATOM     29  N   UNL     1      43.496   3.413  13.435  0.00  0.00    +0.000 N 
ATOM     30  O   UNL     1      42.963   2.029  11.720  0.00  0.00    +0.000 OA
ATOM     31  H   UNL     1      43.941   4.275  13.730  0.00  0.00    +0.000 HD
ATOM     32  H   UNL     1      42.986   2.847  14.097  0.00  0.00    +0.000 HD
ENDBRANCH  26  28
BRANCH  22  34
ATOM     33  N   UNL     1      46.645   3.512   7.063  0.00  0.00    +0.000 NA
ATOM     34  C   UNL     1      46.132   3.891   8.029  0.00  0.00    +0.000 C 
ENDBRANCH  22  34
ENDBRANCH  20  24
ENDBRANCH   1  20
TORSDOF 7
ENDMDL
MODEL 6
REMARK VINA RESULT:    -7.039      1.818      2.633
REMARK INTER + INTRA:         -11.220
REMARK INTER:                 -10.428
REMARK INTRA:                  -0.792
REMARK UNBOUND:                -1.300
REMARK  Name = 
REMARK  7 active torsions:
REMARK  status: ('A' for Active; 'I' for Inactive)
REMARK    1  A    between atoms: C_2  and  C_3
REMARK    2  A    between atoms: C_5  and  N_6
REMARK    3  A    between atoms: N_6  and  C_7
REMARK    4  A    between atoms: C_7  and  C_8
REMARK    5  A    between atoms: C_12  and  C_13
REMARK    6  A    between atoms: C_17  and  C_18
REMARK    7  A    between atoms: C_27  and  C_28
REMARK                            x       y       z     vdW  Elec       q    Type
REMARK                         _______ _______ _______ _____ _____    ______ ____
ROOT
ATOM      1  C   UNL     1      48.728   8.308  12.992  0.00  0.00    +0.000 C 
ATOM      2  C   UNL     1      49.659   7.467  12.109  0.00  0.00    +0.000 C 
ATOM      3  C   UNL     1      49.604   8.940  11.922  0.00  0.00    +0.000 C 
ENDROOT
BRANCH   1   4
ATOM      4  C   UNL     1      47.236   8.204  12.647  0.00  0.00    +0.000 A 
ATOM      5  C   UNL     1      46.428   9.341  12.535  0.00  0.00    +0.000 A 
ATOM      6  C   UNL     1      45.164   9.260  11.952  0.00  0.00    +0.000 A 
ATOM      7  C   UNL     1      44.696   8.039  11.458  0.00  0.00    +0.000 A 
ATOM      8  C   UNL     1      45.447   6.863  11.599  0.00  0.00    +0.000 A 
ATOM      9  C   UNL     1      46.679   6.965  12.264  0.00  0.00    +0.000 A 
BRANCH   8  10
ATOM     10  C   UNL     1      45.044   5.589  10.963  0.00  0.00    +0.000 A 
ATOM     11  C   UNL     1      43.988   4.835  11.486  0.00  0.00    +0.000 A 
ATOM     12  C   UNL     1      43.588   3.678  10.838  0.00  0.00    +0.000 A 
ATOM     13  N   UNL     1      44.156   3.220   9.706  0.00  0.00    +0.000 NA
ATOM     14  C   UNL     1      45.180   3.945   9.178  0.00  0.00    +0.000 A 
ATOM     15  C   UNL     1      45.638   5.123   9.780  0.00  0.00    +0.000 A 
BRANCH  14  16
ATOM     16  C   UNL     1      45.847   3.476   7.891  0.00  0.00    +0.000 C 
ATOM     17  F   UNL     1      44.992   3.284   6.847  0.00  0.00    +0.000 F 
ATOM     18  F   UNL     1      46.789   4.358   7.442  0.00  0.00    +0.000 F 
ATOM     19  F   UNL     1      46.508   2.292   8.052  0.00  0.00    +0.000 F 
ENDBRANCH  14  16
ENDBRANCH   8  10
ENDBRANCH   1   4
BRANCH   1  20
ATOM     20  N   UNL     1      49.005   8.282  14.437  0.00  0.00    +0.000 N 
ATOM     21  H   UNL     1      49.580   9.041  14.794  0.00  0.00    +0.000 HD
BRANCH  20  24
ATOM     22  C   UNL     1      48.516   5.224  16.502  0.00  0.00    +0.000 A 
ATOM     23  C   UNL     1      48.262   6.213  15.546  0.00  0.00    +0.000 A 
ATOM     24  C   UNL     1      49.215   7.181  15.270  0.00  0.00    +0.000 A 
ATOM     25  N   UNL     1      50.409   7.167  15.899  0.00  0.00    +0.000 NA
ATOM     26  C   UNL     1      50.643   6.189  16.824  0.00  0.00    +0.000 A 
ATOM     27  C   UNL     1      49.731   5.207  17.161  0.00  0.00    +0.000 A 
BRANCH  26  28
ATOM     28  C   UNL     1      51.964   6.224  17.521  0.00  0.00    +0.000 C 
ATOM     29  N   UNL     1      52.988   5.574  16.888  0.00  0.00    +0.000 N 
ATOM     30  O   UNL     1      52.128   6.802  18.588  0.00  0.00    +0.000 OA
ATOM     31  H   UNL     1      52.829   5.128  15.992  0.00  0.00    +0.000 HD
ATOM     32  H   UNL     1      53.912   5.593  17.294  0.00  0.00    +0.000 HD
ENDBRANCH  26  28
BRANCH  22  34
ATOM     33  N   UNL     1      46.697   3.469  17.076  0.00  0.00    +0.000 NA
ATOM     34  C   UNL     1      47.506   4.254  16.810  0.00  0.00    +0.000 C 
ENDBRANCH  22  34
ENDBRANCH  20  24
ENDBRANCH   1  20
TORSDOF 7
ENDMDL
MODEL 7
REMARK VINA RESULT:    -7.035      2.832      4.023
REMARK INTER + INTRA:         -11.214
REMARK INTER:                  -9.691
REMARK INTRA:                  -1.523
REMARK UNBOUND:                -1.300
REMARK  Name = 
REMARK  7 active torsions:
REMARK  status: ('A' for Active; 'I' for Inactive)
REMARK    1  A    between atoms: C_2  and  C_3
REMARK    2  A    between atoms: C_5  and  N_6
REMARK    3  A    between atoms: N_6  and  C_7
REMARK    4  A    between atoms: C_7  and  C_8
REMARK    5  A    between atoms: C_12  and  C_13
REMARK    6  A    between atoms: C_17  and  C_18
REMARK    7  A    between atoms: C_27  and  C_28
REMARK                            x       y       z     vdW  Elec       q    Type
REMARK                         _______ _______ _______ _____ _____    ______ ____
ROOT
ATOM      1  C   UNL     1      49.422   8.391  15.925  0.00  0.00    +0.000 C 
ATOM      2  C   UNL     1      49.556   9.831  16.437  0.00  0.00    +0.000 C 
ATOM      3  C   UNL     1      48.311   9.068  16.713  0.00  0.00    +0.000 C 
ENDROOT
BRANCH   1   4
ATOM      4  C   UNL     1      49.173   8.258  14.417  0.00  0.00    +0.000 A 
ATOM      5  C   UNL     1      50.223   8.298  13.493  0.00  0.00    +0.000 A 
ATOM      6  C   UNL     1      50.024   7.897  12.173  0.00  0.00    +0.000 A 
ATOM      7  C   UNL     1      48.771   7.437  11.760  0.00  0.00    +0.000 A 
ATOM      8  C   UNL     1      47.675   7.433  12.636  0.00  0.00    +0.000 A 
ATOM      9  C   UNL     1      47.891   7.919  13.934  0.00  0.00    +0.000 A 
BRANCH   8  10
ATOM     10  C   UNL     1      46.377   6.820  12.272  0.00  0.00    +0.000 A 
ATOM     11  C   UNL     1      45.316   7.614  11.824  0.00  0.00    +0.000 A 
ATOM     12  C   UNL     1      44.132   7.013  11.430  0.00  0.00    +0.000 A 
ATOM     13  N   UNL     1      43.929   5.681  11.444  0.00  0.00    +0.000 NA
ATOM     14  C   UNL     1      44.953   4.893  11.869  0.00  0.00    +0.000 A 
ATOM     15  C   UNL     1      46.177   5.431  12.283  0.00  0.00    +0.000 A 
BRANCH  14  16
ATOM     16  C   UNL     1      44.777   3.379  11.890  0.00  0.00    +0.000 C 
ATOM     17  F   UNL     1      43.561   2.956  12.335  0.00  0.00    +0.000 F 
ATOM     18  F   UNL     1      44.934   2.821  10.653  0.00  0.00    +0.000 F 
ATOM     19  F   UNL     1      45.699   2.761  12.685  0.00  0.00    +0.000 F 
ENDBRANCH  14  16
ENDBRANCH   8  10
ENDBRANCH   1   4
BRANCH   1  20
ATOM     20  N   UNL     1      50.394   7.421  16.453  0.00  0.00    +0.000 N 
ATOM     21  H   UNL     1      51.350   7.522  16.120  0.00  0.00    +0.000 HD
BRANCH  20  24
ATOM     22  C   UNL     1      48.872   4.122  17.257  0.00  0.00    +0.000 A 
ATOM     23  C   UNL     1      48.975   5.439  16.802  0.00  0.00    +0.000 A 
ATOM     24  C   UNL     1      50.207   6.072  16.762  0.00  0.00    +0.000 A 
ATOM     25  N   UNL     1      51.327   5.418  17.137  0.00  0.00    +0.000 NA
ATOM     26  C   UNL     1      51.208   4.128  17.573  0.00  0.00    +0.000 A 
ATOM     27  C   UNL     1      50.009   3.445  17.655  0.00  0.00    +0.000 A 
BRANCH  26  28
ATOM     28  C   UNL     1      52.465   3.446  18.007  0.00  0.00    +0.000 C 
ATOM     29  N   UNL     1      52.326   2.147  18.417  0.00  0.00    +0.000 N 
ATOM     30  O   UNL     1      53.553   4.006  17.994  0.00  0.00    +0.000 OA
ATOM     31  H   UNL     1      51.416   1.701  18.391  0.00  0.00    +0.000 HD
ATOM     32  H   UNL     1      53.146   1.625  18.689  0.00  0.00    +0.000 HD
ENDBRANCH  26  28
BRANCH  22  34
ATOM     33  N   UNL     1      46.549   2.982  17.414  0.00  0.00    +0.000 NA
ATOM     34  C   UNL     1      47.586   3.492  17.334  0.00  0.00    +0.000 C 
ENDBRANCH  22  34
ENDBRANCH  20  24
ENDBRANCH   1  20
TORSDOF 7
ENDMDL
MODEL 8
REMARK VINA RESULT:    -6.614      1.878      2.530
REMARK INTER + INTRA:         -10.621
REMARK INTER:                  -9.524
REMARK INTRA:                  -1.097
REMARK UNBOUND:                -1.300
REMARK  Name = 
REMARK  7 active torsions:
REMARK  status: ('A' for Active; 'I' for Inactive)
REMARK    1  A    between atoms: C_2  and  C_3
REMARK    2  A    between atoms: C_5  and  N_6
REMARK    3  A    between atoms: N_6  and  C_7
REMARK    4  A    between atoms: C_7  and  C_8
REMARK    5  A    between atoms: C_12  and  C_13
REMARK    6  A    between atoms: C_17  and  C_18
REMARK    7  A    between atoms: C_27  and  C_28
REMARK                            x       y       z     vdW  Elec       q    Type
REMARK                         _______ _______ _______ _____ _____    ______ ____
ROOT
ATOM      1  C   UNL     1      49.098   8.237  15.250  0.00  0.00    +0.000 C 
ATOM      2  C   UNL     1      49.633   9.602  15.701  0.00  0.00    +0.000 C 
ATOM      3  C   UNL     1      48.310   9.136  16.190  0.00  0.00    +0.000 C 
ENDROOT
BRANCH   1   4
ATOM      4  C   UNL     1      48.586   8.185  13.804  0.00  0.00    +0.000 A 
ATOM      5  C   UNL     1      49.376   8.609  12.730  0.00  0.00    +0.000 A 
ATOM      6  C   UNL     1      49.019   8.298  11.419  0.00  0.00    +0.000 A 
ATOM      7  C   UNL     1      47.870   7.545  11.164  0.00  0.00    +0.000 A 
ATOM      8  C   UNL     1      47.017   7.147  12.205  0.00  0.00    +0.000 A 
ATOM      9  C   UNL     1      47.364   7.546  13.504  0.00  0.00    +0.000 A 
BRANCH   8  10
ATOM     10  C   UNL     1      45.876   6.231  11.982  0.00  0.00    +0.000 A 
ATOM     11  C   UNL     1      44.802   6.202  12.878  0.00  0.00    +0.000 A 
ATOM     12  C   UNL     1      43.717   5.382  12.617  0.00  0.00    +0.000 A 
ATOM     13  N   UNL     1      43.619   4.596  11.527  0.00  0.00    +0.000 NA
ATOM     14  C   UNL     1      44.650   4.618  10.640  0.00  0.00    +0.000 A 
ATOM     15  C   UNL     1      45.780   5.421  10.841  0.00  0.00    +0.000 A 
BRANCH  14  16
ATOM     16  C   UNL     1      44.580   3.756   9.385  0.00  0.00    +0.000 C 
ATOM     17  F   UNL     1      44.029   2.525   9.573  0.00  0.00    +0.000 F 
ATOM     18  F   UNL     1      43.848   4.343   8.392  0.00  0.00    +0.000 F 
ATOM     19  F   UNL     1      45.812   3.532   8.841  0.00  0.00    +0.000 F 
ENDBRANCH  14  16
ENDBRANCH   8  10
ENDBRANCH   1   4
BRANCH   1  20
ATOM     20  N   UNL     1      49.898   7.065  15.637  0.00  0.00    +0.000 N 
ATOM     21  H   UNL     1      50.309   6.534  14.873  0.00  0.00    +0.000 HD
BRANCH  20  24
ATOM     22  C   UNL     1      50.160   5.246  18.873  0.00  0.00    +0.000 A 
ATOM     23  C   UNL     1      50.319   6.262  17.927  0.00  0.00    +0.000 A 
ATOM     24  C   UNL     1      49.694   6.174  16.693  0.00  0.00    +0.000 A 
ATOM     25  N   UNL     1      48.904   5.120  16.398  0.00  0.00    +0.000 NA
ATOM     26  C   UNL     1      48.754   4.139  17.338  0.00  0.00    +0.000 A 
ATOM     27  C   UNL     1      49.363   4.155  18.579  0.00  0.00    +0.000 A 
BRANCH  26  28
ATOM     28  C   UNL     1      47.895   2.975  16.965  0.00  0.00    +0.000 C 
ATOM     29  N   UNL     1      48.450   2.084  16.086  0.00  0.00    +0.000 N 
ATOM     30  O   UNL     1      46.769   2.819  17.418  0.00  0.00    +0.000 OA
ATOM     31  H   UNL     1      49.395   2.225  15.749  0.00  0.00    +0.000 HD
ATOM     32  H   UNL     1      47.930   1.259  15.824  0.00  0.00    +0.000 HD
ENDBRANCH  26  28
BRANCH  22  34
ATOM     33  N   UNL     1      51.412   5.381  21.139  0.00  0.00    +0.000 NA
ATOM     34  C   UNL     1      50.846   5.328  20.130  0.00  0.00    +0.000 C 
ENDBRANCH  22  34
ENDBRANCH  20  24
ENDBRANCH   1  20
TORSDOF 7
ENDMDL
MODEL 9
REMARK VINA RESULT:    -6.613      3.314      4.806
REMARK INTER + INTRA:         -10.619
REMARK INTER:                  -9.748
REMARK INTRA:                  -0.871
REMARK UNBOUND:                -1.300
REMARK  Name = 
REMARK  7 active torsions:
REMARK  status: ('A' for Active; 'I' for Inactive)
REMARK    1  A    between atoms: C_2  and  C_3
REMARK    2  A    between atoms: C_5  and  N_6
REMARK    3  A    between atoms: N_6  and  C_7
REMARK    4  A    between atoms: C_7  and  C_8
REMARK    5  A    between atoms: C_12  and  C_13
REMARK    6  A    between atoms: C_17  and  C_18
REMARK    7  A    between atoms: C_27  and  C_28
REMARK                            x       y       z     vdW  Elec       q    Type
REMARK                         _______ _______ _______ _____ _____    ______ ____
ROOT
ATOM      1  C   UNL     1      48.218   4.250  16.606  0.00  0.00    +0.000 C 
ATOM      2  C   UNL     1      47.157   3.482  17.404  0.00  0.00    +0.000 C 
ATOM      3  C   UNL     1      48.023   2.751  16.443  0.00  0.00    +0.000 C 
ENDROOT
BRANCH   1   4
ATOM      4  C   UNL     1      47.672   5.115  15.462  0.00  0.00    +0.000 A 
ATOM      5  C   UNL     1      48.283   6.319  15.095  0.00  0.00    +0.000 A 
ATOM      6  C   UNL     1      47.957   6.944  13.892  0.00  0.00    +0.000 A 
ATOM      7  C   UNL     1      47.022   6.364  13.031  0.00  0.00    +0.000 A 
ATOM      8  C   UNL     1      46.342   5.188  13.383  0.00  0.00    +0.000 A 
ATOM      9  C   UNL     1      46.635   4.630  14.636  0.00  0.00    +0.000 A 
BRANCH   8  10
ATOM     10  C   UNL     1      45.456   4.476  12.435  0.00  0.00    +0.000 A 
ATOM     11  C   UNL     1      44.266   3.888  12.877  0.00  0.00    +0.000 A 
ATOM     12  C   UNL     1      43.422   3.281  11.962  0.00  0.00    +0.000 A 
ATOM     13  N   UNL     1      43.673   3.221  10.639  0.00  0.00    +0.000 NA
ATOM     14  C   UNL     1      44.822   3.795  10.190  0.00  0.00    +0.000 A 
ATOM     15  C   UNL     1      45.722   4.425  11.058  0.00  0.00    +0.000 A 
BRANCH  14  16
ATOM     16  C   UNL     1      45.143   3.766   8.700  0.00  0.00    +0.000 C 
ATOM     17  F   UNL     1      44.076   3.996   7.886  0.00  0.00    +0.000 F 
ATOM     18  F   UNL     1      46.083   4.695   8.353  0.00  0.00    +0.000 F 
ATOM     19  F   UNL     1      45.659   2.565   8.305  0.00  0.00    +0.000 F 
ENDBRANCH  14  16
ENDBRANCH   8  10
ENDBRANCH   1   4
BRANCH   1  20
ATOM     20  N   UNL     1      49.273   4.908  17.394  0.00  0.00    +0.000 N 
ATOM     21  H   UNL     1      49.129   5.895  17.595  0.00  0.00    +0.000 HD
BRANCH  20  24
ATOM     22  C   UNL     1      52.682   3.526  17.960  0.00  0.00    +0.000 A 
ATOM     23  C   UNL     1      51.286   3.588  17.913  0.00  0.00    +0.000 A 
ATOM     24  C   UNL     1      50.652   4.693  17.364  0.00  0.00    +0.000 A 
ATOM     25  N   UNL     1      51.373   5.710  16.846  0.00  0.00    +0.000 NA
ATOM     26  C   UNL     1      52.736   5.628  16.894  0.00  0.00    +0.000 A 
ATOM     27  C   UNL     1      53.431   4.567  17.443  0.00  0.00    +0.000 A 
BRANCH  26  28
ATOM     28  C   UNL     1      53.499   6.786  16.336  0.00  0.00    +0.000 C 
ATOM     29  N   UNL     1      53.713   6.763  14.985  0.00  0.00    +0.000 N 
ATOM     30  O   UNL     1      53.905   7.703  17.039  0.00  0.00    +0.000 OA
ATOM     31  H   UNL     1      53.341   6.004  14.425  0.00  0.00    +0.000 HD
ATOM     32  H   UNL     1      54.193   7.535  14.547  0.00  0.00    +0.000 HD
ENDBRANCH  26  28
BRANCH  22  34
ATOM     33  N   UNL     1      53.854   1.484  19.044  0.00  0.00    +0.000 NA
ATOM     34  C   UNL     1      53.325   2.399  18.568  0.00  0.00    +0.000 C 
ENDBRANCH  22  34
ENDBRANCH  20  24
ENDBRANCH   1  20
TORSDOF 7
ENDMDL
