MODEL 1
REMARK VINA RESULT:    -8.394      0.000      0.000
REMARK INTER + INTRA:         -12.253
REMARK INTER:                 -11.338
REMARK INTRA:                  -0.915
REMARK UNBOUND:                -0.915
REMARK  Name = 
REMARK  6 active torsions:
REMARK  status: ('A' for Active; 'I' for Inactive)
REMARK    1  A    between atoms: C_2  and  C_25
REMARK    2  A    between atoms: N_3  and  C_4
REMARK    3  A    between atoms: C_4  and  C_5
REMARK    4  A    between atoms: C_8  and  C_9
REMARK    5  A    between atoms: C_9  and  N_10
REMARK    6  A    between atoms: C_11  and  C_13
REMARK                            x       y       z     vdW  Elec       q    Type
REMARK                         _______ _______ _______ _____ _____    ______ ____
ROOT
ATOM      1  C   UNL     1      44.921   6.251  11.166  0.00  0.00    +0.000 A 
ATOM      2  C   UNL     1      44.549   7.559  11.482  0.00  0.00    +0.000 A 
ATOM      3  C   UNL     1      45.340   8.305  12.363  0.00  0.00    +0.000 A 
ATOM      4  C   UNL     1      46.488   7.736  12.920  0.00  0.00    +0.000 A 
ATOM      5  C   UNL     1      46.762   6.417  12.568  0.00  0.00    +0.000 A 
ATOM      6  N   UNL     1      46.022   5.673  11.707  0.00  0.00    +0.000 NA
ENDROOT
BRANCH   1   7
ATOM      7  C   UNL     1      44.077   5.419  10.217  0.00  0.00    +0.000 C 
BRANCH   7  10
ATOM      8  O   UNL     1      44.614   2.676  10.279  0.00  0.00    +0.000 OA
ATOM      9  C   UNL     1      45.038   3.334   9.333  0.00  0.00    +0.000 C 
ATOM     10  N   UNL     1      44.844   4.691   9.226  0.00  0.00    +0.000 N 
ATOM     11  H   UNL     1      45.258   5.176   8.434  0.00  0.00    +0.000 HD
BRANCH   9  12
ATOM     12  C   UNL     1      45.809   2.673   8.233  0.00  0.00    +0.000 A 
ATOM     13  C   UNL     1      46.062   3.405   7.076  0.00  0.00    +0.000 A 
ATOM     14  C   UNL     1      46.758   2.794   6.041  0.00  0.00    +0.000 A 
ATOM     15  C   UNL     1      47.167   1.474   6.191  0.00  0.00    +0.000 A 
ATOM     16  C   UNL     1      46.876   0.820   7.381  0.00  0.00    +0.000 A 
ATOM     17  N   UNL     1      46.207   1.384   8.417  0.00  0.00    +0.000 NA
ENDBRANCH   9  12
ENDBRANCH   7  10
ENDBRANCH   1   7
BRANCH   4  18
ATOM     18  C   UNL     1      47.400   8.479  13.858  0.00  0.00    +0.000 C 
BRANCH  18  19
ATOM     19  N   UNL     1      47.783   7.680  14.996  0.00  0.00    +0.000 N 
ATOM     20  C   UNL     1      48.990   7.025  15.054  0.00  0.00    +0.000 C 
ATOM     21  O   UNL     1      49.824   7.095  14.157  0.00  0.00    +0.000 OA
ATOM     22  H   UNL     1      47.026   7.322  15.570  0.00  0.00    +0.000 HD
BRANCH  20  23
ATOM     23  C   UNL     1      49.248   6.282  16.298  0.00  0.00    +0.000 A 
ATOM     24  C   UNL     1      50.234   6.708  17.180  0.00  0.00    +0.000 A 
ATOM     25  S   UNL     1      50.355   5.743  18.582  0.00  0.00    +0.000 S 
ATOM     26  C   UNL     1      49.131   4.696  18.041  0.00  0.00    +0.000 A 
ATOM     27  N   UNL     1      48.752   3.608  18.769  0.00  0.00    +0.000 NA
ATOM     28  C   UNL     1      47.832   2.892  18.224  0.00  0.00    +0.000 A 
ATOM     29  N   UNL     1      47.236   3.164  17.016  0.00  0.00    +0.000 N 
ATOM     30  C   UNL     1      47.548   4.274  16.272  0.00  0.00    +0.000 A 
ATOM     31  O   UNL     1      46.948   4.535  15.236  0.00  0.00    +0.000 OA
ATOM     32  C   UNL     1      48.609   5.096  16.822  0.00  0.00    +0.000 A 
ATOM     33  H   UNL     1      46.501   2.575  16.652  0.00  0.00    +0.000 HD
ENDBRANCH  20  23
ENDBRANCH  18  19
ENDBRANCH   4  18
TORSDOF 6
ENDMDL
MODEL 2
REMARK VINA RESULT:    -8.001      1.900      2.415
REMARK INTER + INTRA:         -11.723
REMARK INTER:                 -10.848
REMARK INTRA:                  -0.875
REMARK UNBOUND:                -0.915
REMARK  Name = 
REMARK  6 active torsions:
REMARK  status: ('A' for Active; 'I' for Inactive)
REMARK    1  A    between atoms: C_2  and  C_25
REMARK    2  A    between atoms: N_3  and  C_4
REMARK    3  A    between atoms: C_4  and  C_5
REMARK    4  A    between atoms: C_8  and  C_9
REMARK    5  A    between atoms: C_9  and  N_10
REMARK    6  A    between atoms: C_11  and  C_13
REMARK                            x       y       z     vdW  Elec       q    Type
REMARK                         _______ _______ _______ _____ _____    ______ ____
ROOT
ATOM      1  C   UNL     1      44.704   4.987  11.893  0.00  0.00    +0.000 A 
ATOM      2  C   UNL     1      45.789   5.015  12.771  0.00  0.00    +0.000 A 
ATOM      3  C   UNL     1      46.316   6.247  13.174  0.00  0.00    +0.000 A 
ATOM      4  C   UNL     1      45.757   7.434  12.695  0.00  0.00    +0.000 A 
ATOM      5  C   UNL     1      44.698   7.305  11.801  0.00  0.00    +0.000 A 
ATOM      6  N   UNL     1      44.155   6.126  11.402  0.00  0.00    +0.000 NA
ENDROOT
BRANCH   1   7
ATOM      7  C   UNL     1      44.118   3.663  11.436  0.00  0.00    +0.000 C 
BRANCH   7  10
ATOM      8  O   UNL     1      44.143   4.234   8.699  0.00  0.00    +0.000 OA
ATOM      9  C   UNL     1      44.875   3.341   9.118  0.00  0.00    +0.000 C 
ATOM     10  N   UNL     1      44.916   2.974  10.442  0.00  0.00    +0.000 N 
ATOM     11  H   UNL     1      45.518   2.199  10.709  0.00  0.00    +0.000 HD
BRANCH   9  12
ATOM     12  C   UNL     1      45.770   2.592   8.180  0.00  0.00    +0.000 A 
ATOM     13  C   UNL     1      46.231   3.253   7.045  0.00  0.00    +0.000 A 
ATOM     14  C   UNL     1      47.046   2.561   6.157  0.00  0.00    +0.000 A 
ATOM     15  C   UNL     1      47.363   1.235   6.427  0.00  0.00    +0.000 A 
ATOM     16  C   UNL     1      46.863   0.656   7.587  0.00  0.00    +0.000 A 
ATOM     17  N   UNL     1      46.073   1.299   8.480  0.00  0.00    +0.000 NA
ENDBRANCH   9  12
ENDBRANCH   7  10
ENDBRANCH   1   7
BRANCH   4  18
ATOM     18  C   UNL     1      46.253   8.796  13.096  0.00  0.00    +0.000 C 
BRANCH  18  19
ATOM     19  N   UNL     1      46.836   8.800  14.415  0.00  0.00    +0.000 N 
ATOM     20  C   UNL     1      48.193   8.889  14.612  0.00  0.00    +0.000 C 
ATOM     21  O   UNL     1      48.990   8.991  13.685  0.00  0.00    +0.000 OA
ATOM     22  H   UNL     1      46.280   8.381  15.154  0.00  0.00    +0.000 HD
BRANCH  20  23
ATOM     23  C   UNL     1      48.629   8.918  16.018  0.00  0.00    +0.000 A 
ATOM     24  C   UNL     1      48.688  10.121  16.710  0.00  0.00    +0.000 A 
ATOM     25  S   UNL     1      49.174   9.947  18.337  0.00  0.00    +0.000 S 
ATOM     26  C   UNL     1      49.369   8.267  18.162  0.00  0.00    +0.000 A 
ATOM     27  N   UNL     1      49.806   7.490  19.193  0.00  0.00    +0.000 NA
ATOM     28  C   UNL     1      49.930   6.241  18.907  0.00  0.00    +0.000 A 
ATOM     29  N   UNL     1      49.645   5.682  17.685  0.00  0.00    +0.000 N 
ATOM     30  C   UNL     1      49.155   6.415  16.633  0.00  0.00    +0.000 A 
ATOM     31  O   UNL     1      48.836   5.879  15.579  0.00  0.00    +0.000 OA
ATOM     32  C   UNL     1      49.033   7.837  16.889  0.00  0.00    +0.000 A 
ATOM     33  H   UNL     1      49.741   4.689  17.530  0.00  0.00    +0.000 HD
ENDBRANCH  20  23
ENDBRANCH  18  19
ENDBRANCH   4  18
TORSDOF 6
ENDMDL
MODEL 3
REMARK VINA RESULT:    -7.674      1.663      2.031
REMARK INTER + INTRA:         -11.281
REMARK INTER:                 -10.445
REMARK INTRA:                  -0.836
REMARK UNBOUND:                -0.915
REMARK  Name = 
REMARK  6 active torsions:
REMARK  status: ('A' for Active; 'I' for Inactive)
REMARK    1  A    between atoms: C_2  and  C_25
REMARK    2  A    between atoms: N_3  and  C_4
REMARK    3  A    between atoms: C_4  and  C_5
REMARK    4  A    between atoms: C_8  and  C_9
REMARK    5  A    between atoms: C_9  and  N_10
REMARK    6  A    between atoms: C_11  and  C_13
REMARK                            x       y       z     vdW  Elec       q    Type
REMARK                         _______ _______ _______ _____ _____    ______ ____
ROOT
ATOM      1  C   UNL     1      45.142   6.486  11.538  0.00  0.00    +0.000 A 
ATOM      2  C   UNL     1      44.873   7.853  11.622  0.00  0.00    +0.000 A 
ATOM      3  C   UNL     1      45.659   8.659  12.453  0.00  0.00    +0.000 A 
ATOM      4  C   UNL     1      46.699   8.090  13.193  0.00  0.00    +0.000 A 
ATOM      5  C   UNL     1      46.871   6.715  13.067  0.00  0.00    +0.000 A 
ATOM      6  N   UNL     1      46.135   5.909  12.259  0.00  0.00    +0.000 NA
ENDROOT
BRANCH   1   7
ATOM      7  C   UNL     1      44.300   5.590  10.648  0.00  0.00    +0.000 C 
BRANCH   7  10
ATOM      8  O   UNL     1      44.083   2.873  10.024  0.00  0.00    +0.000 OA
ATOM      9  C   UNL     1      44.863   3.563   9.372  0.00  0.00    +0.000 C 
ATOM     10  N   UNL     1      45.055   4.901   9.618  0.00  0.00    +0.000 N 
ATOM     11  H   UNL     1      45.745   5.400   9.063  0.00  0.00    +0.000 HD
BRANCH   9  12
ATOM     12  C   UNL     1      45.662   2.959   8.259  0.00  0.00    +0.000 A 
ATOM     13  C   UNL     1      46.080   1.638   8.392  0.00  0.00    +0.000 A 
ATOM     14  C   UNL     1      46.840   1.074   7.375  0.00  0.00    +0.000 A 
ATOM     15  C   UNL     1      47.163   1.849   6.268  0.00  0.00    +0.000 A 
ATOM     16  C   UNL     1      46.700   3.158   6.214  0.00  0.00    +0.000 A 
ATOM     17  N   UNL     1      45.951   3.741   7.182  0.00  0.00    +0.000 NA
ENDBRANCH   9  12
ENDBRANCH   7  10
ENDBRANCH   1   7
BRANCH   4  18
ATOM     18  C   UNL     1      47.600   8.891  14.093  0.00  0.00    +0.000 C 
BRANCH  18  19
ATOM     19  N   UNL     1      47.790   8.263  15.377  0.00  0.00    +0.000 N 
ATOM     20  C   UNL     1      48.314   8.943  16.451  0.00  0.00    +0.000 C 
ATOM     21  O   UNL     1      48.633  10.126  16.392  0.00  0.00    +0.000 OA
ATOM     22  H   UNL     1      47.872   7.251  15.376  0.00  0.00    +0.000 HD
BRANCH  20  23
ATOM     23  C   UNL     1      48.411   8.174  17.702  0.00  0.00    +0.000 A 
ATOM     24  C   UNL     1      47.989   8.730  18.903  0.00  0.00    +0.000 A 
ATOM     25  S   UNL     1      48.140   7.671  20.233  0.00  0.00    +0.000 S 
ATOM     26  C   UNL     1      48.820   6.452  19.263  0.00  0.00    +0.000 A 
ATOM     27  N   UNL     1      49.219   5.261  19.792  0.00  0.00    +0.000 NA
ATOM     28  C   UNL     1      49.737   4.444  18.943  0.00  0.00    +0.000 A 
ATOM     29  N   UNL     1      49.886   4.695  17.600  0.00  0.00    +0.000 N 
ATOM     30  C   UNL     1      49.454   5.858  17.014  0.00  0.00    +0.000 A 
ATOM     31  O   UNL     1      49.529   6.025  15.802  0.00  0.00    +0.000 OA
ATOM     32  C   UNL     1      48.896   6.832  17.933  0.00  0.00    +0.000 A 
ATOM     33  H   UNL     1      50.280   4.003  16.980  0.00  0.00    +0.000 HD
ENDBRANCH  20  23
ENDBRANCH  18  19
ENDBRANCH   4  18
TORSDOF 6
ENDMDL
MODEL 4
REMARK VINA RESULT:    -7.306      1.915      2.394
REMARK INTER + INTRA:         -10.783
REMARK INTER:                  -9.839
REMARK INTRA:                  -0.945
REMARK UNBOUND:                -0.915
REMARK  Name = 
REMARK  6 active torsions:
REMARK  status: ('A' for Active; 'I' for Inactive)
REMARK    1  A    between atoms: C_2  and  C_25
REMARK    2  A    between atoms: N_3  and  C_4
REMARK    3  A    between atoms: C_4  and  C_5
REMARK    4  A    between atoms: C_8  and  C_9
REMARK    5  A    between atoms: C_9  and  N_10
REMARK    6  A    between atoms: C_11  and  C_13
REMARK                            x       y       z     vdW  Elec       q    Type
REMARK                         _______ _______ _______ _____ _____    ______ ____
ROOT
ATOM      1  C   UNL     1      45.391   6.679  11.466  0.00  0.00    +0.000 A 
ATOM      2  C   UNL     1      45.043   7.970  11.866  0.00  0.00    +0.000 A 
ATOM      3  C   UNL     1      45.850   8.646  12.788  0.00  0.00    +0.000 A 
ATOM      4  C   UNL     1      46.991   8.024  13.302  0.00  0.00    +0.000 A 
ATOM      5  C   UNL     1      47.239   6.725  12.867  0.00  0.00    +0.000 A 
ATOM      6  N   UNL     1      46.484   6.049  11.964  0.00  0.00    +0.000 NA
ENDROOT
BRANCH   1   7
ATOM      7  C   UNL     1      44.528   5.923  10.472  0.00  0.00    +0.000 C 
BRANCH   7  10
ATOM      8  O   UNL     1      43.903   3.267   9.861  0.00  0.00    +0.000 OA
ATOM      9  C   UNL     1      44.877   3.779   9.315  0.00  0.00    +0.000 C 
ATOM     10  N   UNL     1      45.276   5.070   9.568  0.00  0.00    +0.000 N 
ATOM     11  H   UNL     1      46.115   5.414   9.109  0.00  0.00    +0.000 HD
BRANCH   9  12
ATOM     12  C   UNL     1      45.694   2.999   8.334  0.00  0.00    +0.000 A 
ATOM     13  C   UNL     1      46.080   3.628   7.153  0.00  0.00    +0.000 A 
ATOM     14  C   UNL     1      46.821   2.907   6.226  0.00  0.00    +0.000 A 
ATOM     15  C   UNL     1      47.142   1.584   6.503  0.00  0.00    +0.000 A 
ATOM     16  C   UNL     1      46.720   1.036   7.708  0.00  0.00    +0.000 A 
ATOM     17  N   UNL     1      46.003   1.709   8.641  0.00  0.00    +0.000 NA
ENDBRANCH   9  12
ENDBRANCH   7  10
ENDBRANCH   1   7
BRANCH   4  18
ATOM     18  C   UNL     1      47.919   8.690  14.280  0.00  0.00    +0.000 C 
BRANCH  18  19
ATOM     19  N   UNL     1      48.041   7.949  15.511  0.00  0.00    +0.000 N 
ATOM     20  C   UNL     1      49.201   7.295  15.855  0.00  0.00    +0.000 C 
ATOM     21  O   UNL     1      50.206   7.318  15.153  0.00  0.00    +0.000 OA
ATOM     22  H   UNL     1      47.175   7.622  15.928  0.00  0.00    +0.000 HD
BRANCH  20  23
ATOM     23  C   UNL     1      49.180   6.614  17.161  0.00  0.00    +0.000 A 
ATOM     24  C   UNL     1      49.422   5.249  17.245  0.00  0.00    +0.000 A 
ATOM     25  S   UNL     1      49.396   4.651  18.843  0.00  0.00    +0.000 S 
ATOM     26  C   UNL     1      49.013   6.183  19.474  0.00  0.00    +0.000 A 
ATOM     27  N   UNL     1      48.815   6.373  20.810  0.00  0.00    +0.000 NA
ATOM     28  C   UNL     1      48.507   7.579  21.139  0.00  0.00    +0.000 A 
ATOM     29  N   UNL     1      48.389   8.628  20.260  0.00  0.00    +0.000 N 
ATOM     30  C   UNL     1      48.629   8.496  18.915  0.00  0.00    +0.000 A 
ATOM     31  O   UNL     1      48.592   9.464  18.165  0.00  0.00    +0.000 OA
ATOM     32  C   UNL     1      48.942   7.147  18.483  0.00  0.00    +0.000 A 
ATOM     33  H   UNL     1      48.167   9.558  20.584  0.00  0.00    +0.000 HD
ENDBRANCH  20  23
ENDBRANCH  18  19
ENDBRANCH   4  18
TORSDOF 6
ENDMDL
MODEL 5
REMARK VINA RESULT:    -7.190      3.289      8.700
REMARK INTER + INTRA:         -10.627
REMARK INTER:                  -9.674
REMARK INTRA:                  -0.953
REMARK UNBOUND:                -0.915
REMARK  Name = 
REMARK  6 active torsions:
REMARK  status: ('A' for Active; 'I' for Inactive)
REMARK    1  A    between atoms: C_2  and  C_25
REMARK    2  A    between atoms: N_3  and  C_4
REMARK    3  A    between atoms: C_4  and  C_5
REMARK    4  A    between atoms: C_8  and  C_9
REMARK    5  A    between atoms: C_9  and  N_10
REMARK    6  A    between atoms: C_11  and  C_13
REMARK                            x       y       z     vdW  Elec       q    Type
REMARK                         _______ _______ _______ _____ _____    ______ ____
ROOT
ATOM      1  C   UNL     1      50.011   7.232  15.454  0.00  0.00    +0.000 A 
ATOM      2  C   UNL     1      50.290   8.260  14.552  0.00  0.00    +0.000 A 
ATOM      3  C   UNL     1      49.481   8.422  13.422  0.00  0.00    +0.000 A 
ATOM      4  C   UNL     1      48.407   7.555  13.204  0.00  0.00    +0.000 A 
ATOM      5  C   UNL     1      48.226   6.542  14.142  0.00  0.00    +0.000 A 
ATOM      6  N   UNL     1      48.985   6.368  15.255  0.00  0.00    +0.000 NA
ENDROOT
BRANCH   1   7
ATOM      7  C   UNL     1      50.877   7.032  16.684  0.00  0.00    +0.000 C 
BRANCH   7  10
ATOM      8  O   UNL     1      50.163   5.186  18.659  0.00  0.00    +0.000 OA
ATOM      9  C   UNL     1      50.988   4.848  17.813  0.00  0.00    +0.000 C 
ATOM     10  N   UNL     1      51.417   5.693  16.817  0.00  0.00    +0.000 N 
ATOM     11  H   UNL     1      52.131   5.358  16.175  0.00  0.00    +0.000 HD
BRANCH   9  12
ATOM     12  C   UNL     1      51.579   3.473  17.835  0.00  0.00    +0.000 A 
ATOM     13  C   UNL     1      52.870   3.321  18.334  0.00  0.00    +0.000 A 
ATOM     14  C   UNL     1      53.436   2.052  18.339  0.00  0.00    +0.000 A 
ATOM     15  C   UNL     1      52.700   0.985  17.839  0.00  0.00    +0.000 A 
ATOM     16  C   UNL     1      51.417   1.226  17.365  0.00  0.00    +0.000 A 
ATOM     17  N   UNL     1      50.827   2.447  17.350  0.00  0.00    +0.000 NA
ENDBRANCH   9  12
ENDBRANCH   7  10
ENDBRANCH   1   7
BRANCH   4  18
ATOM     18  C   UNL     1      47.480   7.675  12.025  0.00  0.00    +0.000 C 
BRANCH  18  19
ATOM     19  N   UNL     1      46.762   6.452  11.767  0.00  0.00    +0.000 N 
ATOM     20  C   UNL     1      45.389   6.412  11.708  0.00  0.00    +0.000 C 
ATOM     21  O   UNL     1      44.692   7.412  11.849  0.00  0.00    +0.000 OA
ATOM     22  H   UNL     1      47.248   5.589  11.987  0.00  0.00    +0.000 HD
BRANCH  20  23
ATOM     23  C   UNL     1      44.806   5.096  11.398  0.00  0.00    +0.000 A 
ATOM     24  C   UNL     1      44.017   4.440  12.333  0.00  0.00    +0.000 A 
ATOM     25  S   UNL     1      43.399   2.949  11.777  0.00  0.00    +0.000 S 
ATOM     26  C   UNL     1      44.203   3.104  10.287  0.00  0.00    +0.000 A 
ATOM     27  N   UNL     1      44.123   2.135   9.331  0.00  0.00    +0.000 NA
ATOM     28  C   UNL     1      44.802   2.378   8.265  0.00  0.00    +0.000 A 
ATOM     29  N   UNL     1      45.551   3.509   8.049  0.00  0.00    +0.000 N 
ATOM     30  C   UNL     1      45.621   4.534   8.960  0.00  0.00    +0.000 A 
ATOM     31  O   UNL     1      46.233   5.565   8.711  0.00  0.00    +0.000 OA
ATOM     32  C   UNL     1      44.904   4.295  10.198  0.00  0.00    +0.000 A 
ATOM     33  H   UNL     1      46.044   3.652   7.180  0.00  0.00    +0.000 HD
ENDBRANCH  20  23
ENDBRANCH  18  19
ENDBRANCH   4  18
TORSDOF 6
ENDMDL
MODEL 6
REMARK VINA RESULT:    -7.003      3.382      5.215
REMARK INTER + INTRA:         -10.375
REMARK INTER:                  -9.607
REMARK INTRA:                  -0.768
REMARK UNBOUND:                -0.915
REMARK  Name = 
REMARK  6 active torsions:
REMARK  status: ('A' for Active; 'I' for Inactive)
REMARK    1  A    between atoms: C_2  and  C_25
REMARK    2  A    between atoms: N_3  and  C_4
REMARK    3  A    between atoms: C_4  and  C_5
REMARK    4  A    between atoms: C_8  and  C_9
REMARK    5  A    between atoms: C_9  and  N_10
REMARK    6  A    between atoms: C_11  and  C_13
REMARK                            x       y       z     vdW  Elec       q    Type
REMARK                         _______ _______ _______ _____ _____    ______ ____
ROOT
ATOM      1  C   UNL     1      44.610   4.969  11.849  0.00  0.00    +0.000 A 
ATOM      2  C   UNL     1      43.863   6.074  11.440  0.00  0.00    +0.000 A 
ATOM      3  C   UNL     1      44.297   7.361  11.777  0.00  0.00    +0.000 A 
ATOM      4  C   UNL     1      45.467   7.528  12.521  0.00  0.00    +0.000 A 
ATOM      5  C   UNL     1      46.128   6.366  12.909  0.00  0.00    +0.000 A 
ATOM      6  N   UNL     1      45.741   5.106  12.586  0.00  0.00    +0.000 NA
ENDROOT
BRANCH   1   7
ATOM      7  C   UNL     1      44.158   3.562  11.500  0.00  0.00    +0.000 C 
BRANCH   7  10
ATOM      8  O   UNL     1      44.138   4.106   8.758  0.00  0.00    +0.000 OA
ATOM      9  C   UNL     1      44.917   3.255   9.180  0.00  0.00    +0.000 C 
ATOM     10  N   UNL     1      44.984   2.904  10.507  0.00  0.00    +0.000 N 
ATOM     11  H   UNL     1      45.626   2.163  10.778  0.00  0.00    +0.000 HD
BRANCH   9  12
ATOM     12  C   UNL     1      45.843   2.543   8.244  0.00  0.00    +0.000 A 
ATOM     13  C   UNL     1      46.442   3.280   7.226  0.00  0.00    +0.000 A 
ATOM     14  C   UNL     1      47.287   2.625   6.339  0.00  0.00    +0.000 A 
ATOM     15  C   UNL     1      47.496   1.260   6.492  0.00  0.00    +0.000 A 
ATOM     16  C   UNL     1      46.862   0.604   7.539  0.00  0.00    +0.000 A 
ATOM     17  N   UNL     1      46.037   1.208   8.429  0.00  0.00    +0.000 NA
ENDBRANCH   9  12
ENDBRANCH   7  10
ENDBRANCH   1   7
BRANCH   4  18
ATOM     18  C   UNL     1      46.009   8.878  12.907  0.00  0.00    +0.000 C 
BRANCH  18  19
ATOM     19  N   UNL     1      47.395   9.035  12.543  0.00  0.00    +0.000 N 
ATOM     20  C   UNL     1      48.379   9.218  13.485  0.00  0.00    +0.000 C 
ATOM     21  O   UNL     1      48.146   9.238  14.689  0.00  0.00    +0.000 OA
ATOM     22  H   UNL     1      47.579   9.365  11.601  0.00  0.00    +0.000 HD
BRANCH  20  23
ATOM     23  C   UNL     1      49.750   9.326  12.957  0.00  0.00    +0.000 A 
ATOM     24  C   UNL     1      50.795   8.652  13.575  0.00  0.00    +0.000 A 
ATOM     25  S   UNL     1      52.298   8.865  12.794  0.00  0.00    +0.000 S 
ATOM     26  C   UNL     1      51.615   9.903  11.634  0.00  0.00    +0.000 A 
ATOM     27  N   UNL     1      52.376  10.482  10.662  0.00  0.00    +0.000 NA
ATOM     28  C   UNL     1      51.729  11.263   9.869  0.00  0.00    +0.000 A 
ATOM     29  N   UNL     1      50.380  11.516   9.942  0.00  0.00    +0.000 N 
ATOM     30  C   UNL     1      49.565  10.918  10.871  0.00  0.00    +0.000 A 
ATOM     31  O   UNL     1      48.354  11.101  10.866  0.00  0.00    +0.000 OA
ATOM     32  C   UNL     1      50.251  10.057  11.815  0.00  0.00    +0.000 A 
ATOM     33  H   UNL     1      49.926  12.122   9.275  0.00  0.00    +0.000 HD
ENDBRANCH  20  23
ENDBRANCH  18  19
ENDBRANCH   4  18
TORSDOF 6
ENDMDL
MODEL 7
REMARK VINA RESULT:    -6.893      3.771      8.591
REMARK INTER + INTRA:         -10.227
REMARK INTER:                  -9.283
REMARK INTRA:                  -0.944
REMARK UNBOUND:                -0.915
REMARK  Name = 
REMARK  6 active torsions:
REMARK  status: ('A' for Active; 'I' for Inactive)
REMARK    1  A    between atoms: C_2  and  C_25
REMARK    2  A    between atoms: N_3  and  C_4
REMARK    3  A    between atoms: C_4  and  C_5
REMARK    4  A    between atoms: C_8  and  C_9
REMARK    5  A    between atoms: C_9  and  N_10
REMARK    6  A    between atoms: C_11  and  C_13
REMARK                            x       y       z     vdW  Elec       q    Type
REMARK                         _______ _______ _______ _____ _____    ______ ____
ROOT
ATOM      1  C   UNL     1      49.016   5.237  17.094  0.00  0.00    +0.000 A 
ATOM      2  C   UNL     1      49.664   6.422  16.744  0.00  0.00    +0.000 A 
ATOM      3  C   UNL     1      49.346   7.048  15.533  0.00  0.00    +0.000 A 
ATOM      4  C   UNL     1      48.390   6.482  14.687  0.00  0.00    +0.000 A 
ATOM      5  C   UNL     1      47.820   5.284  15.107  0.00  0.00    +0.000 A 
ATOM      6  N   UNL     1      48.096   4.660  16.281  0.00  0.00    +0.000 NA
ENDROOT
BRANCH   1   7
ATOM      7  C   UNL     1      49.347   4.535  18.399  0.00  0.00    +0.000 C 
BRANCH   7  10
ATOM      8  O   UNL     1      49.947   2.106  17.152  0.00  0.00    +0.000 OA
ATOM      9  C   UNL     1      50.845   2.695  17.748  0.00  0.00    +0.000 C 
ATOM     10  N   UNL     1      50.642   3.883  18.409  0.00  0.00    +0.000 N 
ATOM     11  H   UNL     1      51.423   4.295  18.913  0.00  0.00    +0.000 HD
BRANCH   9  12
ATOM     12  C   UNL     1      52.230   2.129  17.786  0.00  0.00    +0.000 A 
ATOM     13  C   UNL     1      53.232   2.885  18.389  0.00  0.00    +0.000 A 
ATOM     14  C   UNL     1      54.526   2.378  18.411  0.00  0.00    +0.000 A 
ATOM     15  C   UNL     1      54.776   1.143  17.824  0.00  0.00    +0.000 A 
ATOM     16  C   UNL     1      53.715   0.455  17.249  0.00  0.00    +0.000 A 
ATOM     17  N   UNL     1      52.439   0.911  17.214  0.00  0.00    +0.000 NA
ENDBRANCH   9  12
ENDBRANCH   7  10
ENDBRANCH   1   7
BRANCH   4  18
ATOM     18  C   UNL     1      47.979   7.104  13.380  0.00  0.00    +0.000 C 
BRANCH  18  19
ATOM     19  N   UNL     1      47.277   6.176  12.529  0.00  0.00    +0.000 N 
ATOM     20  C   UNL     1      46.210   6.562  11.753  0.00  0.00    +0.000 C 
ATOM     21  O   UNL     1      45.803   7.719  11.718  0.00  0.00    +0.000 OA
ATOM     22  H   UNL     1      47.344   5.195  12.780  0.00  0.00    +0.000 HD
BRANCH  20  23
ATOM     23  C   UNL     1      45.624   5.507  10.911  0.00  0.00    +0.000 A 
ATOM     24  C   UNL     1      45.737   5.567   9.528  0.00  0.00    +0.000 A 
ATOM     25  S   UNL     1      45.031   4.234   8.729  0.00  0.00    +0.000 S 
ATOM     26  C   UNL     1      44.508   3.554  10.196  0.00  0.00    +0.000 A 
ATOM     27  N   UNL     1      43.795   2.393  10.228  0.00  0.00    +0.000 NA
ATOM     28  C   UNL     1      43.446   2.011  11.407  0.00  0.00    +0.000 A 
ATOM     29  N   UNL     1      43.752   2.673  12.571  0.00  0.00    +0.000 N 
ATOM     30  C   UNL     1      44.510   3.817  12.593  0.00  0.00    +0.000 A 
ATOM     31  O   UNL     1      44.834   4.345  13.650  0.00  0.00    +0.000 OA
ATOM     32  C   UNL     1      44.898   4.314  11.287  0.00  0.00    +0.000 A 
ATOM     33  H   UNL     1      43.468   2.309  13.469  0.00  0.00    +0.000 HD
ENDBRANCH  20  23
ENDBRANCH  18  19
ENDBRANCH   4  18
TORSDOF 6
ENDMDL
MODEL 8
REMARK VINA RESULT:    -6.849      2.587      3.420
REMARK INTER + INTRA:         -10.167
REMARK INTER:                  -9.429
REMARK INTRA:                  -0.738
REMARK UNBOUND:                -0.915
REMARK  Name = 
REMARK  6 active torsions:
REMARK  status: ('A' for Active; 'I' for Inactive)
REMARK    1  A    between atoms: C_2  and  C_25
REMARK    2  A    between atoms: N_3  and  C_4
REMARK    3  A    between atoms: C_4  and  C_5
REMARK    4  A    between atoms: C_8  and  C_9
REMARK    5  A    between atoms: C_9  and  N_10
REMARK    6  A    between atoms: C_11  and  C_13
REMARK                            x       y       z     vdW  Elec       q    Type
REMARK                         _______ _______ _______ _____ _____    ______ ____
ROOT
ATOM      1  C   UNL     1      45.581   5.264  11.906  0.00  0.00    +0.000 A 
ATOM      2  C   UNL     1      46.498   6.205  12.375  0.00  0.00    +0.000 A 
ATOM      3  C   UNL     1      47.129   5.997  13.606  0.00  0.00    +0.000 A 
ATOM      4  C   UNL     1      46.833   4.856  14.356  0.00  0.00    +0.000 A 
ATOM      5  C   UNL     1      45.883   3.990  13.820  0.00  0.00    +0.000 A 
ATOM      6  N   UNL     1      45.265   4.157  12.623  0.00  0.00    +0.000 NA
ENDROOT
BRANCH   1   7
ATOM      7  C   UNL     1      44.880   5.470  10.575  0.00  0.00    +0.000 C 
BRANCH   7  10
ATOM      8  O   UNL     1      44.521   2.848   9.672  0.00  0.00    +0.000 OA
ATOM      9  C   UNL     1      45.305   3.574   9.065  0.00  0.00    +0.000 C 
ATOM     10  N   UNL     1      45.563   4.869   9.446  0.00  0.00    +0.000 N 
ATOM     11  H   UNL     1      46.253   5.399   8.919  0.00  0.00    +0.000 HD
BRANCH   9  12
ATOM     12  C   UNL     1      46.033   3.065   7.861  0.00  0.00    +0.000 A 
ATOM     13  C   UNL     1      46.466   1.742   7.866  0.00  0.00    +0.000 A 
ATOM     14  C   UNL     1      47.161   1.265   6.761  0.00  0.00    +0.000 A 
ATOM     15  C   UNL     1      47.409   2.125   5.699  0.00  0.00    +0.000 A 
ATOM     16  C   UNL     1      46.936   3.429   5.776  0.00  0.00    +0.000 A 
ATOM     17  N   UNL     1      46.248   3.929   6.831  0.00  0.00    +0.000 NA
ENDBRANCH   9  12
ENDBRANCH   7  10
ENDBRANCH   1   7
BRANCH   4  18
ATOM     18  C   UNL     1      47.482   4.550  15.678  0.00  0.00    +0.000 C 
BRANCH  18  19
ATOM     19  N   UNL     1      47.940   5.740  16.351  0.00  0.00    +0.000 N 
ATOM     20  C   UNL     1      49.232   5.869  16.804  0.00  0.00    +0.000 C 
ATOM     21  O   UNL     1      50.077   4.995  16.648  0.00  0.00    +0.000 OA
ATOM     22  H   UNL     1      47.227   6.310  16.795  0.00  0.00    +0.000 HD
BRANCH  20  23
ATOM     23  C   UNL     1      49.555   7.159  17.437  0.00  0.00    +0.000 A 
ATOM     24  C   UNL     1      49.484   8.337  16.706  0.00  0.00    +0.000 A 
ATOM     25  S   UNL     1      49.853   9.730  17.621  0.00  0.00    +0.000 S 
ATOM     26  C   UNL     1      50.168   8.805  19.012  0.00  0.00    +0.000 A 
ATOM     27  N   UNL     1      50.573   9.387  20.177  0.00  0.00    +0.000 NA
ATOM     28  C   UNL     1      50.797   8.561  21.138  0.00  0.00    +0.000 A 
ATOM     29  N   UNL     1      50.643   7.198  21.057  0.00  0.00    +0.000 N 
ATOM     30  C   UNL     1      50.190   6.572  19.922  0.00  0.00    +0.000 A 
ATOM     31  O   UNL     1      49.988   5.364  19.900  0.00  0.00    +0.000 OA
ATOM     32  C   UNL     1      49.958   7.454  18.794  0.00  0.00    +0.000 A 
ATOM     33  H   UNL     1      50.814   6.604  21.855  0.00  0.00    +0.000 HD
ENDBRANCH  20  23
ENDBRANCH  18  19
ENDBRANCH   4  18
TORSDOF 6
ENDMDL
MODEL 9
REMARK VINA RESULT:    -6.792      3.328      5.227
REMARK INTER + INTRA:         -10.089
REMARK INTER:                  -9.449
REMARK INTRA:                  -0.640
REMARK UNBOUND:                -0.915
REMARK  Name = 
REMARK  6 active torsions:
REMARK  status: ('A' for Active; 'I' for Inactive)
REMARK    1  A    between atoms: C_2  and  C_25
REMARK    2  A    between atoms: N_3  and  C_4
REMARK    3  A    between atoms: C_4  and  C_5
REMARK    4  A    between atoms: C_8  and  C_9
REMARK    5  A    between atoms: C_9  and  N_10
REMARK    6  A    between atoms: C_11  and  C_13
REMARK                            x       y       z     vdW  Elec       q    Type
REMARK                         _______ _______ _______ _____ _____    ______ ____
ROOT
ATOM      1  C   UNL     1      47.511   5.617  14.577  0.00  0.00    +0.000 A 
ATOM      2  C   UNL     1      46.897   4.381  14.786  0.00  0.00    +0.000 A 
ATOM      3  C   UNL     1      47.183   3.659  15.951  0.00  0.00    +0.000 A 
ATOM      4  C   UNL     1      48.081   4.177  16.888  0.00  0.00    +0.000 A 
ATOM      5  C   UNL     1      48.666   5.401  16.577  0.00  0.00    +0.000 A 
ATOM      6  N   UNL     1      48.398   6.132  15.465  0.00  0.00    +0.000 NA
ENDROOT
BRANCH   1   7
ATOM      7  C   UNL     1      47.221   6.417  13.320  0.00  0.00    +0.000 C 
BRANCH   7  10
ATOM      8  O   UNL     1      44.608   5.838  12.512  0.00  0.00    +0.000 OA
ATOM      9  C   UNL     1      45.539   5.394  11.844  0.00  0.00    +0.000 C 
ATOM     10  N   UNL     1      46.856   5.607  12.174  0.00  0.00    +0.000 N 
ATOM     11  H   UNL     1      47.574   5.177  11.596  0.00  0.00    +0.000 HD
BRANCH   9  12
ATOM     12  C   UNL     1      45.272   4.580  10.617  0.00  0.00    +0.000 A 
ATOM     13  C   UNL     1      44.670   3.334  10.774  0.00  0.00    +0.000 A 
ATOM     14  C   UNL     1      44.437   2.560   9.644  0.00  0.00    +0.000 A 
ATOM     15  C   UNL     1      44.821   3.050   8.402  0.00  0.00    +0.000 A 
ATOM     16  C   UNL     1      45.411   4.306   8.336  0.00  0.00    +0.000 A 
ATOM     17  N   UNL     1      45.648   5.094   9.414  0.00  0.00    +0.000 NA
ENDBRANCH   9  12
ENDBRANCH   7  10
ENDBRANCH   1   7
BRANCH   4  18
ATOM     18  C   UNL     1      48.426   3.472  18.171  0.00  0.00    +0.000 C 
BRANCH  18  19
ATOM     19  N   UNL     1      49.830   3.159  18.264  0.00  0.00    +0.000 N 
ATOM     20  C   UNL     1      50.437   2.271  17.408  0.00  0.00    +0.000 C 
ATOM     21  O   UNL     1      49.832   1.707  16.502  0.00  0.00    +0.000 OA
ATOM     22  H   UNL     1      50.268   3.316  19.166  0.00  0.00    +0.000 HD
BRANCH  20  23
ATOM     23  C   UNL     1      51.884   2.087  17.607  0.00  0.00    +0.000 A 
ATOM     24  C   UNL     1      52.422   0.811  17.716  0.00  0.00    +0.000 A 
ATOM     25  S   UNL     1      54.118   0.801  17.902  0.00  0.00    +0.000 S 
ATOM     26  C   UNL     1      54.190   2.499  17.892  0.00  0.00    +0.000 A 
ATOM     27  N   UNL     1      55.371   3.162  18.045  0.00  0.00    +0.000 NA
ATOM     28  C   UNL     1      55.269   4.446  18.041  0.00  0.00    +0.000 A 
ATOM     29  N   UNL     1      54.094   5.141  17.886  0.00  0.00    +0.000 N 
ATOM     30  C   UNL     1      52.889   4.518  17.679  0.00  0.00    +0.000 A 
ATOM     31  O   UNL     1      51.869   5.162  17.466  0.00  0.00    +0.000 OA
ATOM     32  C   UNL     1      52.941   3.069  17.712  0.00  0.00    +0.000 A 
ATOM     33  H   UNL     1      54.083   6.150  17.869  0.00  0.00    +0.000 HD
ENDBRANCH  20  23
ENDBRANCH  18  19
ENDBRANCH   4  18
TORSDOF 6
ENDMDL
