MODEL 1
REMARK VINA RESULT:    -6.801      0.000      0.000
REMARK INTER + INTRA:          -9.028
REMARK INTER:                  -8.590
REMARK INTRA:                  -0.438
REMARK UNBOUND:                -0.438
REMARK  Name = 
REMARK  6 active torsions:
REMARK  status: ('A' for Active; 'I' for Inactive)
REMARK    1  A    between atoms: N_1  and  C_2
REMARK    2  A    between atoms: C_2  and  C_3
REMARK    3  A    between atoms: C_15  and  C_16
REMARK    4  A    between atoms: C_16  and  O_17
REMARK    5  A    between atoms: C_16  and  C_18
REMARK    6  A    between atoms: C_18  and  O_19
REMARK                            x       y       z     vdW  Elec       q    Type
REMARK                         _______ _______ _______ _____ _____    ______ ____
ROOT
ATOM      1  C   UNL     1      48.596   4.002  17.082  0.00  0.00    +0.000 A 
ATOM      2  C   UNL     1      47.766   3.258  16.254  0.00  0.00    +0.000 A 
ATOM      3  N   UNL     1      47.166   3.743  15.141  0.00  0.00    +0.000 NA
ATOM      4  C   UNL     1      47.397   5.048  14.799  0.00  0.00    +0.000 A 
ATOM      5  C   UNL     1      48.228   5.883  15.580  0.00  0.00    +0.000 A 
ATOM      6  C   UNL     1      48.813   5.333  16.727  0.00  0.00    +0.000 A 
ATOM      7  N   UNL     1      48.520   7.244  15.343  0.00  0.00    +0.000 NA
ATOM      8  C   UNL     1      48.823   7.649  14.150  0.00  0.00    +0.000 C 
ATOM      9  C   UNL     1      48.869   6.789  12.920  0.00  0.00    +0.000 C 
ATOM     10  C   UNL     1      47.490   6.288  12.600  0.00  0.00    +0.000 A 
ATOM     11  C   UNL     1      46.882   6.624  11.386  0.00  0.00    +0.000 A 
ATOM     12  C   UNL     1      45.608   6.154  11.101  0.00  0.00    +0.000 A 
ATOM     13  C   UNL     1      44.964   5.352  12.036  0.00  0.00    +0.000 A 
ATOM     14  N   UNL     1      45.539   5.008  13.220  0.00  0.00    +0.000 NA
ATOM     15  C   UNL     1      46.792   5.478  13.508  0.00  0.00    +0.000 A 
ENDROOT
BRANCH   1  16
ATOM     16  C   UNL     1      49.260   3.394  18.281  0.00  0.00    +0.000 C 
BRANCH  16  17
ATOM     17  N   UNL     1      48.323   3.251  19.389  0.00  0.00    +0.000 NA
ATOM     18  H   UNL     1      48.695   3.734  20.206  0.00  0.00    +0.000 HD
ATOM     19  H   UNL     1      48.254   2.268  19.648  0.00  0.00    +0.000 HD
ENDBRANCH  16  17
ENDBRANCH   1  16
BRANCH  13  20
ATOM     20  C   UNL     1      43.581   4.792  11.733  0.00  0.00    +0.000 C 
BRANCH  20  21
ATOM     21  O   UNL     1      43.026   5.488  10.613  0.00  0.00    +0.000 OA
ATOM     22  H   UNL     1      42.705   4.787  10.007  0.00  0.00    +0.000 HD
ENDBRANCH  20  21
BRANCH  20  23
ATOM     23  C   UNL     1      43.627   3.290  11.417  0.00  0.00    +0.000 C 
BRANCH  23  24
ATOM     24  O   UNL     1      44.041   2.514  12.542  0.00  0.00    +0.000 OA
ATOM     25  H   UNL     1      44.714   3.042  13.009  0.00  0.00    +0.000 HD
ENDBRANCH  23  24
ENDBRANCH  20  23
ENDBRANCH  13  20
TORSDOF 6
ENDMDL
MODEL 2
REMARK VINA RESULT:    -6.468      3.343      5.947
REMARK INTER + INTRA:          -8.608
REMARK INTER:                  -8.171
REMARK INTRA:                  -0.436
REMARK UNBOUND:                -0.438
REMARK  Name = 
REMARK  6 active torsions:
REMARK  status: ('A' for Active; 'I' for Inactive)
REMARK    1  A    between atoms: N_1  and  C_2
REMARK    2  A    between atoms: C_2  and  C_3
REMARK    3  A    between atoms: C_15  and  C_16
REMARK    4  A    between atoms: C_16  and  O_17
REMARK    5  A    between atoms: C_16  and  C_18
REMARK    6  A    between atoms: C_18  and  O_19
REMARK                            x       y       z     vdW  Elec       q    Type
REMARK                         _______ _______ _______ _____ _____    ______ ____
ROOT
ATOM      1  C   UNL     1      44.881   3.002   9.825  0.00  0.00    +0.000 A 
ATOM      2  C   UNL     1      44.877   4.243   9.204  0.00  0.00    +0.000 A 
ATOM      3  N   UNL     1      45.031   5.422   9.854  0.00  0.00    +0.000 NA
ATOM      4  C   UNL     1      45.213   5.392  11.210  0.00  0.00    +0.000 A 
ATOM      5  C   UNL     1      45.234   4.176  11.929  0.00  0.00    +0.000 A 
ATOM      6  C   UNL     1      45.057   2.988  11.208  0.00  0.00    +0.000 A 
ATOM      7  N   UNL     1      45.388   4.021  13.324  0.00  0.00    +0.000 NA
ATOM      8  C   UNL     1      46.298   4.690  13.959  0.00  0.00    +0.000 C 
ATOM      9  C   UNL     1      47.234   5.692  13.345  0.00  0.00    +0.000 C 
ATOM     10  C   UNL     1      46.455   6.872  12.840  0.00  0.00    +0.000 A 
ATOM     11  C   UNL     1      46.689   8.148  13.362  0.00  0.00    +0.000 A 
ATOM     12  C   UNL     1      45.963   9.230  12.886  0.00  0.00    +0.000 A 
ATOM     13  C   UNL     1      45.015   9.017  11.891  0.00  0.00    +0.000 A 
ATOM     14  N   UNL     1      44.775   7.786  11.365  0.00  0.00    +0.000 NA
ATOM     15  C   UNL     1      45.483   6.714  11.839  0.00  0.00    +0.000 A 
ENDROOT
BRANCH   1  16
ATOM     16  C   UNL     1      44.742   1.731   9.041  0.00  0.00    +0.000 C 
BRANCH  16  17
ATOM     17  N   UNL     1      46.020   1.319   8.472  0.00  0.00    +0.000 NA
ATOM     18  H   UNL     1      45.897   0.437   7.976  0.00  0.00    +0.000 HD
ATOM     19  H   UNL     1      46.680   1.131   9.224  0.00  0.00    +0.000 HD
ENDBRANCH  16  17
ENDBRANCH   1  16
BRANCH  13  20
ATOM     20  C   UNL     1      44.232  10.193  11.324  0.00  0.00    +0.000 C 
BRANCH  20  21
ATOM     21  O   UNL     1      45.128  11.063  10.626  0.00  0.00    +0.000 OA
ATOM     22  H   UNL     1      44.882  10.980   9.680  0.00  0.00    +0.000 HD
ENDBRANCH  20  21
BRANCH  20  23
ATOM     23  C   UNL     1      43.126   9.737  10.364  0.00  0.00    +0.000 C 
BRANCH  23  24
ATOM     24  O   UNL     1      42.115   8.975  11.026  0.00  0.00    +0.000 OA
ATOM     25  H   UNL     1      42.086   9.297  11.946  0.00  0.00    +0.000 HD
ENDBRANCH  23  24
ENDBRANCH  20  23
ENDBRANCH  13  20
TORSDOF 6
ENDMDL
MODEL 3
REMARK VINA RESULT:    -6.376      4.537      7.247
REMARK INTER + INTRA:          -8.492
REMARK INTER:                  -8.068
REMARK INTRA:                  -0.424
REMARK UNBOUND:                -0.438
REMARK  Name = 
REMARK  6 active torsions:
REMARK  status: ('A' for Active; 'I' for Inactive)
REMARK    1  A    between atoms: N_1  and  C_2
REMARK    2  A    between atoms: C_2  and  C_3
REMARK    3  A    between atoms: C_15  and  C_16
REMARK    4  A    between atoms: C_16  and  O_17
REMARK    5  A    between atoms: C_16  and  C_18
REMARK    6  A    between atoms: C_18  and  O_19
REMARK                            x       y       z     vdW  Elec       q    Type
REMARK                         _______ _______ _______ _____ _____    ______ ____
ROOT
ATOM      1  C   UNL     1      46.055   3.319   7.224  0.00  0.00    +0.000 A 
ATOM      2  C   UNL     1      46.683   4.503   7.584  0.00  0.00    +0.000 A 
ATOM      3  N   UNL     1      46.418   5.192   8.720  0.00  0.00    +0.000 NA
ATOM      4  C   UNL     1      45.479   4.687   9.578  0.00  0.00    +0.000 A 
ATOM      5  C   UNL     1      44.789   3.486   9.298  0.00  0.00    +0.000 A 
ATOM      6  C   UNL     1      45.093   2.822   8.103  0.00  0.00    +0.000 A 
ATOM      7  N   UNL     1      43.787   2.882  10.089  0.00  0.00    +0.000 NA
ATOM      8  C   UNL     1      43.943   2.777  11.371  0.00  0.00    +0.000 C 
ATOM      9  C   UNL     1      45.121   3.282  12.153  0.00  0.00    +0.000 C 
ATOM     10  C   UNL     1      45.170   4.782  12.084  0.00  0.00    +0.000 A 
ATOM     11  C   UNL     1      45.066   5.546  13.251  0.00  0.00    +0.000 A 
ATOM     12  C   UNL     1      45.113   6.930  13.174  0.00  0.00    +0.000 A 
ATOM     13  C   UNL     1      45.267   7.529  11.928  0.00  0.00    +0.000 A 
ATOM     14  N   UNL     1      45.376   6.805  10.781  0.00  0.00    +0.000 NA
ATOM     15  C   UNL     1      45.320   5.439  10.853  0.00  0.00    +0.000 A 
ENDROOT
BRANCH   1  16
ATOM     16  C   UNL     1      46.422   2.584   5.969  0.00  0.00    +0.000 C 
BRANCH  16  17
ATOM     17  N   UNL     1      47.769   2.928   5.529  0.00  0.00    +0.000 NA
ATOM     18  H   UNL     1      47.874   3.942   5.533  0.00  0.00    +0.000 HD
ATOM     19  H   UNL     1      47.894   2.633   4.562  0.00  0.00    +0.000 HD
ENDBRANCH  16  17
ENDBRANCH   1  16
BRANCH  13  20
ATOM     20  C   UNL     1      45.360   9.044  11.820  0.00  0.00    +0.000 C 
BRANCH  20  21
ATOM     21  O   UNL     1      44.460   9.639  12.758  0.00  0.00    +0.000 OA
ATOM     22  H   UNL     1      44.142   8.898  13.317  0.00  0.00    +0.000 HD
ENDBRANCH  20  21
BRANCH  20  23
ATOM     23  C   UNL     1      46.782   9.553  12.097  0.00  0.00    +0.000 C 
BRANCH  23  24
ATOM     24  O   UNL     1      47.775   8.570  11.799  0.00  0.00    +0.000 OA
ATOM     25  H   UNL     1      48.631   8.958  12.054  0.00  0.00    +0.000 HD
ENDBRANCH  23  24
ENDBRANCH  20  23
ENDBRANCH  13  20
TORSDOF 6
ENDMDL
MODEL 4
REMARK VINA RESULT:    -6.298      2.673      5.925
REMARK INTER + INTRA:          -8.392
REMARK INTER:                  -7.983
REMARK INTRA:                  -0.409
REMARK UNBOUND:                -0.438
REMARK  Name = 
REMARK  6 active torsions:
REMARK  status: ('A' for Active; 'I' for Inactive)
REMARK    1  A    between atoms: N_1  and  C_2
REMARK    2  A    between atoms: C_2  and  C_3
REMARK    3  A    between atoms: C_15  and  C_16
REMARK    4  A    between atoms: C_16  and  O_17
REMARK    5  A    between atoms: C_16  and  C_18
REMARK    6  A    between atoms: C_18  and  O_19
REMARK                            x       y       z     vdW  Elec       q    Type
REMARK                         _______ _______ _______ _____ _____    ______ ____
ROOT
ATOM      1  C   UNL     1      44.469   5.163  11.640  0.00  0.00    +0.000 A 
ATOM      2  C   UNL     1      44.341   4.617  12.910  0.00  0.00    +0.000 A 
ATOM      3  N   UNL     1      45.300   4.675  13.866  0.00  0.00    +0.000 NA
ATOM      4  C   UNL     1      46.469   5.323  13.569  0.00  0.00    +0.000 A 
ATOM      5  C   UNL     1      46.689   5.912  12.304  0.00  0.00    +0.000 A 
ATOM      6  C   UNL     1      45.670   5.810  11.349  0.00  0.00    +0.000 A 
ATOM      7  N   UNL     1      47.857   6.581  11.875  0.00  0.00    +0.000 NA
ATOM      8  C   UNL     1      48.434   7.446  12.647  0.00  0.00    +0.000 C 
ATOM      9  C   UNL     1      47.993   7.811  14.036  0.00  0.00    +0.000 C 
ATOM     10  C   UNL     1      48.143   6.624  14.944  0.00  0.00    +0.000 A 
ATOM     11  C   UNL     1      48.999   6.684  16.048  0.00  0.00    +0.000 A 
ATOM     12  C   UNL     1      49.128   5.582  16.879  0.00  0.00    +0.000 A 
ATOM     13  C   UNL     1      48.394   4.435  16.594  0.00  0.00    +0.000 A 
ATOM     14  N   UNL     1      47.550   4.357  15.530  0.00  0.00    +0.000 NA
ATOM     15  C   UNL     1      47.429   5.441  14.701  0.00  0.00    +0.000 A 
ENDROOT
BRANCH   1  16
ATOM     16  C   UNL     1      43.355   5.096  10.640  0.00  0.00    +0.000 C 
BRANCH  16  17
ATOM     17  N   UNL     1      43.841   4.662   9.335  0.00  0.00    +0.000 NA
ATOM     18  H   UNL     1      44.693   5.172   9.108  0.00  0.00    +0.000 HD
ATOM     19  H   UNL     1      43.160   4.915   8.620  0.00  0.00    +0.000 HD
ENDBRANCH  16  17
ENDBRANCH   1  16
BRANCH  13  20
ATOM     20  C   UNL     1      48.488   3.225  17.512  0.00  0.00    +0.000 C 
BRANCH  20  21
ATOM     21  O   UNL     1      47.244   2.519  17.489  0.00  0.00    +0.000 OA
ATOM     22  H   UNL     1      46.626   3.101  16.997  0.00  0.00    +0.000 HD
ENDBRANCH  20  21
BRANCH  20  23
ATOM     23  C   UNL     1      49.615   2.272  17.092  0.00  0.00    +0.000 C 
BRANCH  23  24
ATOM     24  O   UNL     1      49.381   1.692  15.807  0.00  0.00    +0.000 OA
ATOM     25  H   UNL     1      49.803   2.282  15.158  0.00  0.00    +0.000 HD
ENDBRANCH  23  24
ENDBRANCH  20  23
ENDBRANCH  13  20
TORSDOF 6
ENDMDL
MODEL 5
REMARK VINA RESULT:    -5.210      1.656      2.107
REMARK INTER + INTRA:          -7.018
REMARK INTER:                  -6.719
REMARK INTRA:                  -0.299
REMARK UNBOUND:                -0.438
REMARK  Name = 
REMARK  6 active torsions:
REMARK  status: ('A' for Active; 'I' for Inactive)
REMARK    1  A    between atoms: N_1  and  C_2
REMARK    2  A    between atoms: C_2  and  C_3
REMARK    3  A    between atoms: C_15  and  C_16
REMARK    4  A    between atoms: C_16  and  O_17
REMARK    5  A    between atoms: C_16  and  C_18
REMARK    6  A    between atoms: C_18  and  O_19
REMARK                            x       y       z     vdW  Elec       q    Type
REMARK                         _______ _______ _______ _____ _____    ______ ____
ROOT
ATOM      1  C   UNL     1      49.444   6.145  17.329  0.00  0.00    +0.000 A 
ATOM      2  C   UNL     1      48.894   5.015  16.740  0.00  0.00    +0.000 A 
ATOM      3  N   UNL     1      48.182   5.025  15.587  0.00  0.00    +0.000 NA
ATOM      4  C   UNL     1      47.999   6.223  14.952  0.00  0.00    +0.000 A 
ATOM      5  C   UNL     1      48.523   7.427  15.474  0.00  0.00    +0.000 A 
ATOM      6  C   UNL     1      49.240   7.360  16.675  0.00  0.00    +0.000 A 
ATOM      7  N   UNL     1      48.380   8.720  14.924  0.00  0.00    +0.000 NA
ATOM      8  C   UNL     1      48.553   8.913  13.655  0.00  0.00    +0.000 C 
ATOM      9  C   UNL     1      48.874   7.849  12.645  0.00  0.00    +0.000 C 
ATOM     10  C   UNL     1      47.721   6.893  12.531  0.00  0.00    +0.000 A 
ATOM     11  C   UNL     1      47.049   6.740  11.314  0.00  0.00    +0.000 A 
ATOM     12  C   UNL     1      45.987   5.852  11.222  0.00  0.00    +0.000 A 
ATOM     13  C   UNL     1      45.616   5.129  12.350  0.00  0.00    +0.000 A 
ATOM     14  N   UNL     1      46.259   5.258  13.542  0.00  0.00    +0.000 NA
ATOM     15  C   UNL     1      47.302   6.140  13.639  0.00  0.00    +0.000 A 
ENDROOT
BRANCH   1  16
ATOM     16  C   UNL     1      50.254   6.061  18.588  0.00  0.00    +0.000 C 
BRANCH  16  17
ATOM     17  N   UNL     1      51.554   6.701  18.424  0.00  0.00    +0.000 NA
ATOM     18  H   UNL     1      51.442   7.551  17.872  0.00  0.00    +0.000 HD
ATOM     19  H   UNL     1      52.165   6.091  17.883  0.00  0.00    +0.000 HD
ENDBRANCH  16  17
ENDBRANCH   1  16
BRANCH  13  20
ATOM     20  C   UNL     1      44.478   4.121  12.266  0.00  0.00    +0.000 C 
BRANCH  20  21
ATOM     21  O   UNL     1      45.017   2.797  12.329  0.00  0.00    +0.000 OA
ATOM     22  H   UNL     1      45.124   2.518  11.394  0.00  0.00    +0.000 HD
ENDBRANCH  20  21
BRANCH  20  23
ATOM     23  C   UNL     1      43.464   4.304  13.403  0.00  0.00    +0.000 C 
BRANCH  23  24
ATOM     24  O   UNL     1      42.815   5.576  13.348  0.00  0.00    +0.000 OA
ATOM     25  H   UNL     1      41.886   5.422  13.596  0.00  0.00    +0.000 HD
ENDBRANCH  23  24
ENDBRANCH  20  23
ENDBRANCH  13  20
TORSDOF 6
ENDMDL
MODEL 6
REMARK VINA RESULT:    -4.768      5.183      7.003
REMARK INTER + INTRA:          -6.460
REMARK INTER:                  -5.981
REMARK INTRA:                  -0.480
REMARK UNBOUND:                -0.438
REMARK  Name = 
REMARK  6 active torsions:
REMARK  status: ('A' for Active; 'I' for Inactive)
REMARK    1  A    between atoms: N_1  and  C_2
REMARK    2  A    between atoms: C_2  and  C_3
REMARK    3  A    between atoms: C_15  and  C_16
REMARK    4  A    between atoms: C_16  and  O_17
REMARK    5  A    between atoms: C_16  and  C_18
REMARK    6  A    between atoms: C_18  and  O_19
REMARK                            x       y       z     vdW  Elec       q    Type
REMARK                         _______ _______ _______ _____ _____    ______ ____
ROOT
ATOM      1  C   UNL     1      52.975   1.211  18.042  0.00  0.00    +0.000 A 
ATOM      2  C   UNL     1      53.226   2.493  18.510  0.00  0.00    +0.000 A 
ATOM      3  N   UNL     1      52.415   3.557  18.295  0.00  0.00    +0.000 NA
ATOM      4  C   UNL     1      51.266   3.358  17.578  0.00  0.00    +0.000 A 
ATOM      5  C   UNL     1      50.925   2.087  17.063  0.00  0.00    +0.000 A 
ATOM      6  C   UNL     1      51.805   1.026  17.304  0.00  0.00    +0.000 A 
ATOM      7  N   UNL     1      49.785   1.766  16.292  0.00  0.00    +0.000 NA
ATOM      8  C   UNL     1      48.617   2.207  16.639  0.00  0.00    +0.000 C 
ATOM      9  C   UNL     1      48.332   3.098  17.814  0.00  0.00    +0.000 C 
ATOM     10  C   UNL     1      48.981   4.436  17.606  0.00  0.00    +0.000 A 
ATOM     11  C   UNL     1      48.202   5.595  17.539  0.00  0.00    +0.000 A 
ATOM     12  C   UNL     1      48.813   6.825  17.348  0.00  0.00    +0.000 A 
ATOM     13  C   UNL     1      50.197   6.876  17.228  0.00  0.00    +0.000 A 
ATOM     14  N   UNL     1      50.975   5.762  17.296  0.00  0.00    +0.000 NA
ATOM     15  C   UNL     1      50.374   4.545  17.476  0.00  0.00    +0.000 A 
ENDROOT
BRANCH   1  16
ATOM     16  C   UNL     1      53.896   0.067  18.347  0.00  0.00    +0.000 C 
BRANCH  16  17
ATOM     17  N   UNL     1      53.150  -1.119  18.750  0.00  0.00    +0.000 NA
ATOM     18  H   UNL     1      53.379  -1.888  18.122  0.00  0.00    +0.000 HD
ATOM     19  H   UNL     1      52.153  -0.946  18.636  0.00  0.00    +0.000 HD
ENDBRANCH  16  17
ENDBRANCH   1  16
BRANCH  13  20
ATOM     20  C   UNL     1      50.896   8.217  17.056  0.00  0.00    +0.000 C 
BRANCH  20  21
ATOM     21  O   UNL     1      52.140   8.195  17.762  0.00  0.00    +0.000 OA
ATOM     22  H   UNL     1      51.910   7.945  18.682  0.00  0.00    +0.000 HD
ENDBRANCH  20  21
BRANCH  20  23
ATOM     23  C   UNL     1      51.163   8.540  15.579  0.00  0.00    +0.000 C 
BRANCH  23  24
ATOM     24  O   UNL     1      51.177   7.367  14.764  0.00  0.00    +0.000 OA
ATOM     25  H   UNL     1      51.957   6.850  15.037  0.00  0.00    +0.000 HD
ENDBRANCH  23  24
ENDBRANCH  20  23
ENDBRANCH  13  20
TORSDOF 6
ENDMDL
MODEL 7
REMARK VINA RESULT:    -4.760      4.117      6.273
REMARK INTER + INTRA:          -6.449
REMARK INTER:                  -6.253
REMARK INTRA:                  -0.197
REMARK UNBOUND:                -0.438
REMARK  Name = 
REMARK  6 active torsions:
REMARK  status: ('A' for Active; 'I' for Inactive)
REMARK    1  A    between atoms: N_1  and  C_2
REMARK    2  A    between atoms: C_2  and  C_3
REMARK    3  A    between atoms: C_15  and  C_16
REMARK    4  A    between atoms: C_16  and  O_17
REMARK    5  A    between atoms: C_16  and  C_18
REMARK    6  A    between atoms: C_18  and  O_19
REMARK                            x       y       z     vdW  Elec       q    Type
REMARK                         _______ _______ _______ _____ _____    ______ ____
ROOT
ATOM      1  C   UNL     1      44.469   4.890  12.688  0.00  0.00    +0.000 A 
ATOM      2  C   UNL     1      45.782   4.884  13.138  0.00  0.00    +0.000 A 
ATOM      3  N   UNL     1      46.666   5.889  12.924  0.00  0.00    +0.000 NA
ATOM      4  C   UNL     1      46.239   6.988  12.229  0.00  0.00    +0.000 A 
ATOM      5  C   UNL     1      44.919   7.085  11.734  0.00  0.00    +0.000 A 
ATOM      6  C   UNL     1      44.051   6.012  11.973  0.00  0.00    +0.000 A 
ATOM      7  N   UNL     1      44.372   8.151  10.986  0.00  0.00    +0.000 NA
ATOM      8  C   UNL     1      44.585   9.377  11.347  0.00  0.00    +0.000 C 
ATOM      9  C   UNL     1      45.420   9.813  12.517  0.00  0.00    +0.000 C 
ATOM     10  C   UNL     1      46.855   9.438  12.282  0.00  0.00    +0.000 A 
ATOM     11  C   UNL     1      47.841  10.428  12.215  0.00  0.00    +0.000 A 
ATOM     12  C   UNL     1      49.163  10.069  12.000  0.00  0.00    +0.000 A 
ATOM     13  C   UNL     1      49.479   8.722  11.857  0.00  0.00    +0.000 A 
ATOM     14  N   UNL     1      48.537   7.742  11.924  0.00  0.00    +0.000 NA
ATOM     15  C   UNL     1      47.230   8.094  12.127  0.00  0.00    +0.000 A 
ENDROOT
BRANCH   1  16
ATOM     16  C   UNL     1      43.530   3.761  12.991  0.00  0.00    +0.000 C 
BRANCH  16  17
ATOM     17  N   UNL     1      44.031   2.499  12.460  0.00  0.00    +0.000 NA
ATOM     18  H   UNL     1      44.977   2.342  12.807  0.00  0.00    +0.000 HD
ATOM     19  H   UNL     1      44.108   2.565  11.447  0.00  0.00    +0.000 HD
ENDBRANCH  16  17
ENDBRANCH   1  16
BRANCH  13  20
ATOM     20  C   UNL     1      50.927   8.298  11.657  0.00  0.00    +0.000 C 
BRANCH  20  21
ATOM     21  O   UNL     1      50.960   7.005  11.046  0.00  0.00    +0.000 OA
ATOM     22  H   UNL     1      51.761   6.569  11.407  0.00  0.00    +0.000 HD
ENDBRANCH  20  21
BRANCH  20  23
ATOM     23  C   UNL     1      51.699   9.290  10.776  0.00  0.00    +0.000 C 
BRANCH  23  24
ATOM     24  O   UNL     1      52.463   8.632   9.764  0.00  0.00    +0.000 OA
ATOM     25  H   UNL     1      53.185   8.165  10.223  0.00  0.00    +0.000 HD
ENDBRANCH  23  24
ENDBRANCH  20  23
ENDBRANCH  13  20
TORSDOF 6
ENDMDL
MODEL 8
REMARK VINA RESULT:    -4.540      4.256      6.516
REMARK INTER + INTRA:          -6.171
REMARK INTER:                  -5.953
REMARK INTRA:                  -0.219
REMARK UNBOUND:                -0.438
REMARK  Name = 
REMARK  6 active torsions:
REMARK  status: ('A' for Active; 'I' for Inactive)
REMARK    1  A    between atoms: N_1  and  C_2
REMARK    2  A    between atoms: C_2  and  C_3
REMARK    3  A    between atoms: C_15  and  C_16
REMARK    4  A    between atoms: C_16  and  O_17
REMARK    5  A    between atoms: C_16  and  C_18
REMARK    6  A    between atoms: C_18  and  O_19
REMARK                            x       y       z     vdW  Elec       q    Type
REMARK                         _______ _______ _______ _____ _____    ______ ____
ROOT
ATOM      1  C   UNL     1      54.106   0.879  18.506  0.00  0.00    +0.000 A 
ATOM      2  C   UNL     1      53.011   0.689  17.675  0.00  0.00    +0.000 A 
ATOM      3  N   UNL     1      52.072   1.633  17.424  0.00  0.00    +0.000 NA
ATOM      4  C   UNL     1      52.213   2.858  18.017  0.00  0.00    +0.000 A 
ATOM      5  C   UNL     1      53.296   3.145  18.878  0.00  0.00    +0.000 A 
ATOM      6  C   UNL     1      54.231   2.129  19.112  0.00  0.00    +0.000 A 
ATOM      7  N   UNL     1      53.533   4.357  19.563  0.00  0.00    +0.000 NA
ATOM      8  C   UNL     1      53.408   5.490  18.948  0.00  0.00    +0.000 C 
ATOM      9  C   UNL     1      52.983   5.667  17.519  0.00  0.00    +0.000 C 
ATOM     10  C   UNL     1      51.563   5.208  17.351  0.00  0.00    +0.000 A 
ATOM     11  C   UNL     1      50.576   6.105  16.933  0.00  0.00    +0.000 A 
ATOM     12  C   UNL     1      49.268   5.668  16.780  0.00  0.00    +0.000 A 
ATOM     13  C   UNL     1      48.970   4.337  17.047  0.00  0.00    +0.000 A 
ATOM     14  N   UNL     1      49.915   3.445  17.449  0.00  0.00    +0.000 NA
ATOM     15  C   UNL     1      51.205   3.876  17.610  0.00  0.00    +0.000 A 
ENDROOT
BRANCH   1  16
ATOM     16  C   UNL     1      55.132  -0.196  18.714  0.00  0.00    +0.000 C 
BRANCH  16  17
ATOM     17  N   UNL     1      54.684  -1.170  19.702  0.00  0.00    +0.000 NA
ATOM     18  H   UNL     1      55.484  -1.484  20.249  0.00  0.00    +0.000 HD
ATOM     19  H   UNL     1      54.325  -1.995  19.225  0.00  0.00    +0.000 HD
ENDBRANCH  16  17
ENDBRANCH   1  16
BRANCH  13  20
ATOM     20  C   UNL     1      47.550   3.822  16.851  0.00  0.00    +0.000 C 
BRANCH  20  21
ATOM     21  O   UNL     1      46.698   4.405  17.841  0.00  0.00    +0.000 OA
ATOM     22  H   UNL     1      47.220   5.137  18.233  0.00  0.00    +0.000 HD
ENDBRANCH  20  21
BRANCH  20  23
ATOM     23  C   UNL     1      47.005   4.160  15.457  0.00  0.00    +0.000 C 
BRANCH  23  24
ATOM     24  O   UNL     1      47.386   3.191  14.478  0.00  0.00    +0.000 OA
ATOM     25  H   UNL     1      46.617   2.606  14.356  0.00  0.00    +0.000 HD
ENDBRANCH  23  24
ENDBRANCH  20  23
ENDBRANCH  13  20
TORSDOF 6
ENDMDL
MODEL 9
REMARK VINA RESULT:    -4.317      9.781     10.786
REMARK INTER + INTRA:          -5.890
REMARK INTER:                  -5.450
REMARK INTRA:                  -0.440
REMARK UNBOUND:                -0.438
REMARK  Name = 
REMARK  6 active torsions:
REMARK  status: ('A' for Active; 'I' for Inactive)
REMARK    1  A    between atoms: N_1  and  C_2
REMARK    2  A    between atoms: C_2  and  C_3
REMARK    3  A    between atoms: C_15  and  C_16
REMARK    4  A    between atoms: C_16  and  O_17
REMARK    5  A    between atoms: C_16  and  C_18
REMARK    6  A    between atoms: C_18  and  O_19
REMARK                            x       y       z     vdW  Elec       q    Type
REMARK                         _______ _______ _______ _____ _____    ______ ____
ROOT
ATOM      1  C   UNL     1      40.744  -2.949  17.532  0.00  0.00    +0.000 A 
ATOM      2  C   UNL     1      40.095  -1.967  18.266  0.00  0.00    +0.000 A 
ATOM      3  N   UNL     1      39.288  -1.020  17.728  0.00  0.00    +0.000 NA
ATOM      4  C   UNL     1      39.089  -1.036  16.374  0.00  0.00    +0.000 A 
ATOM      5  C   UNL     1      39.706  -1.999  15.544  0.00  0.00    +0.000 A 
ATOM      6  C   UNL     1      40.540  -2.945  16.152  0.00  0.00    +0.000 A 
ATOM      7  N   UNL     1      39.597  -2.099  14.140  0.00  0.00    +0.000 NA
ATOM      8  C   UNL     1      38.440  -1.993  13.566  0.00  0.00    +0.000 C 
ATOM      9  C   UNL     1      37.138  -1.728  14.265  0.00  0.00    +0.000 C 
ATOM     10  C   UNL     1      37.164  -0.359  14.883  0.00  0.00    +0.000 A 
ATOM     11  C   UNL     1      36.243   0.613  14.482  0.00  0.00    +0.000 A 
ATOM     12  C   UNL     1      36.276   1.873  15.061  0.00  0.00    +0.000 A 
ATOM     13  C   UNL     1      37.230   2.139  16.037  0.00  0.00    +0.000 A 
ATOM     14  N   UNL     1      38.131   1.206  16.447  0.00  0.00    +0.000 NA
ATOM     15  C   UNL     1      38.107  -0.036  15.870  0.00  0.00    +0.000 A 
ENDROOT
BRANCH   1  16
ATOM     16  C   UNL     1      41.595  -3.992  18.193  0.00  0.00    +0.000 C 
BRANCH  16  17
ATOM     17  N   UNL     1      42.769  -4.306  17.387  0.00  0.00    +0.000 NA
ATOM     18  H   UNL     1      43.544  -3.711  17.678  0.00  0.00    +0.000 HD
ATOM     19  H   UNL     1      42.582  -4.072  16.413  0.00  0.00    +0.000 HD
ENDBRANCH  16  17
ENDBRANCH   1  16
BRANCH  13  20
ATOM     20  C   UNL     1      37.264   3.501  16.715  0.00  0.00    +0.000 C 
BRANCH  20  21
ATOM     21  O   UNL     1      36.058   3.685  17.462  0.00  0.00    +0.000 OA
ATOM     22  H   UNL     1      36.282   4.340  18.157  0.00  0.00    +0.000 HD
ENDBRANCH  20  21
BRANCH  20  23
ATOM     23  C   UNL     1      38.465   3.642  17.660  0.00  0.00    +0.000 C 
BRANCH  23  24
ATOM     24  O   UNL     1      39.698   3.773  16.950  0.00  0.00    +0.000 OA
ATOM     25  H   UNL     1      40.316   4.226  17.553  0.00  0.00    +0.000 HD
ENDBRANCH  23  24
ENDBRANCH  20  23
ENDBRANCH  13  20
TORSDOF 6
ENDMDL
