MODEL 1
REMARK VINA RESULT:    -7.938      0.000      0.000
REMARK INTER + INTRA:         -13.123
REMARK INTER:                 -11.650
REMARK INTRA:                  -1.473
REMARK UNBOUND:                -1.473
REMARK  Name = 
REMARK  10 active torsions:
REMARK  status: ('A' for Active; 'I' for Inactive)
REMARK    1  A    between atoms: C_1  and  C_2
REMARK    2  A    between atoms: C_2  and  N_3
REMARK    3  A    between atoms: C_2  and  C_21
REMARK    4  A    between atoms: N_3  and  C_4
REMARK    5  A    between atoms: C_7  and  C_8
REMARK    6  A    between atoms: C_8  and  C_9
REMARK    7  A    between atoms: C_8  and  C_11
REMARK    8  A    between atoms: C_8  and  C_13
REMARK    9  A    between atoms: C_9  and  O_10
REMARK   10  A    between atoms: C_11  and  O_12
REMARK                            x       y       z     vdW  Elec       q    Type
REMARK                         _______ _______ _______ _____ _____    ______ ____
ROOT
ATOM      1  C   UNL     1      47.285   6.465  13.844  0.00  0.00    +0.000 A 
ATOM      2  C   UNL     1      46.817   6.998  12.639  0.00  0.00    +0.000 A 
ATOM      3  C   UNL     1      45.961   6.269  11.803  0.00  0.00    +0.000 A 
ATOM      4  C   UNL     1      45.579   4.956  12.125  0.00  0.00    +0.000 A 
ATOM      5  C   UNL     1      46.194   4.375  13.246  0.00  0.00    +0.000 A 
ATOM      6  C   UNL     1      47.040   5.117  14.088  0.00  0.00    +0.000 A 
ENDROOT
BRANCH   1   7
ATOM      7  N   UNL     1      48.030   7.305  14.679  0.00  0.00    +0.000 N 
ATOM      8  H   UNL     1      48.421   8.063  14.123  0.00  0.00    +0.000 HD
BRANCH   7  10
ATOM      9  C   UNL     1      50.400   7.337  15.173  0.00  0.00    +0.000 C 
ATOM     10  C   UNL     1      49.047   6.738  15.591  0.00  0.00    +0.000 C 
BRANCH  10  11
ATOM     11  C   UNL     1      48.819   6.959  17.083  0.00  0.00    +0.000 A 
ATOM     12  C   UNL     1      48.443   8.160  17.662  0.00  0.00    +0.000 A 
ATOM     13  S   UNL     1      48.138   8.032  19.340  0.00  0.00    +0.000 S 
ATOM     14  C   UNL     1      48.512   6.370  19.343  0.00  0.00    +0.000 A 
ATOM     15  N   UNL     1      48.385   5.610  20.464  0.00  0.00    +0.000 NA
ATOM     16  C   UNL     1      48.702   4.367  20.299  0.00  0.00    +0.000 A 
ATOM     17  N   UNL     1      49.173   3.824  19.130  0.00  0.00    +0.000 N 
ATOM     18  C   UNL     1      49.380   4.568  17.990  0.00  0.00    +0.000 A 
ATOM     19  O   UNL     1      49.917   4.095  16.995  0.00  0.00    +0.000 OA
ATOM     20  C   UNL     1      48.937   5.945  18.099  0.00  0.00    +0.000 A 
ATOM     21  H   UNL     1      49.457   2.857  19.087  0.00  0.00    +0.000 HD
ENDBRANCH  10  11
ENDBRANCH   7  10
ENDBRANCH   1   7
BRANCH   4  22
ATOM     22  C   UNL     1      44.476   4.239  11.297  0.00  0.00    +0.000 C 
BRANCH  22  23
ATOM     23  C   UNL     1      45.035   3.662   9.966  0.00  0.00    +0.000 A 
ATOM     24  C   UNL     1      45.410   4.483   8.897  0.00  0.00    +0.000 A 
ATOM     25  C   UNL     1      45.863   3.901   7.713  0.00  0.00    +0.000 A 
ATOM     26  C   UNL     1      45.911   2.518   7.602  0.00  0.00    +0.000 A 
ATOM     27  C   UNL     1      45.505   1.771   8.689  0.00  0.00    +0.000 A 
ATOM     28  N   UNL     1      45.074   2.305   9.849  0.00  0.00    +0.000 NA
ENDBRANCH  22  23
BRANCH  22  29
ATOM     29  C   UNL     1      43.889   3.061  12.138  0.00  0.00    +0.000 C 
BRANCH  29  30
ATOM     30  O   UNL     1      42.761   2.442  11.505  0.00  0.00    +0.000 OA
ATOM     31  H   UNL     1      41.974   2.932  11.808  0.00  0.00    +0.000 HD
ENDBRANCH  29  30
ENDBRANCH  22  29
BRANCH  22  32
ATOM     32  C   UNL     1      43.294   5.169  10.871  0.00  0.00    +0.000 C 
BRANCH  32  33
ATOM     33  O   UNL     1      42.198   5.195  11.793  0.00  0.00    +0.000 OA
ATOM     34  H   UNL     1      41.386   5.355  11.266  0.00  0.00    +0.000 HD
ENDBRANCH  32  33
ENDBRANCH  22  32
ENDBRANCH   4  22
TORSDOF 9
ENDMDL
MODEL 2
REMARK VINA RESULT:    -7.256      1.543      2.093
REMARK INTER + INTRA:         -12.123
REMARK INTER:                 -10.772
REMARK INTRA:                  -1.351
REMARK UNBOUND:                -1.473
REMARK  Name = 
REMARK  10 active torsions:
REMARK  status: ('A' for Active; 'I' for Inactive)
REMARK    1  A    between atoms: C_1  and  C_2
REMARK    2  A    between atoms: C_2  and  N_3
REMARK    3  A    between atoms: C_2  and  C_21
REMARK    4  A    between atoms: N_3  and  C_4
REMARK    5  A    between atoms: C_7  and  C_8
REMARK    6  A    between atoms: C_8  and  C_9
REMARK    7  A    between atoms: C_8  and  C_11
REMARK    8  A    between atoms: C_8  and  C_13
REMARK    9  A    between atoms: C_9  and  O_10
REMARK   10  A    between atoms: C_11  and  O_12
REMARK                            x       y       z     vdW  Elec       q    Type
REMARK                         _______ _______ _______ _____ _____    ______ ____
ROOT
ATOM      1  C   UNL     1      47.402   6.277  13.986  0.00  0.00    +0.000 A 
ATOM      2  C   UNL     1      47.073   6.794  12.730  0.00  0.00    +0.000 A 
ATOM      3  C   UNL     1      46.189   6.124  11.874  0.00  0.00    +0.000 A 
ATOM      4  C   UNL     1      45.636   4.883  12.231  0.00  0.00    +0.000 A 
ATOM      5  C   UNL     1      46.111   4.296  13.416  0.00  0.00    +0.000 A 
ATOM      6  C   UNL     1      46.987   4.981  14.276  0.00  0.00    +0.000 A 
ENDROOT
BRANCH   1   7
ATOM      7  N   UNL     1      48.190   7.070  14.828  0.00  0.00    +0.000 N 
ATOM      8  H   UNL     1      48.605   7.822  14.282  0.00  0.00    +0.000 HD
BRANCH   7  10
ATOM      9  C   UNL     1      50.463   7.306  15.625  0.00  0.00    +0.000 C 
ATOM     10  C   UNL     1      49.193   6.445  15.718  0.00  0.00    +0.000 C 
BRANCH  10  11
ATOM     11  C   UNL     1      48.788   6.269  17.177  0.00  0.00    +0.000 A 
ATOM     12  C   UNL     1      48.817   5.071  17.873  0.00  0.00    +0.000 A 
ATOM     13  S   UNL     1      48.431   5.246  19.530  0.00  0.00    +0.000 S 
ATOM     14  C   UNL     1      48.202   6.925  19.363  0.00  0.00    +0.000 A 
ATOM     15  N   UNL     1      47.921   7.720  20.431  0.00  0.00    +0.000 NA
ATOM     16  C   UNL     1      47.782   8.971  20.138  0.00  0.00    +0.000 A 
ATOM     17  N   UNL     1      47.859   9.495  18.871  0.00  0.00    +0.000 N 
ATOM     18  C   UNL     1      48.076   8.721  17.753  0.00  0.00    +0.000 A 
ATOM     19  O   UNL     1      48.017   9.187  16.621  0.00  0.00    +0.000 OA
ATOM     20  C   UNL     1      48.342   7.327  18.048  0.00  0.00    +0.000 A 
ATOM     21  H   UNL     1      47.683  10.475  18.706  0.00  0.00    +0.000 HD
ENDBRANCH  10  11
ENDBRANCH   7  10
ENDBRANCH   1   7
BRANCH   4  22
ATOM     22  C   UNL     1      44.508   4.253  11.367  0.00  0.00    +0.000 C 
BRANCH  22  23
ATOM     23  C   UNL     1      45.051   3.704  10.018  0.00  0.00    +0.000 A 
ATOM     24  C   UNL     1      45.384   4.546   8.951  0.00  0.00    +0.000 A 
ATOM     25  C   UNL     1      45.824   3.988   7.750  0.00  0.00    +0.000 A 
ATOM     26  C   UNL     1      45.902   2.607   7.622  0.00  0.00    +0.000 A 
ATOM     27  C   UNL     1      45.536   1.839   8.708  0.00  0.00    +0.000 A 
ATOM     28  N   UNL     1      45.119   2.350   9.884  0.00  0.00    +0.000 NA
ENDBRANCH  22  23
BRANCH  22  29
ATOM     29  C   UNL     1      43.859   3.070  12.156  0.00  0.00    +0.000 C 
BRANCH  29  30
ATOM     30  O   UNL     1      42.685   2.559  11.511  0.00  0.00    +0.000 OA
ATOM     31  H   UNL     1      42.352   1.839  12.078  0.00  0.00    +0.000 HD
ENDBRANCH  29  30
ENDBRANCH  22  29
BRANCH  22  32
ATOM     32  C   UNL     1      43.375   5.254  10.971  0.00  0.00    +0.000 C 
BRANCH  32  33
ATOM     33  O   UNL     1      42.538   5.663  12.059  0.00  0.00    +0.000 OA
ATOM     34  H   UNL     1      43.118   5.754  12.846  0.00  0.00    +0.000 HD
ENDBRANCH  32  33
ENDBRANCH  22  32
ENDBRANCH   4  22
TORSDOF 9
ENDMDL
MODEL 3
REMARK VINA RESULT:    -7.088      2.869      8.296
REMARK INTER + INTRA:         -11.876
REMARK INTER:                 -10.721
REMARK INTRA:                  -1.155
REMARK UNBOUND:                -1.473
REMARK  Name = 
REMARK  10 active torsions:
REMARK  status: ('A' for Active; 'I' for Inactive)
REMARK    1  A    between atoms: C_1  and  C_2
REMARK    2  A    between atoms: C_2  and  N_3
REMARK    3  A    between atoms: C_2  and  C_21
REMARK    4  A    between atoms: N_3  and  C_4
REMARK    5  A    between atoms: C_7  and  C_8
REMARK    6  A    between atoms: C_8  and  C_9
REMARK    7  A    between atoms: C_8  and  C_11
REMARK    8  A    between atoms: C_8  and  C_13
REMARK    9  A    between atoms: C_9  and  O_10
REMARK   10  A    between atoms: C_11  and  O_12
REMARK                            x       y       z     vdW  Elec       q    Type
REMARK                         _______ _______ _______ _____ _____    ______ ____
ROOT
ATOM      1  C   UNL     1      47.536   6.474  13.810  0.00  0.00    +0.000 A 
ATOM      2  C   UNL     1      47.091   5.166  14.020  0.00  0.00    +0.000 A 
ATOM      3  C   UNL     1      47.425   4.460  15.182  0.00  0.00    +0.000 A 
ATOM      4  C   UNL     1      48.260   5.026  16.159  0.00  0.00    +0.000 A 
ATOM      5  C   UNL     1      48.839   6.269  15.854  0.00  0.00    +0.000 A 
ATOM      6  C   UNL     1      48.487   6.978  14.692  0.00  0.00    +0.000 A 
ENDROOT
BRANCH   1   7
ATOM      7  N   UNL     1      47.053   7.152  12.686  0.00  0.00    +0.000 N 
ATOM      8  H   UNL     1      47.332   8.129  12.742  0.00  0.00    +0.000 HD
BRANCH   7  10
ATOM      9  C   UNL     1      45.203   8.400  11.747  0.00  0.00    +0.000 C 
ATOM     10  C   UNL     1      45.631   7.029  12.293  0.00  0.00    +0.000 C 
BRANCH  10  11
ATOM     11  C   UNL     1      45.299   5.938  11.281  0.00  0.00    +0.000 A 
ATOM     12  C   UNL     1      45.781   5.882   9.983  0.00  0.00    +0.000 A 
ATOM     13  S   UNL     1      45.324   4.455   9.157  0.00  0.00    +0.000 S 
ATOM     14  C   UNL     1      44.459   3.878  10.505  0.00  0.00    +0.000 A 
ATOM     15  N   UNL     1      43.867   2.653  10.506  0.00  0.00    +0.000 NA
ATOM     16  C   UNL     1      43.255   2.361  11.606  0.00  0.00    +0.000 A 
ATOM     17  N   UNL     1      43.145   3.196  12.690  0.00  0.00    +0.000 N 
ATOM     18  C   UNL     1      43.671   4.469  12.710  0.00  0.00    +0.000 A 
ATOM     19  O   UNL     1      43.457   5.244  13.635  0.00  0.00    +0.000 OA
ATOM     20  C   UNL     1      44.456   4.798  11.537  0.00  0.00    +0.000 A 
ATOM     21  H   UNL     1      42.603   2.927  13.497  0.00  0.00    +0.000 HD
ENDBRANCH  10  11
ENDBRANCH   7  10
ENDBRANCH   1   7
BRANCH   4  22
ATOM     22  C   UNL     1      48.456   4.314  17.527  0.00  0.00    +0.000 C 
BRANCH  22  23
ATOM     23  C   UNL     1      49.960   4.136  17.876  0.00  0.00    +0.000 A 
ATOM     24  C   UNL     1      50.693   3.017  17.466  0.00  0.00    +0.000 A 
ATOM     25  C   UNL     1      52.029   2.894  17.850  0.00  0.00    +0.000 A 
ATOM     26  C   UNL     1      52.605   3.870  18.653  0.00  0.00    +0.000 A 
ATOM     27  C   UNL     1      51.816   4.934  19.038  0.00  0.00    +0.000 A 
ATOM     28  N   UNL     1      50.527   5.085  18.673  0.00  0.00    +0.000 NA
ENDBRANCH  22  23
BRANCH  22  29
ATOM     29  C   UNL     1      47.787   5.170  18.650  0.00  0.00    +0.000 C 
BRANCH  29  30
ATOM     30  O   UNL     1      46.377   5.340  18.445  0.00  0.00    +0.000 OA
ATOM     31  H   UNL     1      46.133   4.743  17.714  0.00  0.00    +0.000 HD
ENDBRANCH  29  30
ENDBRANCH  22  29
BRANCH  22  32
ATOM     32  C   UNL     1      47.853   2.874  17.588  0.00  0.00    +0.000 C 
BRANCH  32  33
ATOM     33  O   UNL     1      46.428   2.833  17.726  0.00  0.00    +0.000 OA
ATOM     34  H   UNL     1      46.050   3.022  16.840  0.00  0.00    +0.000 HD
ENDBRANCH  32  33
ENDBRANCH  22  32
ENDBRANCH   4  22
TORSDOF 9
ENDMDL
MODEL 4
REMARK VINA RESULT:    -6.979      1.752      2.165
REMARK INTER + INTRA:         -11.715
REMARK INTER:                 -10.089
REMARK INTRA:                  -1.626
REMARK UNBOUND:                -1.473
REMARK  Name = 
REMARK  10 active torsions:
REMARK  status: ('A' for Active; 'I' for Inactive)
REMARK    1  A    between atoms: C_1  and  C_2
REMARK    2  A    between atoms: C_2  and  N_3
REMARK    3  A    between atoms: C_2  and  C_21
REMARK    4  A    between atoms: N_3  and  C_4
REMARK    5  A    between atoms: C_7  and  C_8
REMARK    6  A    between atoms: C_8  and  C_9
REMARK    7  A    between atoms: C_8  and  C_11
REMARK    8  A    between atoms: C_8  and  C_13
REMARK    9  A    between atoms: C_9  and  O_10
REMARK   10  A    between atoms: C_11  and  O_12
REMARK                            x       y       z     vdW  Elec       q    Type
REMARK                         _______ _______ _______ _____ _____    ______ ____
ROOT
ATOM      1  C   UNL     1      48.477   6.659  13.701  0.00  0.00    +0.000 A 
ATOM      2  C   UNL     1      48.094   7.101  12.432  0.00  0.00    +0.000 A 
ATOM      3  C   UNL     1      46.909   6.655  11.831  0.00  0.00    +0.000 A 
ATOM      4  C   UNL     1      46.087   5.709  12.465  0.00  0.00    +0.000 A 
ATOM      5  C   UNL     1      46.573   5.145  13.657  0.00  0.00    +0.000 A 
ATOM      6  C   UNL     1      47.755   5.609  14.260  0.00  0.00    +0.000 A 
ENDROOT
BRANCH   1   7
ATOM      7  N   UNL     1      49.605   7.249  14.280  0.00  0.00    +0.000 N 
ATOM      8  H   UNL     1      50.352   6.560  14.329  0.00  0.00    +0.000 HD
BRANCH   7  10
ATOM      9  C   UNL     1      48.271   8.923  15.412  0.00  0.00    +0.000 C 
ATOM     10  C   UNL     1      49.488   7.994  15.553  0.00  0.00    +0.000 C 
BRANCH  10  11
ATOM     11  C   UNL     1      49.358   7.155  16.820  0.00  0.00    +0.000 A 
ATOM     12  C   UNL     1      48.252   7.137  17.654  0.00  0.00    +0.000 A 
ATOM     13  S   UNL     1      48.377   5.985  18.913  0.00  0.00    +0.000 S 
ATOM     14  C   UNL     1      49.919   5.488  18.387  0.00  0.00    +0.000 A 
ATOM     15  N   UNL     1      50.584   4.462  18.986  0.00  0.00    +0.000 NA
ATOM     16  C   UNL     1      51.739   4.205  18.465  0.00  0.00    +0.000 A 
ATOM     17  N   UNL     1      52.307   4.902  17.428  0.00  0.00    +0.000 N 
ATOM     18  C   UNL     1      51.701   5.986  16.835  0.00  0.00    +0.000 A 
ATOM     19  O   UNL     1      52.275   6.673  15.996  0.00  0.00    +0.000 OA
ATOM     20  C   UNL     1      50.358   6.245  17.317  0.00  0.00    +0.000 A 
ATOM     21  H   UNL     1      53.238   4.683  17.108  0.00  0.00    +0.000 HD
ENDBRANCH  10  11
ENDBRANCH   7  10
ENDBRANCH   1   7
BRANCH   4  22
ATOM     22  C   UNL     1      44.684   5.378  11.883  0.00  0.00    +0.000 C 
BRANCH  22  23
ATOM     23  C   UNL     1      44.777   4.431  10.654  0.00  0.00    +0.000 A 
ATOM     24  C   UNL     1      44.427   3.078  10.728  0.00  0.00    +0.000 A 
ATOM     25  C   UNL     1      44.575   2.270   9.601  0.00  0.00    +0.000 A 
ATOM     26  C   UNL     1      45.090   2.811   8.430  0.00  0.00    +0.000 A 
ATOM     27  C   UNL     1      45.436   4.147   8.437  0.00  0.00    +0.000 A 
ATOM     28  N   UNL     1      45.292   4.955   9.507  0.00  0.00    +0.000 NA
ENDBRANCH  22  23
BRANCH  22  29
ATOM     29  C   UNL     1      43.825   4.677  12.984  0.00  0.00    +0.000 C 
BRANCH  29  30
ATOM     30  O   UNL     1      42.731   5.490  13.428  0.00  0.00    +0.000 OA
ATOM     31  H   UNL     1      42.260   4.970  14.105  0.00  0.00    +0.000 HD
ENDBRANCH  29  30
ENDBRANCH  22  29
BRANCH  22  32
ATOM     32  C   UNL     1      43.896   6.627  11.373  0.00  0.00    +0.000 C 
BRANCH  32  33
ATOM     33  O   UNL     1      42.685   6.319  10.673  0.00  0.00    +0.000 OA
ATOM     34  H   UNL     1      42.021   6.991  10.940  0.00  0.00    +0.000 HD
ENDBRANCH  32  33
ENDBRANCH  22  32
ENDBRANCH   4  22
TORSDOF 9
ENDMDL
MODEL 5
REMARK VINA RESULT:    -6.926      2.148      2.669
REMARK INTER + INTRA:         -11.638
REMARK INTER:                 -10.346
REMARK INTRA:                  -1.292
REMARK UNBOUND:                -1.473
REMARK  Name = 
REMARK  10 active torsions:
REMARK  status: ('A' for Active; 'I' for Inactive)
REMARK    1  A    between atoms: C_1  and  C_2
REMARK    2  A    between atoms: C_2  and  N_3
REMARK    3  A    between atoms: C_2  and  C_21
REMARK    4  A    between atoms: N_3  and  C_4
REMARK    5  A    between atoms: C_7  and  C_8
REMARK    6  A    between atoms: C_8  and  C_9
REMARK    7  A    between atoms: C_8  and  C_11
REMARK    8  A    between atoms: C_8  and  C_13
REMARK    9  A    between atoms: C_9  and  O_10
REMARK   10  A    between atoms: C_11  and  O_12
REMARK                            x       y       z     vdW  Elec       q    Type
REMARK                         _______ _______ _______ _____ _____    ______ ____
ROOT
ATOM      1  C   UNL     1      47.430   4.851  14.962  0.00  0.00    +0.000 A 
ATOM      2  C   UNL     1      47.196   6.086  14.350  0.00  0.00    +0.000 A 
ATOM      3  C   UNL     1      46.312   6.209  13.271  0.00  0.00    +0.000 A 
ATOM      4  C   UNL     1      45.662   5.085  12.734  0.00  0.00    +0.000 A 
ATOM      5  C   UNL     1      46.040   3.832  13.245  0.00  0.00    +0.000 A 
ATOM      6  C   UNL     1      46.917   3.718  14.337  0.00  0.00    +0.000 A 
ENDROOT
BRANCH   1   7
ATOM      7  N   UNL     1      48.227   4.837  16.111  0.00  0.00    +0.000 N 
ATOM      8  H   UNL     1      47.716   4.382  16.864  0.00  0.00    +0.000 HD
BRANCH   7  10
ATOM      9  C   UNL     1      48.341   6.342  18.003  0.00  0.00    +0.000 C 
ATOM     10  C   UNL     1      48.874   6.080  16.586  0.00  0.00    +0.000 C 
BRANCH  10  11
ATOM     11  C   UNL     1      50.399   6.090  16.594  0.00  0.00    +0.000 A 
ATOM     12  C   UNL     1      51.193   7.050  15.985  0.00  0.00    +0.000 A 
ATOM     13  S   UNL     1      52.861   6.842  16.299  0.00  0.00    +0.000 S 
ATOM     14  C   UNL     1      52.572   5.456  17.247  0.00  0.00    +0.000 A 
ATOM     15  N   UNL     1      53.579   4.808  17.893  0.00  0.00    +0.000 NA
ATOM     16  C   UNL     1      53.194   3.779  18.575  0.00  0.00    +0.000 A 
ATOM     17  N   UNL     1      51.904   3.315  18.636  0.00  0.00    +0.000 N 
ATOM     18  C   UNL     1      50.865   3.898  17.947  0.00  0.00    +0.000 A 
ATOM     19  O   UNL     1      49.746   3.398  17.914  0.00  0.00    +0.000 OA
ATOM     20  C   UNL     1      51.232   5.118  17.254  0.00  0.00    +0.000 A 
ATOM     21  H   UNL     1      51.683   2.470  19.142  0.00  0.00    +0.000 HD
ENDBRANCH  10  11
ENDBRANCH   7  10
ENDBRANCH   1   7
BRANCH   4  22
ATOM     22  C   UNL     1      44.538   5.264  11.676  0.00  0.00    +0.000 C 
BRANCH  22  23
ATOM     23  C   UNL     1      44.857   4.505  10.358  0.00  0.00    +0.000 A 
ATOM     24  C   UNL     1      45.641   5.067   9.345  0.00  0.00    +0.000 A 
ATOM     25  C   UNL     1      45.854   4.351   8.166  0.00  0.00    +0.000 A 
ATOM     26  C   UNL     1      45.266   3.103   8.005  0.00  0.00    +0.000 A 
ATOM     27  C   UNL     1      44.487   2.621   9.037  0.00  0.00    +0.000 A 
ATOM     28  N   UNL     1      44.274   3.285  10.191  0.00  0.00    +0.000 NA
ENDBRANCH  22  23
BRANCH  22  29
ATOM     29  C   UNL     1      43.197   4.707  12.255  0.00  0.00    +0.000 C 
BRANCH  29  30
ATOM     30  O   UNL     1      42.710   5.485  13.357  0.00  0.00    +0.000 OA
ATOM     31  H   UNL     1      42.319   6.291  12.972  0.00  0.00    +0.000 HD
ENDBRANCH  29  30
ENDBRANCH  22  29
BRANCH  22  32
ATOM     32  C   UNL     1      44.302   6.747  11.242  0.00  0.00    +0.000 C 
BRANCH  32  33
ATOM     33  O   UNL     1      42.927   7.095  11.043  0.00  0.00    +0.000 OA
ATOM     34  H   UNL     1      42.393   6.455  11.561  0.00  0.00    +0.000 HD
ENDBRANCH  32  33
ENDBRANCH  22  32
ENDBRANCH   4  22
TORSDOF 9
ENDMDL
MODEL 6
REMARK VINA RESULT:    -6.925      1.755      2.198
REMARK INTER + INTRA:         -11.637
REMARK INTER:                 -10.654
REMARK INTRA:                  -0.983
REMARK UNBOUND:                -1.473
REMARK  Name = 
REMARK  10 active torsions:
REMARK  status: ('A' for Active; 'I' for Inactive)
REMARK    1  A    between atoms: C_1  and  C_2
REMARK    2  A    between atoms: C_2  and  N_3
REMARK    3  A    between atoms: C_2  and  C_21
REMARK    4  A    between atoms: N_3  and  C_4
REMARK    5  A    between atoms: C_7  and  C_8
REMARK    6  A    between atoms: C_8  and  C_9
REMARK    7  A    between atoms: C_8  and  C_11
REMARK    8  A    between atoms: C_8  and  C_13
REMARK    9  A    between atoms: C_9  and  O_10
REMARK   10  A    between atoms: C_11  and  O_12
REMARK                            x       y       z     vdW  Elec       q    Type
REMARK                         _______ _______ _______ _____ _____    ______ ____
ROOT
ATOM      1  C   UNL     1      47.266   4.719  14.660  0.00  0.00    +0.000 A 
ATOM      2  C   UNL     1      47.040   5.933  14.005  0.00  0.00    +0.000 A 
ATOM      3  C   UNL     1      46.232   6.006  12.863  0.00  0.00    +0.000 A 
ATOM      4  C   UNL     1      45.656   4.851  12.308  0.00  0.00    +0.000 A 
ATOM      5  C   UNL     1      46.034   3.621  12.873  0.00  0.00    +0.000 A 
ATOM      6  C   UNL     1      46.834   3.558  14.028  0.00  0.00    +0.000 A 
ENDROOT
BRANCH   1   7
ATOM      7  N   UNL     1      47.979   4.754  15.863  0.00  0.00    +0.000 N 
ATOM      8  H   UNL     1      48.797   4.155  15.782  0.00  0.00    +0.000 HD
BRANCH   7  10
ATOM      9  C   UNL     1      47.264   3.010  17.382  0.00  0.00    +0.000 C 
ATOM     10  C   UNL     1      47.284   4.529  17.150  0.00  0.00    +0.000 C 
BRANCH  10  11
ATOM     11  C   UNL     1      47.868   5.234  18.369  0.00  0.00    +0.000 A 
ATOM     12  C   UNL     1      47.176   6.108  19.193  0.00  0.00    +0.000 A 
ATOM     13  S   UNL     1      48.084   6.617  20.549  0.00  0.00    +0.000 S 
ATOM     14  C   UNL     1      49.433   5.695  20.068  0.00  0.00    +0.000 A 
ATOM     15  N   UNL     1      50.556   5.617  20.833  0.00  0.00    +0.000 NA
ATOM     16  C   UNL     1      51.487   4.873  20.331  0.00  0.00    +0.000 A 
ATOM     17  N   UNL     1      51.414   4.232  19.119  0.00  0.00    +0.000 N 
ATOM     18  C   UNL     1      50.325   4.335  18.283  0.00  0.00    +0.000 A 
ATOM     19  O   UNL     1      50.327   3.860  17.153  0.00  0.00    +0.000 OA
ATOM     20  C   UNL     1      49.216   5.075  18.853  0.00  0.00    +0.000 A 
ATOM     21  H   UNL     1      52.201   3.713  18.761  0.00  0.00    +0.000 HD
ENDBRANCH  10  11
ENDBRANCH   7  10
ENDBRANCH   1   7
BRANCH   4  22
ATOM     22  C   UNL     1      44.606   4.972  11.169  0.00  0.00    +0.000 C 
BRANCH  22  23
ATOM     23  C   UNL     1      45.044   4.200   9.893  0.00  0.00    +0.000 A 
ATOM     24  C   UNL     1      44.866   2.819   9.759  0.00  0.00    +0.000 A 
ATOM     25  C   UNL     1      45.322   2.178   8.607  0.00  0.00    +0.000 A 
ATOM     26  C   UNL     1      45.967   2.914   7.621  0.00  0.00    +0.000 A 
ATOM     27  C   UNL     1      46.127   4.268   7.831  0.00  0.00    +0.000 A 
ATOM     28  N   UNL     1      45.687   4.916   8.928  0.00  0.00    +0.000 NA
ENDBRANCH  22  23
BRANCH  22  29
ATOM     29  C   UNL     1      43.246   4.379  11.662  0.00  0.00    +0.000 C 
BRANCH  29  30
ATOM     30  O   UNL     1      42.853   4.895  12.941  0.00  0.00    +0.000 OA
ATOM     31  H   UNL     1      42.957   5.863  12.890  0.00  0.00    +0.000 HD
ENDBRANCH  29  30
ENDBRANCH  22  29
BRANCH  22  32
ATOM     32  C   UNL     1      44.352   6.438  10.689  0.00  0.00    +0.000 C 
BRANCH  32  33
ATOM     33  O   UNL     1      43.146   7.025  11.190  0.00  0.00    +0.000 OA
ATOM     34  H   UNL     1      42.797   7.608  10.482  0.00  0.00    +0.000 HD
ENDBRANCH  32  33
ENDBRANCH  22  32
ENDBRANCH   4  22
TORSDOF 9
ENDMDL
MODEL 7
REMARK VINA RESULT:    -6.824      1.770      2.471
REMARK INTER + INTRA:         -11.488
REMARK INTER:                  -9.551
REMARK INTRA:                  -1.937
REMARK UNBOUND:                -1.473
REMARK  Name = 
REMARK  10 active torsions:
REMARK  status: ('A' for Active; 'I' for Inactive)
REMARK    1  A    between atoms: C_1  and  C_2
REMARK    2  A    between atoms: C_2  and  N_3
REMARK    3  A    between atoms: C_2  and  C_21
REMARK    4  A    between atoms: N_3  and  C_4
REMARK    5  A    between atoms: C_7  and  C_8
REMARK    6  A    between atoms: C_8  and  C_9
REMARK    7  A    between atoms: C_8  and  C_11
REMARK    8  A    between atoms: C_8  and  C_13
REMARK    9  A    between atoms: C_9  and  O_10
REMARK   10  A    between atoms: C_11  and  O_12
REMARK                            x       y       z     vdW  Elec       q    Type
REMARK                         _______ _______ _______ _____ _____    ______ ____
ROOT
ATOM      1  C   UNL     1      48.832   7.055  13.003  0.00  0.00    +0.000 A 
ATOM      2  C   UNL     1      48.245   5.932  13.593  0.00  0.00    +0.000 A 
ATOM      3  C   UNL     1      46.931   5.552  13.290  0.00  0.00    +0.000 A 
ATOM      4  C   UNL     1      46.139   6.315  12.416  0.00  0.00    +0.000 A 
ATOM      5  C   UNL     1      46.682   7.531  11.969  0.00  0.00    +0.000 A 
ATOM      6  C   UNL     1      48.006   7.898  12.265  0.00  0.00    +0.000 A 
ENDROOT
BRANCH   1   7
ATOM      7  N   UNL     1      50.186   7.290  13.261  0.00  0.00    +0.000 N 
ATOM      8  H   UNL     1      50.631   6.414  13.526  0.00  0.00    +0.000 HD
BRANCH   7  10
ATOM      9  C   UNL     1      50.623   9.671  13.326  0.00  0.00    +0.000 C 
ATOM     10  C   UNL     1      50.594   8.386  14.169  0.00  0.00    +0.000 C 
BRANCH  10  11
ATOM     11  C   UNL     1      49.731   8.595  15.409  0.00  0.00    +0.000 A 
ATOM     12  C   UNL     1      48.939   9.707  15.651  0.00  0.00    +0.000 A 
ATOM     13  S   UNL     1      47.994   9.564  17.069  0.00  0.00    +0.000 S 
ATOM     14  C   UNL     1      48.626   8.019  17.408  0.00  0.00    +0.000 A 
ATOM     15  N   UNL     1      48.184   7.280  18.462  0.00  0.00    +0.000 NA
ATOM     16  C   UNL     1      48.759   6.129  18.579  0.00  0.00    +0.000 A 
ATOM     17  N   UNL     1      49.762   5.664  17.764  0.00  0.00    +0.000 N 
ATOM     18  C   UNL     1      50.286   6.403  16.727  0.00  0.00    +0.000 A 
ATOM     19  O   UNL     1      51.263   6.025  16.090  0.00  0.00    +0.000 OA
ATOM     20  C   UNL     1      49.598   7.658  16.495  0.00  0.00    +0.000 A 
ATOM     21  H   UNL     1      50.207   4.778  17.948  0.00  0.00    +0.000 HD
ENDBRANCH  10  11
ENDBRANCH   7  10
ENDBRANCH   1   7
BRANCH   4  22
ATOM     22  C   UNL     1      44.764   5.774  11.935  0.00  0.00    +0.000 C 
BRANCH  22  23
ATOM     23  C   UNL     1      44.916   4.768  10.760  0.00  0.00    +0.000 A 
ATOM     24  C   UNL     1      44.592   3.413  10.892  0.00  0.00    +0.000 A 
ATOM     25  C   UNL     1      44.793   2.553   9.812  0.00  0.00    +0.000 A 
ATOM     26  C   UNL     1      45.334   3.046   8.632  0.00  0.00    +0.000 A 
ATOM     27  C   UNL     1      45.650   4.388   8.581  0.00  0.00    +0.000 A 
ATOM     28  N   UNL     1      45.455   5.245   9.604  0.00  0.00    +0.000 NA
ENDBRANCH  22  23
BRANCH  22  29
ATOM     29  C   UNL     1      44.058   5.043  13.123  0.00  0.00    +0.000 C 
BRANCH  29  30
ATOM     30  O   UNL     1      42.732   5.534  13.360  0.00  0.00    +0.000 OA
ATOM     31  H   UNL     1      42.165   5.134  12.675  0.00  0.00    +0.000 HD
ENDBRANCH  29  30
ENDBRANCH  22  29
BRANCH  22  32
ATOM     32  C   UNL     1      43.796   6.879  11.400  0.00  0.00    +0.000 C 
BRANCH  32  33
ATOM     33  O   UNL     1      42.699   6.382  10.625  0.00  0.00    +0.000 OA
ATOM     34  H   UNL     1      42.812   6.730   9.714  0.00  0.00    +0.000 HD
ENDBRANCH  32  33
ENDBRANCH  22  32
ENDBRANCH   4  22
TORSDOF 9
ENDMDL
MODEL 8
REMARK VINA RESULT:    -6.800      2.321      3.312
REMARK INTER + INTRA:         -11.453
REMARK INTER:                 -10.018
REMARK INTRA:                  -1.435
REMARK UNBOUND:                -1.473
REMARK  Name = 
REMARK  10 active torsions:
REMARK  status: ('A' for Active; 'I' for Inactive)
REMARK    1  A    between atoms: C_1  and  C_2
REMARK    2  A    between atoms: C_2  and  N_3
REMARK    3  A    between atoms: C_2  and  C_21
REMARK    4  A    between atoms: N_3  and  C_4
REMARK    5  A    between atoms: C_7  and  C_8
REMARK    6  A    between atoms: C_8  and  C_9
REMARK    7  A    between atoms: C_8  and  C_11
REMARK    8  A    between atoms: C_8  and  C_13
REMARK    9  A    between atoms: C_9  and  O_10
REMARK   10  A    between atoms: C_11  and  O_12
REMARK                            x       y       z     vdW  Elec       q    Type
REMARK                         _______ _______ _______ _____ _____    ______ ____
ROOT
ATOM      1  C   UNL     1      47.339   4.258  15.030  0.00  0.00    +0.000 A 
ATOM      2  C   UNL     1      47.068   5.584  14.682  0.00  0.00    +0.000 A 
ATOM      3  C   UNL     1      46.240   5.899  13.596  0.00  0.00    +0.000 A 
ATOM      4  C   UNL     1      45.690   4.889  12.789  0.00  0.00    +0.000 A 
ATOM      5  C   UNL     1      46.111   3.573  13.044  0.00  0.00    +0.000 A 
ATOM      6  C   UNL     1      46.930   3.265  14.145  0.00  0.00    +0.000 A 
ENDROOT
BRANCH   1   7
ATOM      7  N   UNL     1      48.069   4.031  16.201  0.00  0.00    +0.000 N 
ATOM      8  H   UNL     1      47.573   3.351  16.775  0.00  0.00    +0.000 HD
BRANCH   7  10
ATOM      9  C   UNL     1      47.673   5.194  18.288  0.00  0.00    +0.000 C 
ATOM     10  C   UNL     1      48.541   5.170  17.020  0.00  0.00    +0.000 C 
BRANCH  10  11
ATOM     11  C   UNL     1      50.017   5.166  17.399  0.00  0.00    +0.000 A 
ATOM     12  C   UNL     1      50.584   4.381  18.391  0.00  0.00    +0.000 A 
ATOM     13  S   UNL     1      52.287   4.518  18.468  0.00  0.00    +0.000 S 
ATOM     14  C   UNL     1      52.315   5.640  17.187  0.00  0.00    +0.000 A 
ATOM     15  N   UNL     1      53.484   6.123  16.684  0.00  0.00    +0.000 NA
ATOM     16  C   UNL     1      53.335   6.961  15.711  0.00  0.00    +0.000 A 
ATOM     17  N   UNL     1      52.127   7.391  15.222  0.00  0.00    +0.000 N 
ATOM     18  C   UNL     1      50.920   6.981  15.742  0.00  0.00    +0.000 A 
ATOM     19  O   UNL     1      49.856   7.468  15.377  0.00  0.00    +0.000 OA
ATOM     20  C   UNL     1      51.039   5.960  16.765  0.00  0.00    +0.000 A 
ATOM     21  H   UNL     1      52.083   8.092  14.498  0.00  0.00    +0.000 HD
ENDBRANCH  10  11
ENDBRANCH   7  10
ENDBRANCH   1   7
BRANCH   4  22
ATOM     22  C   UNL     1      44.618   5.242  11.719  0.00  0.00    +0.000 C 
BRANCH  22  23
ATOM     23  C   UNL     1      44.909   4.550  10.359  0.00  0.00    +0.000 A 
ATOM     24  C   UNL     1      45.714   5.140   9.378  0.00  0.00    +0.000 A 
ATOM     25  C   UNL     1      45.900   4.486   8.160  0.00  0.00    +0.000 A 
ATOM     26  C   UNL     1      45.265   3.274   7.927  0.00  0.00    +0.000 A 
ATOM     27  C   UNL     1      44.468   2.762   8.930  0.00  0.00    +0.000 A 
ATOM     28  N   UNL     1      44.279   3.365  10.121  0.00  0.00    +0.000 NA
ENDBRANCH  22  23
BRANCH  22  29
ATOM     29  C   UNL     1      43.217   4.771  12.224  0.00  0.00    +0.000 C 
BRANCH  29  30
ATOM     30  O   UNL     1      42.746   5.542  13.338  0.00  0.00    +0.000 OA
ATOM     31  H   UNL     1      42.908   5.001  14.133  0.00  0.00    +0.000 HD
ENDBRANCH  29  30
ENDBRANCH  22  29
BRANCH  22  32
ATOM     32  C   UNL     1      44.529   6.767  11.387  0.00  0.00    +0.000 C 
BRANCH  32  33
ATOM     33  O   UNL     1      43.210   7.229  11.073  0.00  0.00    +0.000 OA
ATOM     34  H   UNL     1      42.942   7.838  11.794  0.00  0.00    +0.000 HD
ENDBRANCH  32  33
ENDBRANCH  22  32
ENDBRANCH   4  22
TORSDOF 9
ENDMDL
MODEL 9
REMARK VINA RESULT:    -6.540      2.277      3.046
REMARK INTER + INTRA:         -11.072
REMARK INTER:                  -9.699
REMARK INTRA:                  -1.372
REMARK UNBOUND:                -1.473
REMARK  Name = 
REMARK  10 active torsions:
REMARK  status: ('A' for Active; 'I' for Inactive)
REMARK    1  A    between atoms: C_1  and  C_2
REMARK    2  A    between atoms: C_2  and  N_3
REMARK    3  A    between atoms: C_2  and  C_21
REMARK    4  A    between atoms: N_3  and  C_4
REMARK    5  A    between atoms: C_7  and  C_8
REMARK    6  A    between atoms: C_8  and  C_9
REMARK    7  A    between atoms: C_8  and  C_11
REMARK    8  A    between atoms: C_8  and  C_13
REMARK    9  A    between atoms: C_9  and  O_10
REMARK   10  A    between atoms: C_11  and  O_12
REMARK                            x       y       z     vdW  Elec       q    Type
REMARK                         _______ _______ _______ _____ _____    ______ ____
ROOT
ATOM      1  C   UNL     1      47.300   7.233  13.097  0.00  0.00    +0.000 A 
ATOM      2  C   UNL     1      47.408   5.846  13.230  0.00  0.00    +0.000 A 
ATOM      3  C   UNL     1      46.408   4.988  12.754  0.00  0.00    +0.000 A 
ATOM      4  C   UNL     1      45.238   5.496  12.166  0.00  0.00    +0.000 A 
ATOM      5  C   UNL     1      45.066   6.890  12.198  0.00  0.00    +0.000 A 
ATOM      6  C   UNL     1      46.080   7.744  12.664  0.00  0.00    +0.000 A 
ENDROOT
BRANCH   1   7
ATOM      7  N   UNL     1      48.398   8.009  13.483  0.00  0.00    +0.000 N 
ATOM      8  H   UNL     1      48.255   8.967  13.170  0.00  0.00    +0.000 HD
BRANCH   7  10
ATOM      9  C   UNL     1      50.090   8.010  11.751  0.00  0.00    +0.000 C 
ATOM     10  C   UNL     1      49.775   7.556  13.185  0.00  0.00    +0.000 C 
BRANCH  10  11
ATOM     11  C   UNL     1      50.867   8.035  14.135  0.00  0.00    +0.000 A 
ATOM     12  C   UNL     1      51.876   8.926  13.805  0.00  0.00    +0.000 A 
ATOM     13  S   UNL     1      52.855   9.359  15.139  0.00  0.00    +0.000 S 
ATOM     14  C   UNL     1      51.968   8.357  16.193  0.00  0.00    +0.000 A 
ATOM     15  N   UNL     1      52.233   8.309  17.526  0.00  0.00    +0.000 NA
ATOM     16  C   UNL     1      51.467   7.505  18.189  0.00  0.00    +0.000 A 
ATOM     17  N   UNL     1      50.488   6.717  17.636  0.00  0.00    +0.000 N 
ATOM     18  C   UNL     1      50.228   6.685  16.285  0.00  0.00    +0.000 A 
ATOM     19  O   UNL     1      49.438   5.886  15.795  0.00  0.00    +0.000 OA
ATOM     20  C   UNL     1      50.993   7.648  15.517  0.00  0.00    +0.000 A 
ATOM     21  H   UNL     1      49.965   6.069  18.205  0.00  0.00    +0.000 HD
ENDBRANCH  10  11
ENDBRANCH   7  10
ENDBRANCH   1   7
BRANCH   4  22
ATOM     22  C   UNL     1      44.237   4.536  11.464  0.00  0.00    +0.000 C 
BRANCH  22  23
ATOM     23  C   UNL     1      44.817   3.959  10.143  0.00  0.00    +0.000 A 
ATOM     24  C   UNL     1      44.840   2.586   9.875  0.00  0.00    +0.000 A 
ATOM     25  C   UNL     1      45.416   2.129   8.689  0.00  0.00    +0.000 A 
ATOM     26  C   UNL     1      45.979   3.038   7.804  0.00  0.00    +0.000 A 
ATOM     27  C   UNL     1      45.941   4.375   8.144  0.00  0.00    +0.000 A 
ATOM     28  N   UNL     1      45.381   4.847   9.276  0.00  0.00    +0.000 NA
ENDBRANCH  22  23
BRANCH  22  29
ATOM     29  C   UNL     1      43.913   3.344  12.423  0.00  0.00    +0.000 C 
BRANCH  29  30
ATOM     30  O   UNL     1      43.376   3.780  13.679  0.00  0.00    +0.000 OA
ATOM     31  H   UNL     1      43.720   3.164  14.352  0.00  0.00    +0.000 HD
ENDBRANCH  29  30
ENDBRANCH  22  29
BRANCH  22  32
ATOM     32  C   UNL     1      42.888   5.210  11.054  0.00  0.00    +0.000 C 
BRANCH  32  33
ATOM     33  O   UNL     1      42.119   5.714  12.152  0.00  0.00    +0.000 OA
ATOM     34  H   UNL     1      41.586   6.463  11.808  0.00  0.00    +0.000 HD
ENDBRANCH  32  33
ENDBRANCH  22  32
ENDBRANCH   4  22
TORSDOF 9
ENDMDL
