MODEL 1
REMARK VINA RESULT:    -8.161      0.000      0.000
REMARK INTER + INTRA:         -11.367
REMARK INTER:                 -10.547
REMARK INTRA:                  -0.820
REMARK UNBOUND:                -0.820
REMARK  Name = 
REMARK  7 active torsions:
REMARK  status: ('A' for Active; 'I' for Inactive)
REMARK    1  A    between atoms: C_1  and  C_2
REMARK    2  A    between atoms: C_2  and  N_3
REMARK    3  A    between atoms: C_2  and  C_17
REMARK    4  A    between atoms: C_4  and  C_6
REMARK    5  A    between atoms: N_12  and  C_13
REMARK    6  A    between atoms: C_20  and  C_21
REMARK    7  A    between atoms: C_21  and  C_22
REMARK                            x       y       z     vdW  Elec       q    Type
REMARK                         _______ _______ _______ _____ _____    ______ ____
ROOT
ATOM      1  C   UNL     1      45.310   8.672  12.912  0.00  0.00    +0.000 C 
ATOM      2  C   UNL     1      46.519   7.782  12.616  0.00  0.00    +0.000 C 
ENDROOT
BRANCH   2   3
ATOM      3  C   UNL     1      46.062   6.541  11.865  0.00  0.00    +0.000 A 
ATOM      4  C   UNL     1      46.238   6.488  10.477  0.00  0.00    +0.000 A 
ATOM      5  C   UNL     1      45.762   5.408   9.734  0.00  0.00    +0.000 A 
ATOM      6  C   UNL     1      45.113   4.338  10.363  0.00  0.00    +0.000 A 
ATOM      7  C   UNL     1      44.950   4.373  11.751  0.00  0.00    +0.000 A 
ATOM      8  C   UNL     1      45.400   5.470  12.492  0.00  0.00    +0.000 A 
BRANCH   6   9
ATOM      9  C   UNL     1      44.577   3.179   9.556  0.00  0.00    +0.000 C 
BRANCH   9  10
ATOM     10  C   UNL     1      45.434   2.736   8.392  0.00  0.00    +0.000 A 
ATOM     11  C   UNL     1      46.096   1.508   8.413  0.00  0.00    +0.000 A 
ATOM     12  C   UNL     1      46.966   1.188   7.375  0.00  0.00    +0.000 A 
ATOM     13  C   UNL     1      47.155   2.096   6.342  0.00  0.00    +0.000 A 
ATOM     14  C   UNL     1      46.452   3.287   6.384  0.00  0.00    +0.000 A 
ATOM     15  N   UNL     1      45.604   3.626   7.381  0.00  0.00    +0.000 NA
ENDBRANCH   9  10
ENDBRANCH   6   9
ENDBRANCH   2   3
BRANCH   2  16
ATOM     16  N   UNL     1      47.226   7.438  13.834  0.00  0.00    +0.000 N 
ATOM     17  C   UNL     1      48.558   7.124  13.876  0.00  0.00    +0.000 C 
ATOM     18  O   UNL     1      49.230   6.931  12.869  0.00  0.00    +0.000 OA
ATOM     19  H   UNL     1      46.800   7.765  14.689  0.00  0.00    +0.000 HD
BRANCH  17  20
ATOM     20  C   UNL     1      49.128   6.989  15.224  0.00  0.00    +0.000 A 
ATOM     21  C   UNL     1      50.018   7.935  15.708  0.00  0.00    +0.000 A 
ATOM     22  S   UNL     1      50.567   7.602  17.290  0.00  0.00    +0.000 S 
ATOM     23  C   UNL     1      49.598   6.206  17.396  0.00  0.00    +0.000 A 
ATOM     24  N   UNL     1      49.569   5.456  18.526  0.00  0.00    +0.000 NA
ATOM     25  C   UNL     1      48.772   4.437  18.476  0.00  0.00    +0.000 A 
ATOM     26  N   UNL     1      47.998   4.082  17.392  0.00  0.00    +0.000 N 
ATOM     27  C   UNL     1      47.161   2.899  17.426  0.00  0.00    +0.000 C 
ATOM     28  C   UNL     1      48.032   4.807  16.209  0.00  0.00    +0.000 A 
ATOM     29  O   UNL     1      47.405   4.464  15.205  0.00  0.00    +0.000 OA
ATOM     30  C   UNL     1      48.892   5.978  16.232  0.00  0.00    +0.000 A 
ENDBRANCH  17  20
ENDBRANCH   2  16
TORSDOF 5
ENDMDL
MODEL 2
REMARK VINA RESULT:    -8.155      2.280      3.004
REMARK INTER + INTRA:         -11.358
REMARK INTER:                 -10.316
REMARK INTRA:                  -1.042
REMARK UNBOUND:                -0.820
REMARK  Name = 
REMARK  7 active torsions:
REMARK  status: ('A' for Active; 'I' for Inactive)
REMARK    1  A    between atoms: C_1  and  C_2
REMARK    2  A    between atoms: C_2  and  N_3
REMARK    3  A    between atoms: C_2  and  C_17
REMARK    4  A    between atoms: C_4  and  C_6
REMARK    5  A    between atoms: N_12  and  C_13
REMARK    6  A    between atoms: C_20  and  C_21
REMARK    7  A    between atoms: C_21  and  C_22
REMARK                            x       y       z     vdW  Elec       q    Type
REMARK                         _______ _______ _______ _____ _____    ______ ____
ROOT
ATOM      1  C   UNL     1      47.515   8.669  13.962  0.00  0.00    +0.000 C 
ATOM      2  C   UNL     1      47.899   7.190  13.870  0.00  0.00    +0.000 C 
ENDROOT
BRANCH   2   3
ATOM      3  C   UNL     1      46.950   6.478  12.919  0.00  0.00    +0.000 A 
ATOM      4  C   UNL     1      46.418   5.239  13.297  0.00  0.00    +0.000 A 
ATOM      5  C   UNL     1      45.608   4.511  12.426  0.00  0.00    +0.000 A 
ATOM      6  C   UNL     1      45.291   5.012  11.157  0.00  0.00    +0.000 A 
ATOM      7  C   UNL     1      45.802   6.257  10.778  0.00  0.00    +0.000 A 
ATOM      8  C   UNL     1      46.638   6.973  11.640  0.00  0.00    +0.000 A 
BRANCH   6   9
ATOM      9  C   UNL     1      44.433   4.212  10.205  0.00  0.00    +0.000 C 
BRANCH   9  10
ATOM     10  C   UNL     1      45.167   3.529   9.074  0.00  0.00    +0.000 A 
ATOM     11  C   UNL     1      45.395   2.153   9.092  0.00  0.00    +0.000 A 
ATOM     12  C   UNL     1      46.174   1.580   8.091  0.00  0.00    +0.000 A 
ATOM     13  C   UNL     1      46.705   2.390   7.096  0.00  0.00    +0.000 A 
ATOM     14  C   UNL     1      46.421   3.744   7.137  0.00  0.00    +0.000 A 
ATOM     15  N   UNL     1      45.673   4.328   8.099  0.00  0.00    +0.000 NA
ENDBRANCH   9  10
ENDBRANCH   6   9
ENDBRANCH   2   3
BRANCH   2  16
ATOM     16  N   UNL     1      47.907   6.571  15.181  0.00  0.00    +0.000 N 
ATOM     17  C   UNL     1      49.042   6.384  15.925  0.00  0.00    +0.000 C 
ATOM     18  O   UNL     1      50.170   6.559  15.478  0.00  0.00    +0.000 OA
ATOM     19  H   UNL     1      47.027   6.590  15.675  0.00  0.00    +0.000 HD
BRANCH  17  20
ATOM     20  C   UNL     1      48.819   5.911  17.299  0.00  0.00    +0.000 A 
ATOM     21  C   UNL     1      49.107   4.599  17.644  0.00  0.00    +0.000 A 
ATOM     22  S   UNL     1      48.781   4.243  19.282  0.00  0.00    +0.000 S 
ATOM     23  C   UNL     1      48.286   5.842  19.593  0.00  0.00    +0.000 A 
ATOM     24  N   UNL     1      47.904   6.230  20.836  0.00  0.00    +0.000 NA
ATOM     25  C   UNL     1      47.575   7.478  20.933  0.00  0.00    +0.000 A 
ATOM     26  N   UNL     1      47.581   8.387  19.897  0.00  0.00    +0.000 N 
ATOM     27  C   UNL     1      47.161   9.759  20.105  0.00  0.00    +0.000 C 
ATOM     28  C   UNL     1      47.931   8.015  18.608  0.00  0.00    +0.000 A 
ATOM     29  O   UNL     1      47.871   8.794  17.655  0.00  0.00    +0.000 OA
ATOM     30  C   UNL     1      48.336   6.627  18.458  0.00  0.00    +0.000 A 
ENDBRANCH  17  20
ENDBRANCH   2  16
TORSDOF 5
ENDMDL
MODEL 3
REMARK VINA RESULT:    -8.001      2.180      3.175
REMARK INTER + INTRA:         -11.159
REMARK INTER:                  -9.901
REMARK INTRA:                  -1.258
REMARK UNBOUND:                -0.820
REMARK  Name = 
REMARK  7 active torsions:
REMARK  status: ('A' for Active; 'I' for Inactive)
REMARK    1  A    between atoms: C_1  and  C_2
REMARK    2  A    between atoms: C_2  and  N_3
REMARK    3  A    between atoms: C_2  and  C_17
REMARK    4  A    between atoms: C_4  and  C_6
REMARK    5  A    between atoms: N_12  and  C_13
REMARK    6  A    between atoms: C_20  and  C_21
REMARK    7  A    between atoms: C_21  and  C_22
REMARK                            x       y       z     vdW  Elec       q    Type
REMARK                         _______ _______ _______ _____ _____    ______ ____
ROOT
ATOM      1  C   UNL     1      46.786   4.477  14.776  0.00  0.00    +0.000 C 
ATOM      2  C   UNL     1      46.576   5.648  13.814  0.00  0.00    +0.000 C 
ENDROOT
BRANCH   2   3
ATOM      3  C   UNL     1      45.989   5.133  12.509  0.00  0.00    +0.000 A 
ATOM      4  C   UNL     1      45.411   3.858  12.485  0.00  0.00    +0.000 A 
ATOM      5  C   UNL     1      44.933   3.309  11.295  0.00  0.00    +0.000 A 
ATOM      6  C   UNL     1      45.002   4.031  10.097  0.00  0.00    +0.000 A 
ATOM      7  C   UNL     1      45.560   5.313  10.115  0.00  0.00    +0.000 A 
ATOM      8  C   UNL     1      46.067   5.850  11.302  0.00  0.00    +0.000 A 
BRANCH   6   9
ATOM      9  C   UNL     1      44.505   3.428   8.804  0.00  0.00    +0.000 C 
BRANCH   9  10
ATOM     10  C   UNL     1      45.567   2.847   7.898  0.00  0.00    +0.000 A 
ATOM     11  C   UNL     1      46.125   1.595   8.156  0.00  0.00    +0.000 A 
ATOM     12  C   UNL     1      47.180   1.147   7.366  0.00  0.00    +0.000 A 
ATOM     13  C   UNL     1      47.652   1.954   6.340  0.00  0.00    +0.000 A 
ATOM     14  C   UNL     1      47.037   3.176   6.137  0.00  0.00    +0.000 A 
ATOM     15  N   UNL     1      46.014   3.640   6.890  0.00  0.00    +0.000 NA
ENDBRANCH   9  10
ENDBRANCH   6   9
ENDBRANCH   2   3
BRANCH   2  16
ATOM     16  N   UNL     1      47.813   6.372  13.594  0.00  0.00    +0.000 N 
ATOM     17  C   UNL     1      47.930   7.731  13.719  0.00  0.00    +0.000 C 
ATOM     18  O   UNL     1      46.963   8.474  13.851  0.00  0.00    +0.000 OA
ATOM     19  H   UNL     1      48.657   5.825  13.681  0.00  0.00    +0.000 HD
BRANCH  17  20
ATOM     20  C   UNL     1      49.301   8.252  13.638  0.00  0.00    +0.000 A 
ATOM     21  C   UNL     1      49.624   9.239  12.719  0.00  0.00    +0.000 A 
ATOM     22  S   UNL     1      51.264   9.711  12.780  0.00  0.00    +0.000 S 
ATOM     23  C   UNL     1      51.585   8.642  14.066  0.00  0.00    +0.000 A 
ATOM     24  N   UNL     1      52.818   8.573  14.630  0.00  0.00    +0.000 NA
ATOM     25  C   UNL     1      52.914   7.735  15.612  0.00  0.00    +0.000 A 
ATOM     26  N   UNL     1      51.891   6.943  16.088  0.00  0.00    +0.000 N 
ATOM     27  C   UNL     1      52.113   6.010  17.175  0.00  0.00    +0.000 C 
ATOM     28  C   UNL     1      50.630   6.963  15.511  0.00  0.00    +0.000 A 
ATOM     29  O   UNL     1      49.724   6.211  15.873  0.00  0.00    +0.000 OA
ATOM     30  C   UNL     1      50.469   7.913  14.422  0.00  0.00    +0.000 A 
ENDBRANCH  17  20
ENDBRANCH   2  16
TORSDOF 5
ENDMDL
MODEL 4
REMARK VINA RESULT:    -7.688      2.451      4.140
REMARK INTER + INTRA:         -10.754
REMARK INTER:                  -9.668
REMARK INTRA:                  -1.086
REMARK UNBOUND:                -0.820
REMARK  Name = 
REMARK  7 active torsions:
REMARK  status: ('A' for Active; 'I' for Inactive)
REMARK    1  A    between atoms: C_1  and  C_2
REMARK    2  A    between atoms: C_2  and  N_3
REMARK    3  A    between atoms: C_2  and  C_17
REMARK    4  A    between atoms: C_4  and  C_6
REMARK    5  A    between atoms: N_12  and  C_13
REMARK    6  A    between atoms: C_20  and  C_21
REMARK    7  A    between atoms: C_21  and  C_22
REMARK                            x       y       z     vdW  Elec       q    Type
REMARK                         _______ _______ _______ _____ _____    ______ ____
ROOT
ATOM      1  C   UNL     1      46.909   4.499  14.689  0.00  0.00    +0.000 C 
ATOM      2  C   UNL     1      46.492   5.753  13.918  0.00  0.00    +0.000 C 
ENDROOT
BRANCH   2   3
ATOM      3  C   UNL     1      45.956   5.352  12.552  0.00  0.00    +0.000 A 
ATOM      4  C   UNL     1      45.277   4.135  12.422  0.00  0.00    +0.000 A 
ATOM      5  C   UNL     1      44.838   3.687  11.176  0.00  0.00    +0.000 A 
ATOM      6  C   UNL     1      45.052   4.456  10.025  0.00  0.00    +0.000 A 
ATOM      7  C   UNL     1      45.713   5.682  10.147  0.00  0.00    +0.000 A 
ATOM      8  C   UNL     1      46.178   6.116  11.392  0.00  0.00    +0.000 A 
BRANCH   6   9
ATOM      9  C   UNL     1      44.598   3.960   8.672  0.00  0.00    +0.000 C 
BRANCH   9  10
ATOM     10  C   UNL     1      45.607   3.141   7.899  0.00  0.00    +0.000 A 
ATOM     11  C   UNL     1      45.899   1.827   8.266  0.00  0.00    +0.000 A 
ATOM     12  C   UNL     1      46.916   1.147   7.602  0.00  0.00    +0.000 A 
ATOM     13  C   UNL     1      47.615   1.790   6.589  0.00  0.00    +0.000 A 
ATOM     14  C   UNL     1      47.257   3.088   6.273  0.00  0.00    +0.000 A 
ATOM     15  N   UNL     1      46.278   3.775   6.903  0.00  0.00    +0.000 NA
ENDBRANCH   9  10
ENDBRANCH   6   9
ENDBRANCH   2   3
BRANCH   2  16
ATOM     16  N   UNL     1      47.593   6.688  13.807  0.00  0.00    +0.000 N 
ATOM     17  C   UNL     1      47.435   8.049  13.795  0.00  0.00    +0.000 C 
ATOM     18  O   UNL     1      46.340   8.593  13.697  0.00  0.00    +0.000 OA
ATOM     19  H   UNL     1      48.496   6.329  14.080  0.00  0.00    +0.000 HD
BRANCH  17  20
ATOM     20  C   UNL     1      48.681   8.825  13.863  0.00  0.00    +0.000 A 
ATOM     21  C   UNL     1      48.866   9.768  14.863  0.00  0.00    +0.000 A 
ATOM     22  S   UNL     1      50.375  10.563  14.772  0.00  0.00    +0.000 S 
ATOM     23  C   UNL     1      50.847   9.640  13.421  0.00  0.00    +0.000 A 
ATOM     24  N   UNL     1      52.070   9.799  12.855  0.00  0.00    +0.000 NA
ATOM     25  C   UNL     1      52.304   9.018  11.850  0.00  0.00    +0.000 A 
ATOM     26  N   UNL     1      51.423   8.088  11.341  0.00  0.00    +0.000 N 
ATOM     27  C   UNL     1      51.771   7.283  10.187  0.00  0.00    +0.000 C 
ATOM     28  C   UNL     1      50.152   7.926  11.873  0.00  0.00    +0.000 A 
ATOM     29  O   UNL     1      49.325   7.154  11.386  0.00  0.00    +0.000 OA
ATOM     30  C   UNL     1      49.857   8.764  13.024  0.00  0.00    +0.000 A 
ENDBRANCH  17  20
ENDBRANCH   2  16
TORSDOF 5
ENDMDL
MODEL 5
REMARK VINA RESULT:    -7.599      1.420      1.784
REMARK INTER + INTRA:         -10.640
REMARK INTER:                  -9.357
REMARK INTRA:                  -1.283
REMARK UNBOUND:                -0.820
REMARK  Name = 
REMARK  7 active torsions:
REMARK  status: ('A' for Active; 'I' for Inactive)
REMARK    1  A    between atoms: C_1  and  C_2
REMARK    2  A    between atoms: C_2  and  N_3
REMARK    3  A    between atoms: C_2  and  C_17
REMARK    4  A    between atoms: C_4  and  C_6
REMARK    5  A    between atoms: N_12  and  C_13
REMARK    6  A    between atoms: C_20  and  C_21
REMARK    7  A    between atoms: C_21  and  C_22
REMARK                            x       y       z     vdW  Elec       q    Type
REMARK                         _______ _______ _______ _____ _____    ______ ____
ROOT
ATOM      1  C   UNL     1      47.261   9.672  13.200  0.00  0.00    +0.000 C 
ATOM      2  C   UNL     1      47.741   8.224  13.321  0.00  0.00    +0.000 C 
ENDROOT
BRANCH   2   3
ATOM      3  C   UNL     1      46.761   7.304  12.608  0.00  0.00    +0.000 A 
ATOM      4  C   UNL     1      46.924   5.919  12.729  0.00  0.00    +0.000 A 
ATOM      5  C   UNL     1      46.102   5.036  12.030  0.00  0.00    +0.000 A 
ATOM      6  C   UNL     1      45.078   5.516  11.203  0.00  0.00    +0.000 A 
ATOM      7  C   UNL     1      44.895   6.897  11.090  0.00  0.00    +0.000 A 
ATOM      8  C   UNL     1      45.739   7.782  11.768  0.00  0.00    +0.000 A 
BRANCH   6   9
ATOM      9  C   UNL     1      44.202   4.560  10.427  0.00  0.00    +0.000 C 
BRANCH   9  10
ATOM     10  C   UNL     1      44.899   3.750   9.358  0.00  0.00    +0.000 A 
ATOM     11  C   UNL     1      45.006   2.363   9.462  0.00  0.00    +0.000 A 
ATOM     12  C   UNL     1      45.754   1.667   8.517  0.00  0.00    +0.000 A 
ATOM     13  C   UNL     1      46.374   2.368   7.491  0.00  0.00    +0.000 A 
ATOM     14  C   UNL     1      46.209   3.741   7.446  0.00  0.00    +0.000 A 
ATOM     15  N   UNL     1      45.493   4.443   8.352  0.00  0.00    +0.000 NA
ENDBRANCH   9  10
ENDBRANCH   6   9
ENDBRANCH   2   3
BRANCH   2  16
ATOM     16  N   UNL     1      47.916   7.845  14.709  0.00  0.00    +0.000 N 
ATOM     17  C   UNL     1      49.071   8.057  15.413  0.00  0.00    +0.000 C 
ATOM     18  O   UNL     1      50.117   8.421  14.887  0.00  0.00    +0.000 OA
ATOM     19  H   UNL     1      47.064   7.735  15.239  0.00  0.00    +0.000 HD
BRANCH  17  20
ATOM     20  C   UNL     1      48.988   7.774  16.853  0.00  0.00    +0.000 A 
ATOM     21  C   UNL     1      49.182   8.788  17.780  0.00  0.00    +0.000 A 
ATOM     22  S   UNL     1      49.044   8.260  19.398  0.00  0.00    +0.000 S 
ATOM     23  C   UNL     1      48.677   6.670  18.911  0.00  0.00    +0.000 A 
ATOM     24  N   UNL     1      48.408   5.701  19.823  0.00  0.00    +0.000 NA
ATOM     25  C   UNL     1      48.124   4.547  19.312  0.00  0.00    +0.000 A 
ATOM     26  N   UNL     1      48.090   4.256  17.965  0.00  0.00    +0.000 N 
ATOM     27  C   UNL     1      47.792   2.917  17.497  0.00  0.00    +0.000 C 
ATOM     28  C   UNL     1      48.395   5.213  17.009  0.00  0.00    +0.000 A 
ATOM     29  O   UNL     1      48.443   4.955  15.806  0.00  0.00    +0.000 OA
ATOM     30  C   UNL     1      48.693   6.535  17.538  0.00  0.00    +0.000 A 
ENDBRANCH  17  20
ENDBRANCH   2  16
TORSDOF 5
ENDMDL
MODEL 6
REMARK VINA RESULT:    -7.297      4.300      8.870
REMARK INTER + INTRA:         -10.249
REMARK INTER:                  -9.565
REMARK INTRA:                  -0.684
REMARK UNBOUND:                -0.820
REMARK  Name = 
REMARK  7 active torsions:
REMARK  status: ('A' for Active; 'I' for Inactive)
REMARK    1  A    between atoms: C_1  and  C_2
REMARK    2  A    between atoms: C_2  and  N_3
REMARK    3  A    between atoms: C_2  and  C_17
REMARK    4  A    between atoms: C_4  and  C_6
REMARK    5  A    between atoms: N_12  and  C_13
REMARK    6  A    between atoms: C_20  and  C_21
REMARK    7  A    between atoms: C_21  and  C_22
REMARK                            x       y       z     vdW  Elec       q    Type
REMARK                         _______ _______ _______ _____ _____    ______ ____
ROOT
ATOM      1  C   UNL     1      47.209   3.433  18.121  0.00  0.00    +0.000 C 
ATOM      2  C   UNL     1      48.009   3.227  16.833  0.00  0.00    +0.000 C 
ENDROOT
BRANCH   2   3
ATOM      3  C   UNL     1      49.479   3.041  17.175  0.00  0.00    +0.000 A 
ATOM      4  C   UNL     1      50.069   1.789  16.964  0.00  0.00    +0.000 A 
ATOM      5  C   UNL     1      51.391   1.546  17.337  0.00  0.00    +0.000 A 
ATOM      6  C   UNL     1      52.168   2.559  17.915  0.00  0.00    +0.000 A 
ATOM      7  C   UNL     1      51.593   3.818  18.112  0.00  0.00    +0.000 A 
ATOM      8  C   UNL     1      50.259   4.052  17.766  0.00  0.00    +0.000 A 
BRANCH   6   9
ATOM      9  C   UNL     1      53.592   2.289  18.341  0.00  0.00    +0.000 C 
BRANCH   9  10
ATOM     10  C   UNL     1      54.151   0.940  17.951  0.00  0.00    +0.000 A 
ATOM     11  C   UNL     1      54.718   0.732  16.694  0.00  0.00    +0.000 A 
ATOM     12  C   UNL     1      55.116  -0.551  16.331  0.00  0.00    +0.000 A 
ATOM     13  C   UNL     1      54.941  -1.596  17.230  0.00  0.00    +0.000 A 
ATOM     14  C   UNL     1      54.385  -1.308  18.463  0.00  0.00    +0.000 A 
ATOM     15  N   UNL     1      53.986  -0.073  18.840  0.00  0.00    +0.000 NA
ENDBRANCH   9  10
ENDBRANCH   6   9
ENDBRANCH   2   3
BRANCH   2  16
ATOM     16  N   UNL     1      47.810   4.329  15.912  0.00  0.00    +0.000 N 
ATOM     17  C   UNL     1      47.373   4.171  14.624  0.00  0.00    +0.000 C 
ATOM     18  O   UNL     1      47.283   3.077  14.079  0.00  0.00    +0.000 OA
ATOM     19  H   UNL     1      47.673   5.233  16.341  0.00  0.00    +0.000 HD
BRANCH  17  20
ATOM     20  C   UNL     1      47.057   5.418  13.913  0.00  0.00    +0.000 A 
ATOM     21  C   UNL     1      47.956   6.475  13.916  0.00  0.00    +0.000 A 
ATOM     22  S   UNL     1      47.409   7.832  13.036  0.00  0.00    +0.000 S 
ATOM     23  C   UNL     1      45.973   7.035  12.586  0.00  0.00    +0.000 A 
ATOM     24  N   UNL     1      45.058   7.637  11.784  0.00  0.00    +0.000 NA
ATOM     25  C   UNL     1      44.026   6.908  11.504  0.00  0.00    +0.000 A 
ATOM     26  N   UNL     1      43.808   5.625  11.958  0.00  0.00    +0.000 N 
ATOM     27  C   UNL     1      42.599   4.905  11.612  0.00  0.00    +0.000 C 
ATOM     28  C   UNL     1      44.705   4.995  12.808  0.00  0.00    +0.000 A 
ATOM     29  O   UNL     1      44.494   3.878  13.283  0.00  0.00    +0.000 OA
ATOM     30  C   UNL     1      45.896   5.767  13.125  0.00  0.00    +0.000 A 
ENDBRANCH  17  20
ENDBRANCH   2  16
TORSDOF 5
ENDMDL
MODEL 7
REMARK VINA RESULT:    -7.126      2.888      9.115
REMARK INTER + INTRA:         -10.028
REMARK INTER:                  -8.985
REMARK INTRA:                  -1.044
REMARK UNBOUND:                -0.820
REMARK  Name = 
REMARK  7 active torsions:
REMARK  status: ('A' for Active; 'I' for Inactive)
REMARK    1  A    between atoms: C_1  and  C_2
REMARK    2  A    between atoms: C_2  and  N_3
REMARK    3  A    between atoms: C_2  and  C_17
REMARK    4  A    between atoms: C_4  and  C_6
REMARK    5  A    between atoms: N_12  and  C_13
REMARK    6  A    between atoms: C_20  and  C_21
REMARK    7  A    between atoms: C_21  and  C_22
REMARK                            x       y       z     vdW  Elec       q    Type
REMARK                         _______ _______ _______ _____ _____    ______ ____
ROOT
ATOM      1  C   UNL     1      48.501   7.734  11.589  0.00  0.00    +0.000 C 
ATOM      2  C   UNL     1      47.332   7.669  12.574  0.00  0.00    +0.000 C 
ENDROOT
BRANCH   2   3
ATOM      3  C   UNL     1      47.865   7.723  13.997  0.00  0.00    +0.000 A 
ATOM      4  C   UNL     1      47.831   8.941  14.686  0.00  0.00    +0.000 A 
ATOM      5  C   UNL     1      48.381   9.059  15.962  0.00  0.00    +0.000 A 
ATOM      6  C   UNL     1      48.965   7.953  16.594  0.00  0.00    +0.000 A 
ATOM      7  C   UNL     1      48.986   6.728  15.922  0.00  0.00    +0.000 A 
ATOM      8  C   UNL     1      48.461   6.617  14.631  0.00  0.00    +0.000 A 
BRANCH   6   9
ATOM      9  C   UNL     1      49.582   8.087  17.967  0.00  0.00    +0.000 C 
BRANCH   9  10
ATOM     10  C   UNL     1      49.093   7.103  19.006  0.00  0.00    +0.000 A 
ATOM     11  C   UNL     1      47.756   7.080  19.401  0.00  0.00    +0.000 A 
ATOM     12  C   UNL     1      47.370   6.240  20.442  0.00  0.00    +0.000 A 
ATOM     13  C   UNL     1      48.323   5.443  21.062  0.00  0.00    +0.000 A 
ATOM     14  C   UNL     1      49.627   5.511  20.603  0.00  0.00    +0.000 A 
ATOM     15  N   UNL     1      50.031   6.320  19.599  0.00  0.00    +0.000 NA
ENDBRANCH   9  10
ENDBRANCH   6   9
ENDBRANCH   2   3
BRANCH   2  16
ATOM     16  N   UNL     1      46.525   6.486  12.350  0.00  0.00    +0.000 N 
ATOM     17  C   UNL     1      45.355   6.489  11.637  0.00  0.00    +0.000 C 
ATOM     18  O   UNL     1      44.794   7.518  11.279  0.00  0.00    +0.000 OA
ATOM     19  H   UNL     1      47.012   5.606  12.437  0.00  0.00    +0.000 HD
BRANCH  17  20
ATOM     20  C   UNL     1      44.785   5.162  11.365  0.00  0.00    +0.000 A 
ATOM     21  C   UNL     1      43.939   4.559  12.285  0.00  0.00    +0.000 A 
ATOM     22  S   UNL     1      43.382   3.024  11.788  0.00  0.00    +0.000 S 
ATOM     23  C   UNL     1      44.216   3.135  10.307  0.00  0.00    +0.000 A 
ATOM     24  N   UNL     1      44.133   2.148   9.379  0.00  0.00    +0.000 NA
ATOM     25  C   UNL     1      44.799   2.374   8.293  0.00  0.00    +0.000 A 
ATOM     26  N   UNL     1      45.557   3.497   8.040  0.00  0.00    +0.000 N 
ATOM     27  C   UNL     1      46.294   3.638   6.800  0.00  0.00    +0.000 C 
ATOM     28  C   UNL     1      45.692   4.507   8.981  0.00  0.00    +0.000 A 
ATOM     29  O   UNL     1      46.423   5.483   8.805  0.00  0.00    +0.000 OA
ATOM     30  C   UNL     1      44.936   4.308  10.207  0.00  0.00    +0.000 A 
ENDBRANCH  17  20
ENDBRANCH   2  16
TORSDOF 5
ENDMDL
MODEL 8
REMARK VINA RESULT:    -6.739      2.503      3.629
REMARK INTER + INTRA:          -9.529
REMARK INTER:                  -8.096
REMARK INTRA:                  -1.433
REMARK UNBOUND:                -0.820
REMARK  Name = 
REMARK  7 active torsions:
REMARK  status: ('A' for Active; 'I' for Inactive)
REMARK    1  A    between atoms: C_1  and  C_2
REMARK    2  A    between atoms: C_2  and  N_3
REMARK    3  A    between atoms: C_2  and  C_17
REMARK    4  A    between atoms: C_4  and  C_6
REMARK    5  A    between atoms: N_12  and  C_13
REMARK    6  A    between atoms: C_20  and  C_21
REMARK    7  A    between atoms: C_21  and  C_22
REMARK                            x       y       z     vdW  Elec       q    Type
REMARK                         _______ _______ _______ _____ _____    ______ ____
ROOT
ATOM      1  C   UNL     1      49.199  10.270  14.341  0.00  0.00    +0.000 C 
ATOM      2  C   UNL     1      49.295   8.774  14.038  0.00  0.00    +0.000 C 
ENDROOT
BRANCH   2   3
ATOM      3  C   UNL     1      48.057   8.331  13.273  0.00  0.00    +0.000 A 
ATOM      4  C   UNL     1      46.869   9.055  13.432  0.00  0.00    +0.000 A 
ATOM      5  C   UNL     1      45.688   8.642  12.816  0.00  0.00    +0.000 A 
ATOM      6  C   UNL     1      45.667   7.499  12.006  0.00  0.00    +0.000 A 
ATOM      7  C   UNL     1      46.853   6.780  11.825  0.00  0.00    +0.000 A 
ATOM      8  C   UNL     1      48.029   7.179  12.468  0.00  0.00    +0.000 A 
BRANCH   6   9
ATOM      9  C   UNL     1      44.384   7.037  11.357  0.00  0.00    +0.000 C 
BRANCH   9  10
ATOM     10  C   UNL     1      43.999   5.598  11.611  0.00  0.00    +0.000 A 
ATOM     11  C   UNL     1      43.694   5.151  12.896  0.00  0.00    +0.000 A 
ATOM     12  C   UNL     1      43.458   3.795  13.106  0.00  0.00    +0.000 A 
ATOM     13  C   UNL     1      43.529   2.919  12.032  0.00  0.00    +0.000 A 
ATOM     14  C   UNL     1      43.823   3.440  10.784  0.00  0.00    +0.000 A 
ATOM     15  N   UNL     1      44.061   4.750  10.552  0.00  0.00    +0.000 NA
ENDBRANCH   9  10
ENDBRANCH   6   9
ENDBRANCH   2   3
BRANCH   2  16
ATOM     16  N   UNL     1      49.475   8.005  15.254  0.00  0.00    +0.000 N 
ATOM     17  C   UNL     1      50.685   7.519  15.673  0.00  0.00    +0.000 C 
ATOM     18  O   UNL     1      51.690   7.536  14.971  0.00  0.00    +0.000 OA
ATOM     19  H   UNL     1      48.757   8.126  15.953  0.00  0.00    +0.000 HD
BRANCH  17  20
ATOM     20  C   UNL     1      50.691   6.928  17.018  0.00  0.00    +0.000 A 
ATOM     21  C   UNL     1      51.553   7.409  17.992  0.00  0.00    +0.000 A 
ATOM     22  S   UNL     1      51.409   6.595  19.486  0.00  0.00    +0.000 S 
ATOM     23  C   UNL     1      50.159   5.603  18.892  0.00  0.00    +0.000 A 
ATOM     24  N   UNL     1      49.553   4.686  19.688  0.00  0.00    +0.000 NA
ATOM     25  C   UNL     1      48.605   4.018  19.113  0.00  0.00    +0.000 A 
ATOM     26  N   UNL     1      48.203   4.169  17.804  0.00  0.00    +0.000 N 
ATOM     27  C   UNL     1      47.149   3.344  17.246  0.00  0.00    +0.000 C 
ATOM     28  C   UNL     1      48.826   5.071  16.954  0.00  0.00    +0.000 A 
ATOM     29  O   UNL     1      48.531   5.168  15.761  0.00  0.00    +0.000 OA
ATOM     30  C   UNL     1      49.878   5.865  17.567  0.00  0.00    +0.000 A 
ENDBRANCH  17  20
ENDBRANCH   2  16
TORSDOF 5
ENDMDL
MODEL 9
REMARK VINA RESULT:    -6.463      2.078      3.215
REMARK INTER + INTRA:          -9.172
REMARK INTER:                  -8.676
REMARK INTRA:                  -0.496
REMARK UNBOUND:                -0.820
REMARK  Name = 
REMARK  7 active torsions:
REMARK  status: ('A' for Active; 'I' for Inactive)
REMARK    1  A    between atoms: C_1  and  C_2
REMARK    2  A    between atoms: C_2  and  N_3
REMARK    3  A    between atoms: C_2  and  C_17
REMARK    4  A    between atoms: C_4  and  C_6
REMARK    5  A    between atoms: N_12  and  C_13
REMARK    6  A    between atoms: C_20  and  C_21
REMARK    7  A    between atoms: C_21  and  C_22
REMARK                            x       y       z     vdW  Elec       q    Type
REMARK                         _______ _______ _______ _____ _____    ______ ____
ROOT
ATOM      1  C   UNL     1      45.593   8.337  13.214  0.00  0.00    +0.000 C 
ATOM      2  C   UNL     1      46.764   7.677  12.483  0.00  0.00    +0.000 C 
ENDROOT
BRANCH   2   3
ATOM      3  C   UNL     1      46.250   6.507  11.658  0.00  0.00    +0.000 A 
ATOM      4  C   UNL     1      46.402   6.544  10.266  0.00  0.00    +0.000 A 
ATOM      5  C   UNL     1      45.876   5.534   9.460  0.00  0.00    +0.000 A 
ATOM      6  C   UNL     1      45.198   4.447  10.028  0.00  0.00    +0.000 A 
ATOM      7  C   UNL     1      45.058   4.392  11.417  0.00  0.00    +0.000 A 
ATOM      8  C   UNL     1      45.560   5.420  12.222  0.00  0.00    +0.000 A 
BRANCH   6   9
ATOM      9  C   UNL     1      44.608   3.366   9.153  0.00  0.00    +0.000 C 
BRANCH   9  10
ATOM     10  C   UNL     1      45.572   2.683   8.210  0.00  0.00    +0.000 A 
ATOM     11  C   UNL     1      45.971   3.296   7.022  0.00  0.00    +0.000 A 
ATOM     12  C   UNL     1      46.768   2.588   6.127  0.00  0.00    +0.000 A 
ATOM     13  C   UNL     1      47.148   1.289   6.436  0.00  0.00    +0.000 A 
ATOM     14  C   UNL     1      46.725   0.755   7.640  0.00  0.00    +0.000 A 
ATOM     15  N   UNL     1      45.948   1.417   8.526  0.00  0.00    +0.000 NA
ENDBRANCH   9  10
ENDBRANCH   6   9
ENDBRANCH   2   3
BRANCH   2  16
ATOM     16  N   UNL     1      47.794   7.261  13.415  0.00  0.00    +0.000 N 
ATOM     17  C   UNL     1      48.454   8.123  14.250  0.00  0.00    +0.000 C 
ATOM     18  O   UNL     1      48.362   9.342  14.160  0.00  0.00    +0.000 OA
ATOM     19  H   UNL     1      47.774   6.286  13.677  0.00  0.00    +0.000 HD
BRANCH  17  20
ATOM     20  C   UNL     1      49.326   7.485  15.246  0.00  0.00    +0.000 A 
ATOM     21  C   UNL     1      48.780   6.767  16.300  0.00  0.00    +0.000 A 
ATOM     22  S   UNL     1      49.954   6.103  17.347  0.00  0.00    +0.000 S 
ATOM     23  C   UNL     1      51.230   6.717  16.402  0.00  0.00    +0.000 A 
ATOM     24  N   UNL     1      52.525   6.475  16.729  0.00  0.00    +0.000 NA
ATOM     25  C   UNL     1      53.390   6.982  15.911  0.00  0.00    +0.000 A 
ATOM     26  N   UNL     1      53.088   7.725  14.789  0.00  0.00    +0.000 N 
ATOM     27  C   UNL     1      54.136   8.277  13.954  0.00  0.00    +0.000 C 
ATOM     28  C   UNL     1      51.777   8.020  14.447  0.00  0.00    +0.000 A 
ATOM     29  O   UNL     1      51.489   8.743  13.492  0.00  0.00    +0.000 OA
ATOM     30  C   UNL     1      50.769   7.445  15.323  0.00  0.00    +0.000 A 
ENDBRANCH  17  20
ENDBRANCH   2  16
TORSDOF 5
ENDMDL
