MODEL 1
REMARK VINA RESULT:    -9.487      0.000      0.000
REMARK INTER + INTRA:         -12.166
REMARK INTER:                 -12.261
REMARK INTRA:                   0.094
REMARK UNBOUND:                 0.094
REMARK  Name = 
REMARK  6 active torsions:
REMARK  status: ('A' for Active; 'I' for Inactive)
REMARK    1  A    between atoms: C_1  and  O_2
REMARK    2  A    between atoms: O_2  and  C_3
REMARK    3  A    between atoms: C_6  and  C_7
REMARK    4  A    between atoms: C_11  and  C_12
REMARK    5  A    between atoms: C_12  and  N_13
REMARK    6  A    between atoms: C_17  and  C_18
REMARK                            x       y       z     vdW  Elec       q    Type
REMARK                         _______ _______ _______ _____ _____    ______ ____
ROOT
ATOM      1  C   UNL     1      44.033   5.279  11.169  0.00  0.00    +0.000 C 
ATOM      2  C   UNL     1      42.654   5.791  11.541  0.00  0.00    +0.000 C 
ATOM      3  C   UNL     1      42.902   4.323  11.557  0.00  0.00    +0.000 C 
ENDROOT
BRANCH   1   4
ATOM      4  N   UNL     1      44.477   5.275   9.778  0.00  0.00    +0.000 N 
ATOM      5  C   UNL     1      45.052   4.218   9.082  0.00  0.00    +0.000 A 
ATOM      6  C   UNL     1      44.955   2.882   9.458  0.00  0.00    +0.000 A 
ATOM      7  C   UNL     1      45.650   1.905   8.728  0.00  0.00    +0.000 A 
ATOM      8  C   UNL     1      46.422   2.298   7.636  0.00  0.00    +0.000 A 
ATOM      9  C   UNL     1      46.421   3.641   7.301  0.00  0.00    +0.000 A 
ATOM     10  N   UNL     1      45.746   4.594   7.990  0.00  0.00    +0.000 NA
ATOM     11  H   UNL     1      44.741   6.144   9.324  0.00  0.00    +0.000 HD
BRANCH   8  12
ATOM     12  C   UNL     1      47.304   1.393   6.870  0.00  0.00    +0.000 C 
ATOM     13  N   UNL     1      48.408   1.922   6.268  0.00  0.00    +0.000 N 
ATOM     14  O   UNL     1      47.057   0.197   6.778  0.00  0.00    +0.000 OA
ATOM     15  H   UNL     1      48.779   2.836   6.485  0.00  0.00    +0.000 HD
ATOM     16  H   UNL     1      49.020   1.263   5.803  0.00  0.00    +0.000 HD
ENDBRANCH   8  12
ENDBRANCH   1   4
BRANCH   1  21
ATOM     17  C   UNL     1      47.343   6.089  12.986  0.00  0.00    +0.000 A 
ATOM     18  C   UNL     1      47.186   5.194  14.046  0.00  0.00    +0.000 A 
ATOM     19  N   UNL     1      46.137   4.359  14.206  0.00  0.00    +0.000 NA
ATOM     20  C   UNL     1      45.185   4.419  13.252  0.00  0.00    +0.000 A 
ATOM     21  C   UNL     1      45.187   5.280  12.153  0.00  0.00    +0.000 A 
ATOM     22  C   UNL     1      46.308   6.112  12.034  0.00  0.00    +0.000 A 
BRANCH  17  26
ATOM     23  C   UNL     1      50.764   8.554  12.751  0.00  0.00    +0.000 A 
ATOM     24  C   UNL     1      50.042   8.341  11.587  0.00  0.00    +0.000 A 
ATOM     25  C   UNL     1      48.917   7.525  11.653  0.00  0.00    +0.000 A 
ATOM     26  C   UNL     1      48.531   6.943  12.869  0.00  0.00    +0.000 A 
ATOM     27  C   UNL     1      49.335   7.240  13.972  0.00  0.00    +0.000 A 
ATOM     28  N   UNL     1      50.434   8.020  13.941  0.00  0.00    +0.000 NA
BRANCH  23  30
ATOM     29  C   UNL     1      52.617   9.107  11.450  0.00  0.00    +0.000 C 
ATOM     30  O   UNL     1      51.878   9.361  12.643  0.00  0.00    +0.000 OA
ENDBRANCH  23  30
ENDBRANCH  17  26
ENDBRANCH   1  21
TORSDOF 5
ENDMDL
MODEL 2
REMARK VINA RESULT:    -8.940      2.562      3.651
REMARK INTER + INTRA:         -11.459
REMARK INTER:                 -11.561
REMARK INTRA:                   0.102
REMARK UNBOUND:                 0.094
REMARK  Name = 
REMARK  6 active torsions:
REMARK  status: ('A' for Active; 'I' for Inactive)
REMARK    1  A    between atoms: C_1  and  O_2
REMARK    2  A    between atoms: O_2  and  C_3
REMARK    3  A    between atoms: C_6  and  C_7
REMARK    4  A    between atoms: C_11  and  C_12
REMARK    5  A    between atoms: C_12  and  N_13
REMARK    6  A    between atoms: C_17  and  C_18
REMARK                            x       y       z     vdW  Elec       q    Type
REMARK                         _______ _______ _______ _____ _____    ______ ____
ROOT
ATOM      1  C   UNL     1      43.939   5.260  11.199  0.00  0.00    +0.000 C 
ATOM      2  C   UNL     1      42.551   5.394  11.797  0.00  0.00    +0.000 C 
ATOM      3  C   UNL     1      43.282   4.106  11.960  0.00  0.00    +0.000 C 
ENDROOT
BRANCH   1   4
ATOM      4  N   UNL     1      44.118   5.105   9.757  0.00  0.00    +0.000 N 
ATOM      5  C   UNL     1      44.790   4.082   9.099  0.00  0.00    +0.000 A 
ATOM      6  C   UNL     1      45.073   2.839   9.656  0.00  0.00    +0.000 A 
ATOM      7  C   UNL     1      45.834   1.912   8.928  0.00  0.00    +0.000 A 
ATOM      8  C   UNL     1      46.289   2.258   7.656  0.00  0.00    +0.000 A 
ATOM      9  C   UNL     1      45.917   3.495   7.158  0.00  0.00    +0.000 A 
ATOM     10  N   UNL     1      45.173   4.397   7.845  0.00  0.00    +0.000 NA
ATOM     11  H   UNL     1      44.089   5.919   9.150  0.00  0.00    +0.000 HD
BRANCH   8  12
ATOM     12  C   UNL     1      47.206   1.431   6.845  0.00  0.00    +0.000 C 
ATOM     13  N   UNL     1      48.258   2.045   6.230  0.00  0.00    +0.000 N 
ATOM     14  O   UNL     1      47.033   0.225   6.727  0.00  0.00    +0.000 OA
ATOM     15  H   UNL     1      48.576   2.976   6.463  0.00  0.00    +0.000 HD
ATOM     16  H   UNL     1      48.898   1.438   5.733  0.00  0.00    +0.000 HD
ENDBRANCH   8  12
ENDBRANCH   1   4
BRANCH   1  21
ATOM     17  C   UNL     1      46.891   5.795  13.630  0.00  0.00    +0.000 A 
ATOM     18  C   UNL     1      47.440   6.913  12.999  0.00  0.00    +0.000 A 
ATOM     19  N   UNL     1      46.935   7.503  11.894  0.00  0.00    +0.000 NA
ATOM     20  C   UNL     1      45.817   6.947  11.386  0.00  0.00    +0.000 A 
ATOM     21  C   UNL     1      45.172   5.813  11.887  0.00  0.00    +0.000 A 
ATOM     22  C   UNL     1      45.733   5.255  13.043  0.00  0.00    +0.000 A 
BRANCH  17  26
ATOM     23  C   UNL     1      48.672   4.242  17.130  0.00  0.00    +0.000 A 
ATOM     24  C   UNL     1      47.725   3.460  16.488  0.00  0.00    +0.000 A 
ATOM     25  C   UNL     1      47.128   3.966  15.338  0.00  0.00    +0.000 A 
ATOM     26  C   UNL     1      47.485   5.231  14.849  0.00  0.00    +0.000 A 
ATOM     27  C   UNL     1      48.457   5.917  15.579  0.00  0.00    +0.000 A 
ATOM     28  N   UNL     1      49.050   5.460  16.701  0.00  0.00    +0.000 NA
BRANCH  23  30
ATOM     29  C   UNL     1      48.845   4.418  19.448  0.00  0.00    +0.000 C 
ATOM     30  O   UNL     1      49.234   3.710  18.273  0.00  0.00    +0.000 OA
ENDBRANCH  23  30
ENDBRANCH  17  26
ENDBRANCH   1  21
TORSDOF 5
ENDMDL
MODEL 3
REMARK VINA RESULT:    -7.931      2.007      2.396
REMARK INTER + INTRA:         -10.154
REMARK INTER:                 -10.956
REMARK INTRA:                   0.802
REMARK UNBOUND:                 0.094
REMARK  Name = 
REMARK  6 active torsions:
REMARK  status: ('A' for Active; 'I' for Inactive)
REMARK    1  A    between atoms: C_1  and  O_2
REMARK    2  A    between atoms: O_2  and  C_3
REMARK    3  A    between atoms: C_6  and  C_7
REMARK    4  A    between atoms: C_11  and  C_12
REMARK    5  A    between atoms: C_12  and  N_13
REMARK    6  A    between atoms: C_17  and  C_18
REMARK                            x       y       z     vdW  Elec       q    Type
REMARK                         _______ _______ _______ _____ _____    ______ ____
ROOT
ATOM      1  C   UNL     1      44.432   5.740  11.083  0.00  0.00    +0.000 C 
ATOM      2  C   UNL     1      43.028   5.331  11.488  0.00  0.00    +0.000 C 
ATOM      3  C   UNL     1      44.177   4.499  11.941  0.00  0.00    +0.000 C 
ENDROOT
BRANCH   1   4
ATOM      4  N   UNL     1      44.904   5.533   9.715  0.00  0.00    +0.000 N 
ATOM      5  C   UNL     1      45.301   4.334   9.136  0.00  0.00    +0.000 A 
ATOM      6  C   UNL     1      44.959   3.075   9.618  0.00  0.00    +0.000 A 
ATOM      7  C   UNL     1      45.489   1.931   9.002  0.00  0.00    +0.000 A 
ATOM      8  C   UNL     1      46.346   2.084   7.913  0.00  0.00    +0.000 A 
ATOM      9  C   UNL     1      46.591   3.371   7.466  0.00  0.00    +0.000 A 
ATOM     10  N   UNL     1      46.078   4.485   8.044  0.00  0.00    +0.000 NA
ATOM     11  H   UNL     1      45.329   6.299   9.202  0.00  0.00    +0.000 HD
BRANCH   8  12
ATOM     12  C   UNL     1      47.073   0.974   7.262  0.00  0.00    +0.000 C 
ATOM     13  N   UNL     1      46.740  -0.305   7.601  0.00  0.00    +0.000 N 
ATOM     14  O   UNL     1      47.952   1.191   6.437  0.00  0.00    +0.000 OA
ATOM     15  H   UNL     1      45.894  -0.549   8.097  0.00  0.00    +0.000 HD
ATOM     16  H   UNL     1      47.216  -1.039   7.091  0.00  0.00    +0.000 HD
ENDBRANCH   8  12
ENDBRANCH   1   4
BRANCH   1  21
ATOM     17  C   UNL     1      47.056   7.653  13.173  0.00  0.00    +0.000 A 
ATOM     18  C   UNL     1      46.495   8.925  13.041  0.00  0.00    +0.000 A 
ATOM     19  N   UNL     1      45.358   9.202  12.367  0.00  0.00    +0.000 NA
ATOM     20  C   UNL     1      44.742   8.151  11.789  0.00  0.00    +0.000 A 
ATOM     21  C   UNL     1      45.197   6.830  11.808  0.00  0.00    +0.000 A 
ATOM     22  C   UNL     1      46.373   6.602  12.535  0.00  0.00    +0.000 A 
BRANCH  17  26
ATOM     23  C   UNL     1      50.527   6.963  15.478  0.00  0.00    +0.000 A 
ATOM     24  C   UNL     1      50.601   7.911  14.470  0.00  0.00    +0.000 A 
ATOM     25  C   UNL     1      49.465   8.141  13.701  0.00  0.00    +0.000 A 
ATOM     26  C   UNL     1      48.282   7.430  13.950  0.00  0.00    +0.000 A 
ATOM     27  C   UNL     1      48.331   6.509  14.998  0.00  0.00    +0.000 A 
ATOM     28  N   UNL     1      49.416   6.256  15.757  0.00  0.00    +0.000 NA
BRANCH  23  30
ATOM     29  C   UNL     1      52.831   7.296  15.574  0.00  0.00    +0.000 C 
ATOM     30  O   UNL     1      51.677   6.756  16.212  0.00  0.00    +0.000 OA
ENDBRANCH  23  30
ENDBRANCH  17  26
ENDBRANCH   1  21
TORSDOF 5
ENDMDL
MODEL 4
REMARK VINA RESULT:    -7.725      2.920      7.204
REMARK INTER + INTRA:          -9.888
REMARK INTER:                  -9.794
REMARK INTRA:                  -0.095
REMARK UNBOUND:                 0.094
REMARK  Name = 
REMARK  6 active torsions:
REMARK  status: ('A' for Active; 'I' for Inactive)
REMARK    1  A    between atoms: C_1  and  O_2
REMARK    2  A    between atoms: O_2  and  C_3
REMARK    3  A    between atoms: C_6  and  C_7
REMARK    4  A    between atoms: C_11  and  C_12
REMARK    5  A    between atoms: C_12  and  N_13
REMARK    6  A    between atoms: C_17  and  C_18
REMARK                            x       y       z     vdW  Elec       q    Type
REMARK                         _______ _______ _______ _____ _____    ______ ____
ROOT
ATOM      1  C   UNL     1      45.828   7.725  12.416  0.00  0.00    +0.000 C 
ATOM      2  C   UNL     1      45.141   8.992  12.890  0.00  0.00    +0.000 C 
ATOM      3  C   UNL     1      45.902   9.024  11.610  0.00  0.00    +0.000 C 
ENDROOT
BRANCH   1   4
ATOM      4  N   UNL     1      47.054   7.256  13.058  0.00  0.00    +0.000 N 
ATOM      5  C   UNL     1      47.198   6.146  13.883  0.00  0.00    +0.000 A 
ATOM      6  C   UNL     1      46.306   5.080  13.932  0.00  0.00    +0.000 A 
ATOM      7  C   UNL     1      46.507   4.053  14.867  0.00  0.00    +0.000 A 
ATOM      8  C   UNL     1      47.603   4.123  15.726  0.00  0.00    +0.000 A 
ATOM      9  C   UNL     1      48.469   5.192  15.573  0.00  0.00    +0.000 A 
ATOM     10  N   UNL     1      48.293   6.186  14.667  0.00  0.00    +0.000 NA
ATOM     11  H   UNL     1      47.808   7.906  13.253  0.00  0.00    +0.000 HD
BRANCH   8  12
ATOM     12  C   UNL     1      47.853   3.183  16.838  0.00  0.00    +0.000 C 
ATOM     13  N   UNL     1      46.815   2.872  17.668  0.00  0.00    +0.000 N 
ATOM     14  O   UNL     1      48.960   2.690  17.013  0.00  0.00    +0.000 OA
ATOM     15  H   UNL     1      45.848   3.067  17.451  0.00  0.00    +0.000 HD
ATOM     16  H   UNL     1      47.008   2.179  18.381  0.00  0.00    +0.000 HD
ENDBRANCH   8  12
ENDBRANCH   1   4
BRANCH   1  21
ATOM     17  C   UNL     1      44.916   4.746  10.133  0.00  0.00    +0.000 A 
ATOM     18  C   UNL     1      43.586   4.616  10.535  0.00  0.00    +0.000 A 
ATOM     19  N   UNL     1      42.971   5.404  11.443  0.00  0.00    +0.000 NA
ATOM     20  C   UNL     1      43.727   6.381  11.985  0.00  0.00    +0.000 A 
ATOM     21  C   UNL     1      45.076   6.615  11.707  0.00  0.00    +0.000 A 
ATOM     22  C   UNL     1      45.654   5.775  10.746  0.00  0.00    +0.000 A 
BRANCH  17  26
ATOM     23  C   UNL     1      46.596   2.137   7.269  0.00  0.00    +0.000 A 
ATOM     24  C   UNL     1      46.694   3.499   7.035  0.00  0.00    +0.000 A 
ATOM     25  C   UNL     1      46.138   4.366   7.969  0.00  0.00    +0.000 A 
ATOM     26  C   UNL     1      45.502   3.866   9.114  0.00  0.00    +0.000 A 
ATOM     27  C   UNL     1      45.475   2.476   9.241  0.00  0.00    +0.000 A 
ATOM     28  N   UNL     1      45.998   1.607   8.352  0.00  0.00    +0.000 NA
BRANCH  23  30
ATOM     29  C   UNL     1      47.901   2.030   5.341  0.00  0.00    +0.000 C 
ATOM     30  O   UNL     1      47.150   1.308   6.315  0.00  0.00    +0.000 OA
ENDBRANCH  23  30
ENDBRANCH  17  26
ENDBRANCH   1  21
TORSDOF 5
ENDMDL
MODEL 5
REMARK VINA RESULT:    -7.405      5.034      8.850
REMARK INTER + INTRA:          -9.475
REMARK INTER:                  -8.956
REMARK INTRA:                  -0.519
REMARK UNBOUND:                 0.094
REMARK  Name = 
REMARK  6 active torsions:
REMARK  status: ('A' for Active; 'I' for Inactive)
REMARK    1  A    between atoms: C_1  and  O_2
REMARK    2  A    between atoms: O_2  and  C_3
REMARK    3  A    between atoms: C_6  and  C_7
REMARK    4  A    between atoms: C_11  and  C_12
REMARK    5  A    between atoms: C_12  and  N_13
REMARK    6  A    between atoms: C_17  and  C_18
REMARK                            x       y       z     vdW  Elec       q    Type
REMARK                         _______ _______ _______ _____ _____    ______ ____
ROOT
ATOM      1  C   UNL     1      48.607   4.728  17.349  0.00  0.00    +0.000 C 
ATOM      2  C   UNL     1      47.685   3.697  17.973  0.00  0.00    +0.000 C 
ATOM      3  C   UNL     1      47.661   5.092  18.496  0.00  0.00    +0.000 C 
ENDROOT
BRANCH   1   4
ATOM      4  N   UNL     1      50.040   4.715  17.632  0.00  0.00    +0.000 N 
ATOM      5  C   UNL     1      50.882   3.609  17.654  0.00  0.00    +0.000 A 
ATOM      6  C   UNL     1      50.600   2.392  17.043  0.00  0.00    +0.000 A 
ATOM      7  C   UNL     1      51.485   1.315  17.204  0.00  0.00    +0.000 A 
ATOM      8  C   UNL     1      52.634   1.492  17.974  0.00  0.00    +0.000 A 
ATOM      9  C   UNL     1      52.863   2.751  18.502  0.00  0.00    +0.000 A 
ATOM     10  N   UNL     1      52.022   3.803  18.346  0.00  0.00    +0.000 NA
ATOM     11  H   UNL     1      50.456   5.451  18.194  0.00  0.00    +0.000 HD
BRANCH   8  12
ATOM     12  C   UNL     1      53.573   0.408  18.331  0.00  0.00    +0.000 C 
ATOM     13  N   UNL     1      53.066  -0.836  18.566  0.00  0.00    +0.000 N 
ATOM     14  O   UNL     1      54.777   0.617  18.413  0.00  0.00    +0.000 OA
ATOM     15  H   UNL     1      52.132  -1.118  18.304  0.00  0.00    +0.000 HD
ATOM     16  H   UNL     1      53.745  -1.566  18.748  0.00  0.00    +0.000 HD
ENDBRANCH   8  12
ENDBRANCH   1   4
BRANCH   1  21
ATOM     17  C   UNL     1      47.143   5.578  13.878  0.00  0.00    +0.000 A 
ATOM     18  C   UNL     1      47.729   6.838  13.742  0.00  0.00    +0.000 A 
ATOM     19  N   UNL     1      48.553   7.409  14.647  0.00  0.00    +0.000 NA
ATOM     20  C   UNL     1      48.808   6.684  15.754  0.00  0.00    +0.000 A 
ATOM     21  C   UNL     1      48.273   5.426  16.045  0.00  0.00    +0.000 A 
ATOM     22  C   UNL     1      47.438   4.879  15.062  0.00  0.00    +0.000 A 
BRANCH  17  26
ATOM     23  C   UNL     1      44.681   3.862  10.907  0.00  0.00    +0.000 A 
ATOM     24  C   UNL     1      45.094   5.172  10.723  0.00  0.00    +0.000 A 
ATOM     25  C   UNL     1      45.900   5.749  11.700  0.00  0.00    +0.000 A 
ATOM     26  C   UNL     1      46.281   5.014  12.832  0.00  0.00    +0.000 A 
ATOM     27  C   UNL     1      45.808   3.702  12.897  0.00  0.00    +0.000 A 
ATOM     28  N   UNL     1      45.020   3.116  11.973  0.00  0.00    +0.000 NA
BRANCH  23  30
ATOM     29  C   UNL     1      44.517   2.275   9.208  0.00  0.00    +0.000 C 
ATOM     30  O   UNL     1      43.875   3.329   9.921  0.00  0.00    +0.000 OA
ENDBRANCH  23  30
ENDBRANCH  17  26
ENDBRANCH   1  21
TORSDOF 5
ENDMDL
MODEL 6
REMARK VINA RESULT:    -7.171      2.087      7.593
REMARK INTER + INTRA:          -9.173
REMARK INTER:                  -8.468
REMARK INTRA:                  -0.704
REMARK UNBOUND:                 0.094
REMARK  Name = 
REMARK  6 active torsions:
REMARK  status: ('A' for Active; 'I' for Inactive)
REMARK    1  A    between atoms: C_1  and  O_2
REMARK    2  A    between atoms: O_2  and  C_3
REMARK    3  A    between atoms: C_6  and  C_7
REMARK    4  A    between atoms: C_11  and  C_12
REMARK    5  A    between atoms: C_12  and  N_13
REMARK    6  A    between atoms: C_17  and  C_18
REMARK                            x       y       z     vdW  Elec       q    Type
REMARK                         _______ _______ _______ _____ _____    ______ ____
ROOT
ATOM      1  C   UNL     1      45.784   7.974  12.043  0.00  0.00    +0.000 C 
ATOM      2  C   UNL     1      45.084   8.925  12.996  0.00  0.00    +0.000 C 
ATOM      3  C   UNL     1      45.137   9.269  11.548  0.00  0.00    +0.000 C 
ENDROOT
BRANCH   1   4
ATOM      4  N   UNL     1      47.242   7.890  12.010  0.00  0.00    +0.000 N 
ATOM      5  C   UNL     1      48.088   7.536  13.055  0.00  0.00    +0.000 A 
ATOM      6  C   UNL     1      47.688   6.835  14.188  0.00  0.00    +0.000 A 
ATOM      7  C   UNL     1      48.610   6.608  15.221  0.00  0.00    +0.000 A 
ATOM      8  C   UNL     1      49.911   7.089  15.086  0.00  0.00    +0.000 A 
ATOM      9  C   UNL     1      50.237   7.730  13.904  0.00  0.00    +0.000 A 
ATOM     10  N   UNL     1      49.361   7.948  12.893  0.00  0.00    +0.000 NA
ATOM     11  H   UNL     1      47.770   8.438  11.337  0.00  0.00    +0.000 HD
BRANCH   8  12
ATOM     12  C   UNL     1      50.935   7.034  16.151  0.00  0.00    +0.000 C 
ATOM     13  N   UNL     1      50.539   7.240  17.440  0.00  0.00    +0.000 N 
ATOM     14  O   UNL     1      52.110   6.808  15.888  0.00  0.00    +0.000 OA
ATOM     15  H   UNL     1      49.575   7.212  17.740  0.00  0.00    +0.000 HD
ATOM     16  H   UNL     1      51.256   7.136  18.148  0.00  0.00    +0.000 HD
ENDBRANCH   8  12
ENDBRANCH   1   4
BRANCH   1  21
ATOM     17  C   UNL     1      45.021   4.727  10.096  0.00  0.00    +0.000 A 
ATOM     18  C   UNL     1      43.784   4.456  10.683  0.00  0.00    +0.000 A 
ATOM     19  N   UNL     1      43.184   5.227  11.615  0.00  0.00    +0.000 NA
ATOM     20  C   UNL     1      43.856   6.335  11.987  0.00  0.00    +0.000 A 
ATOM     21  C   UNL     1      45.113   6.722  11.514  0.00  0.00    +0.000 A 
ATOM     22  C   UNL     1      45.677   5.890  10.538  0.00  0.00    +0.000 A 
BRANCH  17  26
ATOM     23  C   UNL     1      46.654   2.133   7.192  0.00  0.00    +0.000 A 
ATOM     24  C   UNL     1      46.801   3.496   6.992  0.00  0.00    +0.000 A 
ATOM     25  C   UNL     1      46.260   4.359   7.940  0.00  0.00    +0.000 A 
ATOM     26  C   UNL     1      45.592   3.852   9.064  0.00  0.00    +0.000 A 
ATOM     27  C   UNL     1      45.517   2.462   9.156  0.00  0.00    +0.000 A 
ATOM     28  N   UNL     1      46.023   1.597   8.253  0.00  0.00    +0.000 NA
BRANCH  23  30
ATOM     29  C   UNL     1      47.802   2.045   5.165  0.00  0.00    +0.000 C 
ATOM     30  O   UNL     1      47.195   1.309   6.225  0.00  0.00    +0.000 OA
ENDBRANCH  23  30
ENDBRANCH  17  26
ENDBRANCH   1  21
TORSDOF 5
ENDMDL
MODEL 7
REMARK VINA RESULT:    -7.019      4.185      6.544
REMARK INTER + INTRA:          -8.977
REMARK INTER:                  -8.462
REMARK INTRA:                  -0.515
REMARK UNBOUND:                 0.094
REMARK  Name = 
REMARK  6 active torsions:
REMARK  status: ('A' for Active; 'I' for Inactive)
REMARK    1  A    between atoms: C_1  and  O_2
REMARK    2  A    between atoms: O_2  and  C_3
REMARK    3  A    between atoms: C_6  and  C_7
REMARK    4  A    between atoms: C_11  and  C_12
REMARK    5  A    between atoms: C_12  and  N_13
REMARK    6  A    between atoms: C_17  and  C_18
REMARK                            x       y       z     vdW  Elec       q    Type
REMARK                         _______ _______ _______ _____ _____    ______ ____
ROOT
ATOM      1  C   UNL     1      48.336   8.985  14.511  0.00  0.00    +0.000 C 
ATOM      2  C   UNL     1      49.482   9.304  13.570  0.00  0.00    +0.000 C 
ATOM      3  C   UNL     1      48.991  10.367  14.489  0.00  0.00    +0.000 C 
ENDROOT
BRANCH   1   4
ATOM      4  N   UNL     1      46.967   8.875  14.011  0.00  0.00    +0.000 N 
ATOM      5  C   UNL     1      46.443   7.864  13.214  0.00  0.00    +0.000 A 
ATOM      6  C   UNL     1      47.005   6.600  13.074  0.00  0.00    +0.000 A 
ATOM      7  C   UNL     1      46.437   5.686  12.173  0.00  0.00    +0.000 A 
ATOM      8  C   UNL     1      45.314   6.067  11.440  0.00  0.00    +0.000 A 
ATOM      9  C   UNL     1      44.788   7.324  11.681  0.00  0.00    +0.000 A 
ATOM     10  N   UNL     1      45.320   8.214  12.555  0.00  0.00    +0.000 NA
ATOM     11  H   UNL     1      46.398   9.708  13.895  0.00  0.00    +0.000 HD
BRANCH   8  12
ATOM     12  C   UNL     1      44.703   5.253  10.368  0.00  0.00    +0.000 C 
ATOM     13  N   UNL     1      45.380   5.119   9.192  0.00  0.00    +0.000 N 
ATOM     14  O   UNL     1      43.617   4.708  10.528  0.00  0.00    +0.000 OA
ATOM     15  H   UNL     1      46.356   5.353   9.079  0.00  0.00    +0.000 HD
ATOM     16  H   UNL     1      44.960   4.506   8.504  0.00  0.00    +0.000 HD
ENDBRANCH   8  12
ENDBRANCH   1   4
BRANCH   1  21
ATOM     17  C   UNL     1      49.205   6.276  17.123  0.00  0.00    +0.000 A 
ATOM     18  C   UNL     1      48.912   7.028  18.262  0.00  0.00    +0.000 A 
ATOM     19  N   UNL     1      48.450   8.296  18.254  0.00  0.00    +0.000 NA
ATOM     20  C   UNL     1      48.268   8.851  17.038  0.00  0.00    +0.000 A 
ATOM     21  C   UNL     1      48.545   8.237  15.814  0.00  0.00    +0.000 A 
ATOM     22  C   UNL     1      49.008   6.917  15.886  0.00  0.00    +0.000 A 
BRANCH  17  26
ATOM     23  C   UNL     1      50.655   2.318  17.383  0.00  0.00    +0.000 A 
ATOM     24  C   UNL     1      49.302   2.493  17.143  0.00  0.00    +0.000 A 
ATOM     25  C   UNL     1      48.813   3.794  17.063  0.00  0.00    +0.000 A 
ATOM     26  C   UNL     1      49.676   4.888  17.217  0.00  0.00    +0.000 A 
ATOM     27  C   UNL     1      51.019   4.581  17.445  0.00  0.00    +0.000 A 
ATOM     28  N   UNL     1      51.523   3.334  17.537  0.00  0.00    +0.000 NA
BRANCH  23  30
ATOM     29  C   UNL     1      52.505   0.935  17.699  0.00  0.00    +0.000 C 
ATOM     30  O   UNL     1      51.100   1.014  17.467  0.00  0.00    +0.000 OA
ENDBRANCH  23  30
ENDBRANCH  17  26
ENDBRANCH   1  21
TORSDOF 5
ENDMDL
MODEL 8
REMARK VINA RESULT:    -7.004      2.962      8.340
REMARK INTER + INTRA:          -8.957
REMARK INTER:                  -8.753
REMARK INTRA:                  -0.204
REMARK UNBOUND:                 0.094
REMARK  Name = 
REMARK  6 active torsions:
REMARK  status: ('A' for Active; 'I' for Inactive)
REMARK    1  A    between atoms: C_1  and  O_2
REMARK    2  A    between atoms: O_2  and  C_3
REMARK    3  A    between atoms: C_6  and  C_7
REMARK    4  A    between atoms: C_11  and  C_12
REMARK    5  A    between atoms: C_12  and  N_13
REMARK    6  A    between atoms: C_17  and  C_18
REMARK                            x       y       z     vdW  Elec       q    Type
REMARK                         _______ _______ _______ _____ _____    ______ ____
ROOT
ATOM      1  C   UNL     1      49.096   8.693  12.790  0.00  0.00    +0.000 C 
ATOM      2  C   UNL     1      50.025   9.320  11.767  0.00  0.00    +0.000 C 
ATOM      3  C   UNL     1      50.153   7.865  12.057  0.00  0.00    +0.000 C 
ENDROOT
BRANCH   1   4
ATOM      4  N   UNL     1      49.292   8.930  14.219  0.00  0.00    +0.000 N 
ATOM      5  C   UNL     1      49.064   8.035  15.257  0.00  0.00    +0.000 A 
ATOM      6  C   UNL     1      48.982   6.654  15.104  0.00  0.00    +0.000 A 
ATOM      7  C   UNL     1      48.662   5.853  16.211  0.00  0.00    +0.000 A 
ATOM      8  C   UNL     1      48.435   6.461  17.444  0.00  0.00    +0.000 A 
ATOM      9  C   UNL     1      48.588   7.835  17.518  0.00  0.00    +0.000 A 
ATOM     10  N   UNL     1      48.907   8.621  16.461  0.00  0.00    +0.000 NA
ATOM     11  H   UNL     1      49.252   9.874  14.589  0.00  0.00    +0.000 HD
BRANCH   8  12
ATOM     12  C   UNL     1      47.961   5.750  18.650  0.00  0.00    +0.000 C 
ATOM     13  N   UNL     1      46.622   5.529  18.786  0.00  0.00    +0.000 N 
ATOM     14  O   UNL     1      48.747   5.365  19.507  0.00  0.00    +0.000 OA
ATOM     15  H   UNL     1      45.960   5.622  18.029  0.00  0.00    +0.000 HD
ATOM     16  H   UNL     1      46.341   4.986  19.594  0.00  0.00    +0.000 HD
ENDBRANCH   8  12
ENDBRANCH   1   4
BRANCH   1  21
ATOM     17  C   UNL     1      45.991   6.754  11.559  0.00  0.00    +0.000 A 
ATOM     18  C   UNL     1      45.033   7.697  11.936  0.00  0.00    +0.000 A 
ATOM     19  N   UNL     1      45.303   8.884  12.519  0.00  0.00    +0.000 NA
ATOM     20  C   UNL     1      46.606   9.149  12.743  0.00  0.00    +0.000 A 
ATOM     21  C   UNL     1      47.673   8.295  12.451  0.00  0.00    +0.000 A 
ATOM     22  C   UNL     1      47.330   7.085  11.833  0.00  0.00    +0.000 A 
BRANCH  17  26
ATOM     23  C   UNL     1      44.918   3.091   9.752  0.00  0.00    +0.000 A 
ATOM     24  C   UNL     1      45.325   4.124   8.922  0.00  0.00    +0.000 A 
ATOM     25  C   UNL     1      45.674   5.337   9.508  0.00  0.00    +0.000 A 
ATOM     26  C   UNL     1      45.616   5.497  10.900  0.00  0.00    +0.000 A 
ATOM     27  C   UNL     1      45.199   4.381  11.627  0.00  0.00    +0.000 A 
ATOM     28  N   UNL     1      44.847   3.195  11.092  0.00  0.00    +0.000 NA
BRANCH  23  30
ATOM     29  C   UNL     1      45.661   1.327   8.423  0.00  0.00    +0.000 C 
ATOM     30  O   UNL     1      44.570   1.908   9.134  0.00  0.00    +0.000 OA
ENDBRANCH  23  30
ENDBRANCH  17  26
ENDBRANCH   1  21
TORSDOF 5
ENDMDL
MODEL 9
REMARK VINA RESULT:    -6.816      3.791      5.965
REMARK INTER + INTRA:          -8.714
REMARK INTER:                  -8.014
REMARK INTRA:                  -0.700
REMARK UNBOUND:                 0.094
REMARK  Name = 
REMARK  6 active torsions:
REMARK  status: ('A' for Active; 'I' for Inactive)
REMARK    1  A    between atoms: C_1  and  O_2
REMARK    2  A    between atoms: O_2  and  C_3
REMARK    3  A    between atoms: C_6  and  C_7
REMARK    4  A    between atoms: C_11  and  C_12
REMARK    5  A    between atoms: C_12  and  N_13
REMARK    6  A    between atoms: C_17  and  C_18
REMARK                            x       y       z     vdW  Elec       q    Type
REMARK                         _______ _______ _______ _____ _____    ______ ____
ROOT
ATOM      1  C   UNL     1      48.226   8.122  12.711  0.00  0.00    +0.000 C 
ATOM      2  C   UNL     1      49.244   7.793  11.635  0.00  0.00    +0.000 C 
ATOM      3  C   UNL     1      48.958   9.222  11.939  0.00  0.00    +0.000 C 
ENDROOT
BRANCH   1   4
ATOM      4  N   UNL     1      46.797   7.956  12.461  0.00  0.00    +0.000 N 
ATOM      5  C   UNL     1      46.083   6.764  12.428  0.00  0.00    +0.000 A 
ATOM      6  C   UNL     1      46.514   5.571  12.999  0.00  0.00    +0.000 A 
ATOM      7  C   UNL     1      45.750   4.406  12.829  0.00  0.00    +0.000 A 
ATOM      8  C   UNL     1      44.570   4.472  12.091  0.00  0.00    +0.000 A 
ATOM      9  C   UNL     1      44.188   5.710  11.603  0.00  0.00    +0.000 A 
ATOM     10  N   UNL     1      44.910   6.846  11.768  0.00  0.00    +0.000 NA
ATOM     11  H   UNL     1      46.287   8.654  11.929  0.00  0.00    +0.000 HD
BRANCH   8  12
ATOM     12  C   UNL     1      43.747   3.299  11.726  0.00  0.00    +0.000 C 
ATOM     13  N   UNL     1      43.752   2.221  12.562  0.00  0.00    +0.000 N 
ATOM     14  O   UNL     1      43.075   3.292  10.703  0.00  0.00    +0.000 OA
ATOM     15  H   UNL     1      44.102   2.250  13.509  0.00  0.00    +0.000 HD
ATOM     16  H   UNL     1      43.131   1.461  12.311  0.00  0.00    +0.000 HD
ENDBRANCH   8  12
ENDBRANCH   1   4
BRANCH   1  21
ATOM     17  C   UNL     1      49.647   7.101  16.154  0.00  0.00    +0.000 A 
ATOM     18  C   UNL     1      49.149   8.185  16.879  0.00  0.00    +0.000 A 
ATOM     19  N   UNL     1      48.395   9.179  16.364  0.00  0.00    +0.000 NA
ATOM     20  C   UNL     1      48.120   9.091  15.047  0.00  0.00    +0.000 A 
ATOM     21  C   UNL     1      48.572   8.087  14.187  0.00  0.00    +0.000 A 
ATOM     22  C   UNL     1      49.337   7.076  14.782  0.00  0.00    +0.000 A 
BRANCH  17  26
ATOM     23  C   UNL     1      51.831   4.023  18.048  0.00  0.00    +0.000 A 
ATOM     24  C   UNL     1      52.548   5.060  17.471  0.00  0.00    +0.000 A 
ATOM     25  C   UNL     1      51.837   6.075  16.838  0.00  0.00    +0.000 A 
ATOM     26  C   UNL     1      50.436   6.042  16.796  0.00  0.00    +0.000 A 
ATOM     27  C   UNL     1      49.830   4.951  17.421  0.00  0.00    +0.000 A 
ATOM     28  N   UNL     1      50.488   3.947  18.035  0.00  0.00    +0.000 NA
BRANCH  23  30
ATOM     29  C   UNL     1      52.837   1.938  17.779  0.00  0.00    +0.000 C 
ATOM     30  O   UNL     1      52.572   3.030  18.656  0.00  0.00    +0.000 OA
ENDBRANCH  23  30
ENDBRANCH  17  26
ENDBRANCH   1  21
TORSDOF 5
ENDMDL
