MODEL 1
REMARK VINA RESULT:    -9.326      0.000      0.000
REMARK INTER + INTRA:         -13.413
REMARK INTER:                 -12.598
REMARK INTRA:                  -0.815
REMARK UNBOUND:                -0.815
REMARK  Name = 
REMARK  7 active torsions:
REMARK  status: ('A' for Active; 'I' for Inactive)
REMARK    1  A    between atoms: C_1  and  O_2
REMARK    2  A    between atoms: O_2  and  C_3
REMARK    3  A    between atoms: C_5  and  N_6
REMARK    4  A    between atoms: N_6  and  C_7
REMARK    5  A    between atoms: C_7  and  C_8
REMARK    6  A    between atoms: C_12  and  C_13
REMARK    7  A    between atoms: C_23  and  C_24
REMARK                            x       y       z     vdW  Elec       q    Type
REMARK                         _______ _______ _______ _____ _____    ______ ____
ROOT
ATOM      1  N   UNL     1      43.949   6.942  12.228  0.00  0.00    +0.000 N 
ATOM      2  H   UNL     1      43.475   7.580  12.853  0.00  0.00    +0.000 HD
ENDROOT
BRANCH   1   5
ATOM      3  C   UNL     1      47.629   7.074  12.163  0.00  0.00    +0.000 A 
ATOM      4  C   UNL     1      46.302   7.385  11.885  0.00  0.00    +0.000 A 
ATOM      5  C   UNL     1      45.269   6.679  12.502  0.00  0.00    +0.000 A 
ATOM      6  N   UNL     1      45.518   5.703  13.394  0.00  0.00    +0.000 NA
ATOM      7  C   UNL     1      46.830   5.428  13.668  0.00  0.00    +0.000 A 
ATOM      8  C   UNL     1      47.902   6.078  13.081  0.00  0.00    +0.000 A 
BRANCH   7   9
ATOM      9  C   UNL     1      47.113   4.347  14.667  0.00  0.00    +0.000 C 
ATOM     10  N   UNL     1      47.029   4.699  15.985  0.00  0.00    +0.000 N 
ATOM     11  O   UNL     1      47.405   3.204  14.337  0.00  0.00    +0.000 OA
ATOM     12  H   UNL     1      46.784   5.650  16.241  0.00  0.00    +0.000 HD
ATOM     13  H   UNL     1      47.209   4.003  16.692  0.00  0.00    +0.000 HD
ENDBRANCH   7   9
BRANCH   3  15
ATOM     14  C   UNL     1      48.781   9.095  11.676  0.00  0.00    +0.000 C 
ATOM     15  O   UNL     1      48.720   7.674  11.599  0.00  0.00    +0.000 OA
ENDBRANCH   3  15
ENDBRANCH   1   5
BRANCH   1  16
ATOM     16  C   UNL     1      43.210   6.326  11.135  0.00  0.00    +0.000 C 
BRANCH  16  17
ATOM     17  C   UNL     1      43.532   4.856  10.940  0.00  0.00    +0.000 A 
ATOM     18  N   UNL     1      42.969   3.974  11.787  0.00  0.00    +0.000 NA
ATOM     19  C   UNL     1      43.249   2.679  11.576  0.00  0.00    +0.000 A 
ATOM     20  C   UNL     1      44.060   2.237  10.560  0.00  0.00    +0.000 A 
ATOM     21  C   UNL     1      44.604   3.203   9.734  0.00  0.00    +0.000 A 
ATOM     22  N   UNL     1      44.351   4.518   9.922  0.00  0.00    +0.000 NA
BRANCH  21  23
ATOM     23  C   UNL     1      45.536   2.874   8.635  0.00  0.00    +0.000 A 
ATOM     24  C   UNL     1      45.996   3.855   7.731  0.00  0.00    +0.000 A 
ATOM     25  C   UNL     1      46.810   3.517   6.643  0.00  0.00    +0.000 A 
ATOM     26  C   UNL     1      47.189   2.196   6.457  0.00  0.00    +0.000 A 
ATOM     27  F   UNL     1      47.948   1.873   5.401  0.00  0.00    +0.000 F 
ATOM     28  C   UNL     1      46.782   1.220   7.353  0.00  0.00    +0.000 A 
ATOM     29  F   UNL     1      47.149  -0.055   7.174  0.00  0.00    +0.000 F 
ATOM     30  C   UNL     1      45.971   1.550   8.437  0.00  0.00    +0.000 A 
ENDBRANCH  21  23
ENDBRANCH  16  17
ENDBRANCH   1  16
TORSDOF 6
ENDMDL
MODEL 2
REMARK VINA RESULT:    -8.409      0.978      1.532
REMARK INTER + INTRA:         -12.174
REMARK INTER:                 -11.679
REMARK INTRA:                  -0.495
REMARK UNBOUND:                -0.815
REMARK  Name = 
REMARK  7 active torsions:
REMARK  status: ('A' for Active; 'I' for Inactive)
REMARK    1  A    between atoms: C_1  and  O_2
REMARK    2  A    between atoms: O_2  and  C_3
REMARK    3  A    between atoms: C_5  and  N_6
REMARK    4  A    between atoms: N_6  and  C_7
REMARK    5  A    between atoms: C_7  and  C_8
REMARK    6  A    between atoms: C_12  and  C_13
REMARK    7  A    between atoms: C_23  and  C_24
REMARK                            x       y       z     vdW  Elec       q    Type
REMARK                         _______ _______ _______ _____ _____    ______ ____
ROOT
ATOM      1  N   UNL     1      45.028   6.994  11.204  0.00  0.00    +0.000 N 
ATOM      2  H   UNL     1      45.209   7.637  10.445  0.00  0.00    +0.000 HD
ENDROOT
BRANCH   1   5
ATOM      3  C   UNL     1      47.967   7.685  13.312  0.00  0.00    +0.000 A 
ATOM      4  C   UNL     1      46.960   7.864  12.370  0.00  0.00    +0.000 A 
ATOM      5  C   UNL     1      46.018   6.860  12.146  0.00  0.00    +0.000 A 
ATOM      6  N   UNL     1      46.037   5.709  12.843  0.00  0.00    +0.000 NA
ATOM      7  C   UNL     1      47.023   5.563  13.779  0.00  0.00    +0.000 A 
ATOM      8  C   UNL     1      47.997   6.511  14.041  0.00  0.00    +0.000 A 
BRANCH   7   9
ATOM      9  C   UNL     1      47.044   4.286  14.564  0.00  0.00    +0.000 C 
ATOM     10  N   UNL     1      46.798   4.391  15.905  0.00  0.00    +0.000 N 
ATOM     11  O   UNL     1      47.268   3.198  14.047  0.00  0.00    +0.000 OA
ATOM     12  H   UNL     1      46.612   5.300  16.316  0.00  0.00    +0.000 HD
ATOM     13  H   UNL     1      46.800   3.557  16.471  0.00  0.00    +0.000 HD
ENDBRANCH   7   9
BRANCH   3  15
ATOM     14  C   UNL     1      50.297   8.153  13.355  0.00  0.00    +0.000 C 
ATOM     15  O   UNL     1      48.960   8.582  13.595  0.00  0.00    +0.000 OA
ENDBRANCH   3  15
ENDBRANCH   1   5
BRANCH   1  16
ATOM     16  C   UNL     1      43.747   6.304  11.271  0.00  0.00    +0.000 C 
BRANCH  16  17
ATOM     17  C   UNL     1      43.845   4.817  10.983  0.00  0.00    +0.000 A 
ATOM     18  N   UNL     1      43.177   3.976  11.795  0.00  0.00    +0.000 NA
ATOM     19  C   UNL     1      43.259   2.670  11.501  0.00  0.00    +0.000 A 
ATOM     20  C   UNL     1      43.973   2.178  10.436  0.00  0.00    +0.000 A 
ATOM     21  C   UNL     1      44.635   3.104   9.651  0.00  0.00    +0.000 A 
ATOM     22  N   UNL     1      44.582   4.427   9.922  0.00  0.00    +0.000 NA
BRANCH  21  23
ATOM     23  C   UNL     1      45.483   2.711   8.506  0.00  0.00    +0.000 A 
ATOM     24  C   UNL     1      46.087   1.437   8.430  0.00  0.00    +0.000 A 
ATOM     25  C   UNL     1      46.956   1.106   7.384  0.00  0.00    +0.000 A 
ATOM     26  C   UNL     1      47.219   2.038   6.391  0.00  0.00    +0.000 A 
ATOM     27  F   UNL     1      48.071   1.725   5.405  0.00  0.00    +0.000 F 
ATOM     28  C   UNL     1      46.609   3.282   6.423  0.00  0.00    +0.000 A 
ATOM     29  F   UNL     1      46.861   4.182   5.464  0.00  0.00    +0.000 F 
ATOM     30  C   UNL     1      45.743   3.618   7.462  0.00  0.00    +0.000 A 
ENDBRANCH  21  23
ENDBRANCH  16  17
ENDBRANCH   1  16
TORSDOF 6
ENDMDL
MODEL 3
REMARK VINA RESULT:    -8.072      2.220      2.884
REMARK INTER + INTRA:         -11.719
REMARK INTER:                 -11.022
REMARK INTRA:                  -0.697
REMARK UNBOUND:                -0.815
REMARK  Name = 
REMARK  7 active torsions:
REMARK  status: ('A' for Active; 'I' for Inactive)
REMARK    1  A    between atoms: C_1  and  O_2
REMARK    2  A    between atoms: O_2  and  C_3
REMARK    3  A    between atoms: C_5  and  N_6
REMARK    4  A    between atoms: N_6  and  C_7
REMARK    5  A    between atoms: C_7  and  C_8
REMARK    6  A    between atoms: C_12  and  C_13
REMARK    7  A    between atoms: C_23  and  C_24
REMARK                            x       y       z     vdW  Elec       q    Type
REMARK                         _______ _______ _______ _____ _____    ______ ____
ROOT
ATOM      1  N   UNL     1      47.232   6.328  13.041  0.00  0.00    +0.000 N 
ATOM      2  H   UNL     1      47.855   6.189  12.257  0.00  0.00    +0.000 HD
ENDROOT
BRANCH   1   5
ATOM      3  C   UNL     1      49.083   6.743  16.198  0.00  0.00    +0.000 A 
ATOM      4  C   UNL     1      48.549   7.027  14.946  0.00  0.00    +0.000 A 
ATOM      5  C   UNL     1      47.752   6.090  14.289  0.00  0.00    +0.000 A 
ATOM      6  N   UNL     1      47.457   4.902  14.850  0.00  0.00    +0.000 NA
ATOM      7  C   UNL     1      47.975   4.651  16.090  0.00  0.00    +0.000 A 
ATOM      8  C   UNL     1      48.785   5.530  16.789  0.00  0.00    +0.000 A 
BRANCH   7   9
ATOM      9  C   UNL     1      47.643   3.333  16.722  0.00  0.00    +0.000 C 
ATOM     10  N   UNL     1      48.584   2.348  16.607  0.00  0.00    +0.000 N 
ATOM     11  O   UNL     1      46.589   3.132  17.314  0.00  0.00    +0.000 OA
ATOM     12  H   UNL     1      49.453   2.533  16.115  0.00  0.00    +0.000 HD
ATOM     13  H   UNL     1      48.404   1.446  17.019  0.00  0.00    +0.000 HD
ENDBRANCH   7   9
BRANCH   3  15
ATOM     14  C   UNL     1      50.303   7.104  18.205  0.00  0.00    +0.000 C 
ATOM     15  O   UNL     1      49.900   7.568  16.920  0.00  0.00    +0.000 OA
ENDBRANCH   3  15
ENDBRANCH   1   5
BRANCH   1  16
ATOM     16  C   UNL     1      45.876   6.802  12.806  0.00  0.00    +0.000 C 
BRANCH  16  17
ATOM     17  C   UNL     1      45.019   5.823  12.025  0.00  0.00    +0.000 A 
ATOM     18  N   UNL     1      43.738   5.666  12.408  0.00  0.00    +0.000 NA
ATOM     19  C   UNL     1      42.997   4.815  11.684  0.00  0.00    +0.000 A 
ATOM     20  C   UNL     1      43.481   4.123  10.601  0.00  0.00    +0.000 A 
ATOM     21  C   UNL     1      44.808   4.333  10.272  0.00  0.00    +0.000 A 
ATOM     22  N   UNL     1      45.587   5.177  10.984  0.00  0.00    +0.000 NA
BRANCH  21  23
ATOM     23  C   UNL     1      45.474   3.615   9.165  0.00  0.00    +0.000 A 
ATOM     24  C   UNL     1      46.039   4.299   8.068  0.00  0.00    +0.000 A 
ATOM     25  C   UNL     1      46.592   3.606   6.985  0.00  0.00    +0.000 A 
ATOM     26  C   UNL     1      46.603   2.219   6.994  0.00  0.00    +0.000 A 
ATOM     27  F   UNL     1      47.110   1.559   5.944  0.00  0.00    +0.000 F 
ATOM     28  C   UNL     1      46.088   1.524   8.077  0.00  0.00    +0.000 A 
ATOM     29  F   UNL     1      46.099   0.185   8.087  0.00  0.00    +0.000 F 
ATOM     30  C   UNL     1      45.536   2.209   9.158  0.00  0.00    +0.000 A 
ENDBRANCH  21  23
ENDBRANCH  16  17
ENDBRANCH   1  16
TORSDOF 6
ENDMDL
MODEL 4
REMARK VINA RESULT:    -7.881      1.559      2.996
REMARK INTER + INTRA:         -11.460
REMARK INTER:                 -10.921
REMARK INTRA:                  -0.539
REMARK UNBOUND:                -0.815
REMARK  Name = 
REMARK  7 active torsions:
REMARK  status: ('A' for Active; 'I' for Inactive)
REMARK    1  A    between atoms: C_1  and  O_2
REMARK    2  A    between atoms: O_2  and  C_3
REMARK    3  A    between atoms: C_5  and  N_6
REMARK    4  A    between atoms: N_6  and  C_7
REMARK    5  A    between atoms: C_7  and  C_8
REMARK    6  A    between atoms: C_12  and  C_13
REMARK    7  A    between atoms: C_23  and  C_24
REMARK                            x       y       z     vdW  Elec       q    Type
REMARK                         _______ _______ _______ _____ _____    ______ ____
ROOT
ATOM      1  N   UNL     1      44.801   7.066  11.003  0.00  0.00    +0.000 N 
ATOM      2  H   UNL     1      44.925   7.664  10.198  0.00  0.00    +0.000 HD
ENDROOT
BRANCH   1   5
ATOM      3  C   UNL     1      47.220   5.930  13.537  0.00  0.00    +0.000 A 
ATOM      4  C   UNL     1      46.209   5.894  12.583  0.00  0.00    +0.000 A 
ATOM      5  C   UNL     1      45.814   7.062  11.930  0.00  0.00    +0.000 A 
ATOM      6  N   UNL     1      46.408   8.243  12.181  0.00  0.00    +0.000 NA
ATOM      7  C   UNL     1      47.414   8.252  13.108  0.00  0.00    +0.000 A 
ATOM      8  C   UNL     1      47.844   7.135  13.802  0.00  0.00    +0.000 A 
BRANCH   7   9
ATOM      9  C   UNL     1      48.083   9.564  13.385  0.00  0.00    +0.000 C 
ATOM     10  N   UNL     1      48.177   9.934  14.698  0.00  0.00    +0.000 N 
ATOM     11  O   UNL     1      48.528  10.279  12.495  0.00  0.00    +0.000 OA
ATOM     12  H   UNL     1      47.804   9.329  15.423  0.00  0.00    +0.000 HD
ATOM     13  H   UNL     1      48.622  10.808  14.931  0.00  0.00    +0.000 HD
ENDBRANCH   7   9
BRANCH   3  15
ATOM     14  C   UNL     1      47.058   3.602  13.987  0.00  0.00    +0.000 C 
ATOM     15  O   UNL     1      47.668   4.860  14.261  0.00  0.00    +0.000 OA
ENDBRANCH   3  15
ENDBRANCH   1   5
BRANCH   1  16
ATOM     16  C   UNL     1      43.570   6.301  11.146  0.00  0.00    +0.000 C 
BRANCH  16  17
ATOM     17  C   UNL     1      43.751   4.813  10.906  0.00  0.00    +0.000 A 
ATOM     18  N   UNL     1      43.143   3.963  11.756  0.00  0.00    +0.000 NA
ATOM     19  C   UNL     1      43.297   2.655  11.504  0.00  0.00    +0.000 A 
ATOM     20  C   UNL     1      44.025   2.168  10.447  0.00  0.00    +0.000 A 
ATOM     21  C   UNL     1      44.623   3.104   9.622  0.00  0.00    +0.000 A 
ATOM     22  N   UNL     1      44.496   4.430   9.849  0.00  0.00    +0.000 NA
BRANCH  21  23
ATOM     23  C   UNL     1      45.479   2.721   8.479  0.00  0.00    +0.000 A 
ATOM     24  C   UNL     1      46.094   1.453   8.402  0.00  0.00    +0.000 A 
ATOM     25  C   UNL     1      46.970   1.132   7.358  0.00  0.00    +0.000 A 
ATOM     26  C   UNL     1      47.228   2.069   6.369  0.00  0.00    +0.000 A 
ATOM     27  F   UNL     1      48.086   1.766   5.385  0.00  0.00    +0.000 F 
ATOM     28  C   UNL     1      46.607   3.308   6.401  0.00  0.00    +0.000 A 
ATOM     29  F   UNL     1      46.854   4.212   5.445  0.00  0.00    +0.000 F 
ATOM     30  C   UNL     1      45.734   3.633   7.438  0.00  0.00    +0.000 A 
ENDBRANCH  21  23
ENDBRANCH  16  17
ENDBRANCH   1  16
TORSDOF 6
ENDMDL
MODEL 5
REMARK VINA RESULT:    -7.738      2.842      4.230
REMARK INTER + INTRA:         -11.268
REMARK INTER:                 -10.731
REMARK INTRA:                  -0.537
REMARK UNBOUND:                -0.815
REMARK  Name = 
REMARK  7 active torsions:
REMARK  status: ('A' for Active; 'I' for Inactive)
REMARK    1  A    between atoms: C_1  and  O_2
REMARK    2  A    between atoms: O_2  and  C_3
REMARK    3  A    between atoms: C_5  and  N_6
REMARK    4  A    between atoms: N_6  and  C_7
REMARK    5  A    between atoms: C_7  and  C_8
REMARK    6  A    between atoms: C_12  and  C_13
REMARK    7  A    between atoms: C_23  and  C_24
REMARK                            x       y       z     vdW  Elec       q    Type
REMARK                         _______ _______ _______ _____ _____    ______ ____
ROOT
ATOM      1  N   UNL     1      46.419   4.204  15.253  0.00  0.00    +0.000 N 
ATOM      2  H   UNL     1      45.779   3.421  15.246  0.00  0.00    +0.000 HD
ENDROOT
BRANCH   1   5
ATOM      3  C   UNL     1      48.403   5.135  18.213  0.00  0.00    +0.000 A 
ATOM      4  C   UNL     1      47.396   5.148  17.254  0.00  0.00    +0.000 A 
ATOM      5  C   UNL     1      47.383   4.201  16.231  0.00  0.00    +0.000 A 
ATOM      6  N   UNL     1      48.321   3.238  16.152  0.00  0.00    +0.000 NA
ATOM      7  C   UNL     1      49.291   3.231  17.117  0.00  0.00    +0.000 A 
ATOM      8  C   UNL     1      49.370   4.150  18.149  0.00  0.00    +0.000 A 
BRANCH   7   9
ATOM      9  C   UNL     1      50.332   2.157  17.038  0.00  0.00    +0.000 C 
ATOM     10  N   UNL     1      51.183   2.054  18.103  0.00  0.00    +0.000 N 
ATOM     11  O   UNL     1      50.430   1.402  16.077  0.00  0.00    +0.000 OA
ATOM     12  H   UNL     1      51.087   2.686  18.891  0.00  0.00    +0.000 HD
ATOM     13  H   UNL     1      51.898   1.343  18.093  0.00  0.00    +0.000 HD
ENDBRANCH   7   9
BRANCH   3  15
ATOM     14  C   UNL     1      47.785   5.761  20.421  0.00  0.00    +0.000 C 
ATOM     15  O   UNL     1      48.536   6.028  19.239  0.00  0.00    +0.000 OA
ENDBRANCH   3  15
ENDBRANCH   1   5
BRANCH   1  16
ATOM     16  C   UNL     1      46.308   5.233  14.229  0.00  0.00    +0.000 C 
BRANCH  16  17
ATOM     17  C   UNL     1      45.277   4.915  13.162  0.00  0.00    +0.000 A 
ATOM     18  N   UNL     1      43.980   5.118  13.463  0.00  0.00    +0.000 NA
ATOM     19  C   UNL     1      43.093   4.854  12.492  0.00  0.00    +0.000 A 
ATOM     20  C   UNL     1      43.447   4.403  11.245  0.00  0.00    +0.000 A 
ATOM     21  C   UNL     1      44.798   4.214  11.014  0.00  0.00    +0.000 A 
ATOM     22  N   UNL     1      45.720   4.461  11.970  0.00  0.00    +0.000 NA
BRANCH  21  23
ATOM     23  C   UNL     1      45.317   3.681   9.736  0.00  0.00    +0.000 A 
ATOM     24  C   UNL     1      45.678   4.530   8.669  0.00  0.00    +0.000 A 
ATOM     25  C   UNL     1      46.088   4.012   7.434  0.00  0.00    +0.000 A 
ATOM     26  C   UNL     1      46.158   2.638   7.258  0.00  0.00    +0.000 A 
ATOM     27  F   UNL     1      46.527   2.146   6.068  0.00  0.00    +0.000 F 
ATOM     28  C   UNL     1      45.845   1.784   8.303  0.00  0.00    +0.000 A 
ATOM     29  F   UNL     1      45.914   0.457   8.135  0.00  0.00    +0.000 F 
ATOM     30  C   UNL     1      45.436   2.294   9.535  0.00  0.00    +0.000 A 
ENDBRANCH  21  23
ENDBRANCH  16  17
ENDBRANCH   1  16
TORSDOF 6
ENDMDL
MODEL 6
REMARK VINA RESULT:    -7.543      1.890      2.702
REMARK INTER + INTRA:         -11.004
REMARK INTER:                 -10.184
REMARK INTRA:                  -0.821
REMARK UNBOUND:                -0.815
REMARK  Name = 
REMARK  7 active torsions:
REMARK  status: ('A' for Active; 'I' for Inactive)
REMARK    1  A    between atoms: C_1  and  O_2
REMARK    2  A    between atoms: O_2  and  C_3
REMARK    3  A    between atoms: C_5  and  N_6
REMARK    4  A    between atoms: N_6  and  C_7
REMARK    5  A    between atoms: C_7  and  C_8
REMARK    6  A    between atoms: C_12  and  C_13
REMARK    7  A    between atoms: C_23  and  C_24
REMARK                            x       y       z     vdW  Elec       q    Type
REMARK                         _______ _______ _______ _____ _____    ______ ____
ROOT
ATOM      1  N   UNL     1      45.548   5.902  13.664  0.00  0.00    +0.000 N 
ATOM      2  H   UNL     1      44.730   6.113  14.219  0.00  0.00    +0.000 HD
ENDROOT
BRANCH   1   5
ATOM      3  C   UNL     1      46.319   9.226  12.281  0.00  0.00    +0.000 A 
ATOM      4  C   UNL     1      45.598   8.171  12.828  0.00  0.00    +0.000 A 
ATOM      5  C   UNL     1      46.236   6.972  13.149  0.00  0.00    +0.000 A 
ATOM      6  N   UNL     1      47.559   6.808  12.964  0.00  0.00    +0.000 NA
ATOM      7  C   UNL     1      48.252   7.867  12.445  0.00  0.00    +0.000 A 
ATOM      8  C   UNL     1      47.680   9.076  12.091  0.00  0.00    +0.000 A 
BRANCH   7   9
ATOM      9  C   UNL     1      49.727   7.692  12.245  0.00  0.00    +0.000 C 
ATOM     10  N   UNL     1      50.479   7.522  13.374  0.00  0.00    +0.000 N 
ATOM     11  O   UNL     1      50.248   7.699  11.136  0.00  0.00    +0.000 OA
ATOM     12  H   UNL     1      50.031   7.517  14.285  0.00  0.00    +0.000 HD
ATOM     13  H   UNL     1      51.475   7.398  13.286  0.00  0.00    +0.000 HD
ENDBRANCH   7   9
BRANCH   3  15
ATOM     14  C   UNL     1      44.605  10.395  11.122  0.00  0.00    +0.000 C 
ATOM     15  O   UNL     1      45.798  10.431  11.900  0.00  0.00    +0.000 OA
ENDBRANCH   3  15
ENDBRANCH   1   5
BRANCH   1  16
ATOM     16  C   UNL     1      45.959   4.515  13.490  0.00  0.00    +0.000 C 
BRANCH  16  17
ATOM     17  C   UNL     1      45.176   3.783  12.415  0.00  0.00    +0.000 A 
ATOM     18  N   UNL     1      43.962   3.303  12.743  0.00  0.00    +0.000 NA
ATOM     19  C   UNL     1      43.281   2.684  11.767  0.00  0.00    +0.000 A 
ATOM     20  C   UNL     1      43.761   2.531  10.490  0.00  0.00    +0.000 A 
ATOM     21  C   UNL     1      45.018   3.047  10.232  0.00  0.00    +0.000 A 
ATOM     22  N   UNL     1      45.736   3.670  11.192  0.00  0.00    +0.000 NA
BRANCH  21  23
ATOM     23  C   UNL     1      45.679   2.907   8.918  0.00  0.00    +0.000 A 
ATOM     24  C   UNL     1      45.929   4.020   8.088  0.00  0.00    +0.000 A 
ATOM     25  C   UNL     1      46.478   3.866   6.809  0.00  0.00    +0.000 A 
ATOM     26  C   UNL     1      46.801   2.597   6.352  0.00  0.00    +0.000 A 
ATOM     27  F   UNL     1      47.303   2.452   5.118  0.00  0.00    +0.000 F 
ATOM     28  C   UNL     1      46.600   1.491   7.162  0.00  0.00    +0.000 A 
ATOM     29  F   UNL     1      46.913   0.266   6.722  0.00  0.00    +0.000 F 
ATOM     30  C   UNL     1      46.053   1.638   8.436  0.00  0.00    +0.000 A 
ENDBRANCH  21  23
ENDBRANCH  16  17
ENDBRANCH   1  16
TORSDOF 6
ENDMDL
MODEL 7
REMARK VINA RESULT:    -7.496      2.535      3.963
REMARK INTER + INTRA:         -10.941
REMARK INTER:                 -10.397
REMARK INTRA:                  -0.544
REMARK UNBOUND:                -0.815
REMARK  Name = 
REMARK  7 active torsions:
REMARK  status: ('A' for Active; 'I' for Inactive)
REMARK    1  A    between atoms: C_1  and  O_2
REMARK    2  A    between atoms: O_2  and  C_3
REMARK    3  A    between atoms: C_5  and  N_6
REMARK    4  A    between atoms: N_6  and  C_7
REMARK    5  A    between atoms: C_7  and  C_8
REMARK    6  A    between atoms: C_12  and  C_13
REMARK    7  A    between atoms: C_23  and  C_24
REMARK                            x       y       z     vdW  Elec       q    Type
REMARK                         _______ _______ _______ _____ _____    ______ ____
ROOT
ATOM      1  N   UNL     1      46.672   3.971  14.546  0.00  0.00    +0.000 N 
ATOM      2  H   UNL     1      46.677   2.968  14.415  0.00  0.00    +0.000 HD
ENDROOT
BRANCH   1   5
ATOM      3  C   UNL     1      48.397   4.437  17.766  0.00  0.00    +0.000 A 
ATOM      4  C   UNL     1      47.570   3.891  16.790  0.00  0.00    +0.000 A 
ATOM      5  C   UNL     1      47.499   4.468  15.523  0.00  0.00    +0.000 A 
ATOM      6  N   UNL     1      48.239   5.545  15.198  0.00  0.00    +0.000 NA
ATOM      7  C   UNL     1      49.061   6.053  16.166  0.00  0.00    +0.000 A 
ATOM      8  C   UNL     1      49.167   5.539  17.447  0.00  0.00    +0.000 A 
BRANCH   7   9
ATOM      9  C   UNL     1      49.892   7.247  15.806  0.00  0.00    +0.000 C 
ATOM     10  N   UNL     1      51.224   7.020  15.597  0.00  0.00    +0.000 N 
ATOM     11  O   UNL     1      49.420   8.372  15.701  0.00  0.00    +0.000 OA
ATOM     12  H   UNL     1      51.599   6.081  15.686  0.00  0.00    +0.000 HD
ATOM     13  H   UNL     1      51.821   7.795  15.350  0.00  0.00    +0.000 HD
ENDBRANCH   7   9
BRANCH   3  15
ATOM     14  C   UNL     1      48.620   4.962  20.073  0.00  0.00    +0.000 C 
ATOM     15  O   UNL     1      48.524   3.978  19.048  0.00  0.00    +0.000 OA
ENDBRANCH   3  15
ENDBRANCH   1   5
BRANCH   1  16
ATOM     16  C   UNL     1      45.845   4.804  13.684  0.00  0.00    +0.000 C 
BRANCH  16  17
ATOM     17  C   UNL     1      45.074   4.017  12.640  0.00  0.00    +0.000 A 
ATOM     18  N   UNL     1      43.879   3.510  12.995  0.00  0.00    +0.000 NA
ATOM     19  C   UNL     1      43.207   2.842  12.045  0.00  0.00    +0.000 A 
ATOM     20  C   UNL     1      43.679   2.665  10.768  0.00  0.00    +0.000 A 
ATOM     21  C   UNL     1      44.917   3.211  10.481  0.00  0.00    +0.000 A 
ATOM     22  N   UNL     1      45.625   3.883  11.415  0.00  0.00    +0.000 NA
BRANCH  21  23
ATOM     23  C   UNL     1      45.568   3.052   9.165  0.00  0.00    +0.000 A 
ATOM     24  C   UNL     1      45.799   4.151   8.311  0.00  0.00    +0.000 A 
ATOM     25  C   UNL     1      46.340   3.977   7.031  0.00  0.00    +0.000 A 
ATOM     26  C   UNL     1      46.673   2.703   6.596  0.00  0.00    +0.000 A 
ATOM     27  F   UNL     1      47.167   2.538   5.362  0.00  0.00    +0.000 F 
ATOM     28  C   UNL     1      46.491   1.611   7.430  0.00  0.00    +0.000 A 
ATOM     29  F   UNL     1      46.814   0.381   7.012  0.00  0.00    +0.000 F 
ATOM     30  C   UNL     1      45.953   1.778   8.705  0.00  0.00    +0.000 A 
ENDBRANCH  21  23
ENDBRANCH  16  17
ENDBRANCH   1  16
TORSDOF 6
ENDMDL
MODEL 8
REMARK VINA RESULT:    -7.445      2.338      3.808
REMARK INTER + INTRA:         -10.871
REMARK INTER:                 -10.170
REMARK INTRA:                  -0.700
REMARK UNBOUND:                -0.815
REMARK  Name = 
REMARK  7 active torsions:
REMARK  status: ('A' for Active; 'I' for Inactive)
REMARK    1  A    between atoms: C_1  and  O_2
REMARK    2  A    between atoms: O_2  and  C_3
REMARK    3  A    between atoms: C_5  and  N_6
REMARK    4  A    between atoms: N_6  and  C_7
REMARK    5  A    between atoms: C_7  and  C_8
REMARK    6  A    between atoms: C_12  and  C_13
REMARK    7  A    between atoms: C_23  and  C_24
REMARK                            x       y       z     vdW  Elec       q    Type
REMARK                         _______ _______ _______ _____ _____    ______ ____
ROOT
ATOM      1  N   UNL     1      47.434   6.305  12.989  0.00  0.00    +0.000 N 
ATOM      2  H   UNL     1      48.135   6.158  12.276  0.00  0.00    +0.000 HD
ENDROOT
BRANCH   1   5
ATOM      3  C   UNL     1      47.407   4.582  16.244  0.00  0.00    +0.000 A 
ATOM      4  C   UNL     1      47.064   4.924  14.940  0.00  0.00    +0.000 A 
ATOM      5  C   UNL     1      47.765   5.924  14.266  0.00  0.00    +0.000 A 
ATOM      6  N   UNL     1      48.800   6.566  14.839  0.00  0.00    +0.000 NA
ATOM      7  C   UNL     1      49.134   6.199  16.114  0.00  0.00    +0.000 A 
ATOM      8  C   UNL     1      48.471   5.228  16.844  0.00  0.00    +0.000 A 
BRANCH   7   9
ATOM      9  C   UNL     1      50.290   6.905  16.754  0.00  0.00    +0.000 C 
ATOM     10  N   UNL     1      49.982   7.905  17.633  0.00  0.00    +0.000 N 
ATOM     11  O   UNL     1      51.456   6.615  16.513  0.00  0.00    +0.000 OA
ATOM     12  H   UNL     1      49.011   8.132  17.823  0.00  0.00    +0.000 HD
ATOM     13  H   UNL     1      50.729   8.406  18.089  0.00  0.00    +0.000 HD
ENDBRANCH   7   9
BRANCH   3  15
ATOM     14  C   UNL     1      47.548   2.515  17.409  0.00  0.00    +0.000 C 
ATOM     15  O   UNL     1      46.775   3.644  17.012  0.00  0.00    +0.000 OA
ENDBRANCH   3  15
ENDBRANCH   1   5
BRANCH   1  16
ATOM     16  C   UNL     1      46.170   6.935  12.634  0.00  0.00    +0.000 C 
BRANCH  16  17
ATOM     17  C   UNL     1      45.178   5.982  11.993  0.00  0.00    +0.000 A 
ATOM     18  N   UNL     1      43.922   5.967  12.478  0.00  0.00    +0.000 NA
ATOM     19  C   UNL     1      43.059   5.135  11.875  0.00  0.00    +0.000 A 
ATOM     20  C   UNL     1      43.399   4.329  10.817  0.00  0.00    +0.000 A 
ATOM     21  C   UNL     1      44.709   4.399  10.379  0.00  0.00    +0.000 A 
ATOM     22  N   UNL     1      45.608   5.219  10.967  0.00  0.00    +0.000 NA
BRANCH  21  23
ATOM     23  C   UNL     1      45.226   3.550   9.285  0.00  0.00    +0.000 A 
ATOM     24  C   UNL     1      45.275   2.144   9.395  0.00  0.00    +0.000 A 
ATOM     25  C   UNL     1      45.844   1.355   8.388  0.00  0.00    +0.000 A 
ATOM     26  C   UNL     1      46.355   1.962   7.251  0.00  0.00    +0.000 A 
ATOM     27  F   UNL     1      46.922   1.205   6.300  0.00  0.00    +0.000 F 
ATOM     28  C   UNL     1      46.285   3.338   7.102  0.00  0.00    +0.000 A 
ATOM     29  F   UNL     1      46.777   3.924   6.003  0.00  0.00    +0.000 F 
ATOM     30  C   UNL     1      45.720   4.128   8.101  0.00  0.00    +0.000 A 
ENDBRANCH  21  23
ENDBRANCH  16  17
ENDBRANCH   1  16
TORSDOF 6
ENDMDL
MODEL 9
REMARK VINA RESULT:    -7.396      2.993      5.033
REMARK INTER + INTRA:         -10.805
REMARK INTER:                 -10.064
REMARK INTRA:                  -0.741
REMARK UNBOUND:                -0.815
REMARK  Name = 
REMARK  7 active torsions:
REMARK  status: ('A' for Active; 'I' for Inactive)
REMARK    1  A    between atoms: C_1  and  O_2
REMARK    2  A    between atoms: O_2  and  C_3
REMARK    3  A    between atoms: C_5  and  N_6
REMARK    4  A    between atoms: N_6  and  C_7
REMARK    5  A    between atoms: C_7  and  C_8
REMARK    6  A    between atoms: C_12  and  C_13
REMARK    7  A    between atoms: C_23  and  C_24
REMARK                            x       y       z     vdW  Elec       q    Type
REMARK                         _______ _______ _______ _____ _____    ______ ____
ROOT
ATOM      1  N   UNL     1      49.204   7.637  14.768  0.00  0.00    +0.000 N 
ATOM      2  H   UNL     1      49.539   8.573  14.952  0.00  0.00    +0.000 HD
ENDROOT
BRANCH   1   5
ATOM      3  C   UNL     1      48.657   6.568  18.250  0.00  0.00    +0.000 A 
ATOM      4  C   UNL     1      48.971   7.375  17.162  0.00  0.00    +0.000 A 
ATOM      5  C   UNL     1      48.874   6.876  15.863  0.00  0.00    +0.000 A 
ATOM      6  N   UNL     1      48.455   5.620  15.621  0.00  0.00    +0.000 NA
ATOM      7  C   UNL     1      48.131   4.851  16.704  0.00  0.00    +0.000 A 
ATOM      8  C   UNL     1      48.219   5.278  18.018  0.00  0.00    +0.000 A 
BRANCH   7   9
ATOM      9  C   UNL     1      47.656   3.454  16.440  0.00  0.00    +0.000 C 
ATOM     10  N   UNL     1      47.025   2.820  17.474  0.00  0.00    +0.000 N 
ATOM     11  O   UNL     1      47.817   2.896  15.361  0.00  0.00    +0.000 OA
ATOM     12  H   UNL     1      46.899   3.298  18.360  0.00  0.00    +0.000 HD
ATOM     13  H   UNL     1      46.687   1.880  17.339  0.00  0.00    +0.000 HD
ENDBRANCH   7   9
BRANCH   3  15
ATOM     14  C   UNL     1      47.572   6.761  20.356  0.00  0.00    +0.000 C 
ATOM     15  O   UNL     1      48.743   6.936  19.563  0.00  0.00    +0.000 OA
ENDBRANCH   3  15
ENDBRANCH   1   5
BRANCH   1  16
ATOM     16  C   UNL     1      49.053   7.185  13.392  0.00  0.00    +0.000 C 
BRANCH  16  17
ATOM     17  C   UNL     1      47.635   7.305  12.867  0.00  0.00    +0.000 A 
ATOM     18  N   UNL     1      46.949   8.424  13.168  0.00  0.00    +0.000 NA
ATOM     19  C   UNL     1      45.707   8.516  12.669  0.00  0.00    +0.000 A 
ATOM     20  C   UNL     1      45.132   7.545  11.887  0.00  0.00    +0.000 A 
ATOM     21  C   UNL     1      45.898   6.423  11.626  0.00  0.00    +0.000 A 
ATOM     22  N   UNL     1      47.150   6.292  12.119  0.00  0.00    +0.000 NA
BRANCH  21  23
ATOM     23  C   UNL     1      45.387   5.278  10.845  0.00  0.00    +0.000 A 
ATOM     24  C   UNL     1      44.647   4.238  11.447  0.00  0.00    +0.000 A 
ATOM     25  C   UNL     1      44.240   3.116  10.714  0.00  0.00    +0.000 A 
ATOM     26  C   UNL     1      44.553   3.029   9.366  0.00  0.00    +0.000 A 
ATOM     27  F   UNL     1      44.183   1.943   8.675  0.00  0.00    +0.000 F 
ATOM     28  C   UNL     1      45.246   4.055   8.743  0.00  0.00    +0.000 A 
ATOM     29  F   UNL     1      45.547   3.973   7.441  0.00  0.00    +0.000 F 
ATOM     30  C   UNL     1      45.654   5.174   9.467  0.00  0.00    +0.000 A 
ENDBRANCH  21  23
ENDBRANCH  16  17
ENDBRANCH   1  16
TORSDOF 6
ENDMDL
