MODEL 1
REMARK VINA RESULT:    -7.630      0.000      0.000
REMARK INTER + INTRA:         -10.136
REMARK INTER:                  -9.637
REMARK INTRA:                  -0.500
REMARK UNBOUND:                -0.500
REMARK  Name = 
REMARK  5 active torsions:
REMARK  status: ('A' for Active; 'I' for Inactive)
REMARK    1  A    between atoms: N_1  and  C_2
REMARK    2  A    between atoms: C_2  and  C_3
REMARK    3  A    between atoms: C_3  and  C_4
REMARK    4  A    between atoms: C_7  and  C_8
REMARK    5  A    between atoms: C_8  and  N_9
REMARK                            x       y       z     vdW  Elec       q    Type
REMARK                         _______ _______ _______ _____ _____    ______ ____
ROOT
ATOM      1  C   UNL     1      46.105   2.258   7.741  0.00  0.00    +0.000 A 
ATOM      2  C   UNL     1      45.354   1.653   8.749  0.00  0.00    +0.000 A 
ATOM      3  C   UNL     1      44.581   2.439   9.605  0.00  0.00    +0.000 A 
ATOM      4  C   UNL     1      44.581   3.823   9.445  0.00  0.00    +0.000 A 
ATOM      5  N   UNL     1      45.274   4.427   8.446  0.00  0.00    +0.000 NA
ATOM      6  C   UNL     1      46.011   3.636   7.625  0.00  0.00    +0.000 A 
ENDROOT
BRANCH   1   7
ATOM      7  C   UNL     1      47.005   1.446   6.845  0.00  0.00    +0.000 C 
BRANCH   7   8
ATOM      8  C   UNL     1      48.286   2.180   6.426  0.00  0.00    +0.000 C 
BRANCH   8   9
ATOM      9  N   UNL     1      48.269   2.469   4.993  0.00  0.00    +0.000 NA
ATOM     10  H   UNL     1      48.750   1.723   4.489  0.00  0.00    +0.000 HD
ATOM     11  H   UNL     1      48.797   3.320   4.804  0.00  0.00    +0.000 HD
ENDBRANCH   8   9
ENDBRANCH   7   8
ENDBRANCH   1   7
BRANCH   4  12
ATOM     12  C   UNL     1      43.802   4.725  10.374  0.00  0.00    +0.000 C 
BRANCH  12  13
ATOM     13  N   UNL     1      44.427   4.807  11.681  0.00  0.00    +0.000 N 
ATOM     14  N   UNL     1      43.909   4.122  12.723  0.00  0.00    +0.000 NA
ATOM     15  N   UNL     1      44.733   4.275  13.750  0.00  0.00    +0.000 NA
ATOM     16  C   UNL     1      45.759   5.092  13.356  0.00  0.00    +0.000 A 
ATOM     17  C   UNL     1      46.896   5.533  14.048  0.00  0.00    +0.000 A 
ATOM     18  C   UNL     1      47.799   6.373  13.384  0.00  0.00    +0.000 A 
ATOM     19  C   UNL     1      47.560   6.784  12.069  0.00  0.00    +0.000 A 
ATOM     20  C   UNL     1      46.430   6.353  11.364  0.00  0.00    +0.000 A 
ATOM     21  C   UNL     1      45.562   5.489  12.039  0.00  0.00    +0.000 A 
ENDBRANCH  12  13
ENDBRANCH   4  12
TORSDOF 5
ENDMDL
MODEL 2
REMARK VINA RESULT:    -7.239      1.704      2.096
REMARK INTER + INTRA:          -9.643
REMARK INTER:                  -9.171
REMARK INTRA:                  -0.472
REMARK UNBOUND:                -0.500
REMARK  Name = 
REMARK  5 active torsions:
REMARK  status: ('A' for Active; 'I' for Inactive)
REMARK    1  A    between atoms: N_1  and  C_2
REMARK    2  A    between atoms: C_2  and  C_3
REMARK    3  A    between atoms: C_3  and  C_4
REMARK    4  A    between atoms: C_7  and  C_8
REMARK    5  A    between atoms: C_8  and  N_9
REMARK                            x       y       z     vdW  Elec       q    Type
REMARK                         _______ _______ _______ _____ _____    ______ ____
ROOT
ATOM      1  C   UNL     1      46.047   2.362   8.003  0.00  0.00    +0.000 A 
ATOM      2  C   UNL     1      46.151   3.751   7.912  0.00  0.00    +0.000 A 
ATOM      3  C   UNL     1      45.376   4.560   8.745  0.00  0.00    +0.000 A 
ATOM      4  C   UNL     1      44.500   3.965   9.649  0.00  0.00    +0.000 A 
ATOM      5  N   UNL     1      44.414   2.616   9.780  0.00  0.00    +0.000 NA
ATOM      6  C   UNL     1      45.184   1.856   8.962  0.00  0.00    +0.000 A 
ENDROOT
BRANCH   1   7
ATOM      7  C   UNL     1      46.816   1.460   7.071  0.00  0.00    +0.000 C 
BRANCH   7   8
ATOM      8  C   UNL     1      48.223   1.972   6.736  0.00  0.00    +0.000 C 
BRANCH   8   9
ATOM      9  N   UNL     1      48.408   2.058   5.288  0.00  0.00    +0.000 NA
ATOM     10  H   UNL     1      47.560   1.740   4.818  0.00  0.00    +0.000 HD
ATOM     11  H   UNL     1      49.148   1.421   4.995  0.00  0.00    +0.000 HD
ENDBRANCH   8   9
ENDBRANCH   7   8
ENDBRANCH   1   7
BRANCH   4  12
ATOM     12  C   UNL     1      43.602   4.793  10.540  0.00  0.00    +0.000 C 
BRANCH  12  13
ATOM     13  N   UNL     1      44.364   5.498  11.553  0.00  0.00    +0.000 N 
ATOM     14  N   UNL     1      45.040   4.805  12.494  0.00  0.00    +0.000 NA
ATOM     15  N   UNL     1      45.737   5.678  13.209  0.00  0.00    +0.000 NA
ATOM     16  C   UNL     1      45.468   6.932  12.730  0.00  0.00    +0.000 A 
ATOM     17  C   UNL     1      45.969   8.184  13.111  0.00  0.00    +0.000 A 
ATOM     18  C   UNL     1      45.515   9.322  12.431  0.00  0.00    +0.000 A 
ATOM     19  C   UNL     1      44.564   9.215  11.412  0.00  0.00    +0.000 A 
ATOM     20  C   UNL     1      44.052   7.972  11.020  0.00  0.00    +0.000 A 
ATOM     21  C   UNL     1      44.548   6.850  11.692  0.00  0.00    +0.000 A 
ENDBRANCH  12  13
ENDBRANCH   4  12
TORSDOF 5
ENDMDL
MODEL 3
REMARK VINA RESULT:    -7.193      1.065      1.648
REMARK INTER + INTRA:          -9.584
REMARK INTER:                  -9.115
REMARK INTRA:                  -0.469
REMARK UNBOUND:                -0.500
REMARK  Name = 
REMARK  5 active torsions:
REMARK  status: ('A' for Active; 'I' for Inactive)
REMARK    1  A    between atoms: N_1  and  C_2
REMARK    2  A    between atoms: C_2  and  C_3
REMARK    3  A    between atoms: C_3  and  C_4
REMARK    4  A    between atoms: C_7  and  C_8
REMARK    5  A    between atoms: C_8  and  N_9
REMARK                            x       y       z     vdW  Elec       q    Type
REMARK                         _______ _______ _______ _____ _____    ______ ____
ROOT
ATOM      1  C   UNL     1      46.066   2.311   7.771  0.00  0.00    +0.000 A 
ATOM      2  C   UNL     1      45.308   1.698   8.770  0.00  0.00    +0.000 A 
ATOM      3  C   UNL     1      44.559   2.481   9.651  0.00  0.00    +0.000 A 
ATOM      4  C   UNL     1      44.590   3.867   9.525  0.00  0.00    +0.000 A 
ATOM      5  N   UNL     1      45.290   4.480   8.535  0.00  0.00    +0.000 NA
ATOM      6  C   UNL     1      46.003   3.693   7.690  0.00  0.00    +0.000 A 
ENDROOT
BRANCH   1   7
ATOM      7  C   UNL     1      46.941   1.500   6.849  0.00  0.00    +0.000 C 
BRANCH   7   8
ATOM      8  C   UNL     1      48.252   2.199   6.467  0.00  0.00    +0.000 C 
BRANCH   8   9
ATOM      9  N   UNL     1      48.268   2.519   5.040  0.00  0.00    +0.000 NA
ATOM     10  H   UNL     1      48.921   1.898   4.560  0.00  0.00    +0.000 HD
ATOM     11  H   UNL     1      48.625   3.464   4.901  0.00  0.00    +0.000 HD
ENDBRANCH   8   9
ENDBRANCH   7   8
ENDBRANCH   1   7
BRANCH   4  12
ATOM     12  C   UNL     1      43.839   4.764  10.482  0.00  0.00    +0.000 C 
BRANCH  12  13
ATOM     13  N   UNL     1      44.747   5.518  11.325  0.00  0.00    +0.000 N 
ATOM     14  N   UNL     1      44.793   6.865  11.235  0.00  0.00    +0.000 NA
ATOM     15  N   UNL     1      45.605   7.301  12.188  0.00  0.00    +0.000 NA
ATOM     16  C   UNL     1      46.099   6.214  12.858  0.00  0.00    +0.000 A 
ATOM     17  C   UNL     1      46.961   6.132  13.960  0.00  0.00    +0.000 A 
ATOM     18  C   UNL     1      47.300   4.865  14.452  0.00  0.00    +0.000 A 
ATOM     19  C   UNL     1      46.809   3.706  13.843  0.00  0.00    +0.000 A 
ATOM     20  C   UNL     1      45.947   3.770  12.742  0.00  0.00    +0.000 A 
ATOM     21  C   UNL     1      45.599   5.048  12.292  0.00  0.00    +0.000 A 
ENDBRANCH  12  13
ENDBRANCH   4  12
TORSDOF 5
ENDMDL
MODEL 4
REMARK VINA RESULT:    -6.863      1.730      6.472
REMARK INTER + INTRA:          -9.168
REMARK INTER:                  -8.666
REMARK INTRA:                  -0.502
REMARK UNBOUND:                -0.500
REMARK  Name = 
REMARK  5 active torsions:
REMARK  status: ('A' for Active; 'I' for Inactive)
REMARK    1  A    between atoms: N_1  and  C_2
REMARK    2  A    between atoms: C_2  and  C_3
REMARK    3  A    between atoms: C_3  and  C_4
REMARK    4  A    between atoms: C_7  and  C_8
REMARK    5  A    between atoms: C_8  and  N_9
REMARK                            x       y       z     vdW  Elec       q    Type
REMARK                         _______ _______ _______ _____ _____    ______ ____
ROOT
ATOM      1  C   UNL     1      46.473   4.726  13.921  0.00  0.00    +0.000 A 
ATOM      2  C   UNL     1      46.402   3.438  13.388  0.00  0.00    +0.000 A 
ATOM      3  C   UNL     1      45.741   3.225  12.176  0.00  0.00    +0.000 A 
ATOM      4  C   UNL     1      45.152   4.305  11.523  0.00  0.00    +0.000 A 
ATOM      5  N   UNL     1      45.244   5.571  12.006  0.00  0.00    +0.000 NA
ATOM      6  C   UNL     1      45.898   5.747  13.182  0.00  0.00    +0.000 A 
ENDROOT
BRANCH   1   7
ATOM      7  C   UNL     1      47.116   4.980  15.261  0.00  0.00    +0.000 C 
BRANCH   7   8
ATOM      8  C   UNL     1      47.455   3.700  16.037  0.00  0.00    +0.000 C 
BRANCH   8   9
ATOM      9  N   UNL     1      48.822   3.759  16.554  0.00  0.00    +0.000 NA
ATOM     10  H   UNL     1      49.480   3.560  15.799  0.00  0.00    +0.000 HD
ATOM     11  H   UNL     1      48.961   3.026  17.248  0.00  0.00    +0.000 HD
ENDBRANCH   8   9
ENDBRANCH   7   8
ENDBRANCH   1   7
BRANCH   4  12
ATOM     12  C   UNL     1      44.382   4.123  10.235  0.00  0.00    +0.000 C 
BRANCH  12  13
ATOM     13  N   UNL     1      45.273   4.002   9.097  0.00  0.00    +0.000 N 
ATOM     14  N   UNL     1      45.772   5.110   8.508  0.00  0.00    +0.000 NA
ATOM     15  N   UNL     1      46.640   4.716   7.587  0.00  0.00    +0.000 NA
ATOM     16  C   UNL     1      46.659   3.346   7.577  0.00  0.00    +0.000 A 
ATOM     17  C   UNL     1      47.422   2.447   6.820  0.00  0.00    +0.000 A 
ATOM     18  C   UNL     1      47.236   1.073   7.026  0.00  0.00    +0.000 A 
ATOM     19  C   UNL     1      46.292   0.609   7.947  0.00  0.00    +0.000 A 
ATOM     20  C   UNL     1      45.521   1.494   8.710  0.00  0.00    +0.000 A 
ATOM     21  C   UNL     1      45.751   2.859   8.509  0.00  0.00    +0.000 A 
ENDBRANCH  12  13
ENDBRANCH   4  12
TORSDOF 5
ENDMDL
MODEL 5
REMARK VINA RESULT:    -6.566      2.215      5.889
REMARK INTER + INTRA:          -8.793
REMARK INTER:                  -8.313
REMARK INTRA:                  -0.480
REMARK UNBOUND:                -0.500
REMARK  Name = 
REMARK  5 active torsions:
REMARK  status: ('A' for Active; 'I' for Inactive)
REMARK    1  A    between atoms: N_1  and  C_2
REMARK    2  A    between atoms: C_2  and  C_3
REMARK    3  A    between atoms: C_3  and  C_4
REMARK    4  A    between atoms: C_7  and  C_8
REMARK    5  A    between atoms: C_8  and  N_9
REMARK                            x       y       z     vdW  Elec       q    Type
REMARK                         _______ _______ _______ _____ _____    ______ ____
ROOT
ATOM      1  C   UNL     1      46.479   7.536  13.013  0.00  0.00    +0.000 A 
ATOM      2  C   UNL     1      45.726   8.227  12.064  0.00  0.00    +0.000 A 
ATOM      3  C   UNL     1      44.665   7.587  11.420  0.00  0.00    +0.000 A 
ATOM      4  C   UNL     1      44.382   6.259  11.730  0.00  0.00    +0.000 A 
ATOM      5  N   UNL     1      45.079   5.582  12.680  0.00  0.00    +0.000 NA
ATOM      6  C   UNL     1      46.100   6.233  13.292  0.00  0.00    +0.000 A 
ENDROOT
BRANCH   1   7
ATOM      7  C   UNL     1      47.674   8.174  13.674  0.00  0.00    +0.000 C 
BRANCH   7   8
ATOM      8  C   UNL     1      48.957   8.101  12.836  0.00  0.00    +0.000 C 
BRANCH   8   9
ATOM      9  N   UNL     1      49.778   6.963  13.251  0.00  0.00    +0.000 NA
ATOM     10  H   UNL     1      49.196   6.126  13.305  0.00  0.00    +0.000 HD
ATOM     11  H   UNL     1      50.136   7.119  14.192  0.00  0.00    +0.000 HD
ENDBRANCH   8   9
ENDBRANCH   7   8
ENDBRANCH   1   7
BRANCH   4  12
ATOM     12  C   UNL     1      43.278   5.502  11.029  0.00  0.00    +0.000 C 
BRANCH  12  13
ATOM     13  N   UNL     1      43.720   4.185  10.612  0.00  0.00    +0.000 N 
ATOM     14  N   UNL     1      43.188   3.082  11.181  0.00  0.00    +0.000 NA
ATOM     15  N   UNL     1      43.673   2.028  10.539  0.00  0.00    +0.000 NA
ATOM     16  C   UNL     1      44.544   2.476   9.581  0.00  0.00    +0.000 A 
ATOM     17  C   UNL     1      45.287   1.776   8.621  0.00  0.00    +0.000 A 
ATOM     18  C   UNL     1      46.106   2.504   7.748  0.00  0.00    +0.000 A 
ATOM     19  C   UNL     1      46.199   3.895   7.847  0.00  0.00    +0.000 A 
ATOM     20  C   UNL     1      45.463   4.609   8.801  0.00  0.00    +0.000 A 
ATOM     21  C   UNL     1      44.629   3.862   9.637  0.00  0.00    +0.000 A 
ENDBRANCH  12  13
ENDBRANCH   4  12
TORSDOF 5
ENDMDL
MODEL 6
REMARK VINA RESULT:    -6.493      1.893      6.174
REMARK INTER + INTRA:          -8.701
REMARK INTER:                  -8.179
REMARK INTRA:                  -0.522
REMARK UNBOUND:                -0.500
REMARK  Name = 
REMARK  5 active torsions:
REMARK  status: ('A' for Active; 'I' for Inactive)
REMARK    1  A    between atoms: N_1  and  C_2
REMARK    2  A    between atoms: C_2  and  C_3
REMARK    3  A    between atoms: C_3  and  C_4
REMARK    4  A    between atoms: C_7  and  C_8
REMARK    5  A    between atoms: C_8  and  N_9
REMARK                            x       y       z     vdW  Elec       q    Type
REMARK                         _______ _______ _______ _____ _____    ______ ____
ROOT
ATOM      1  C   UNL     1      46.615   5.811  12.913  0.00  0.00    +0.000 A 
ATOM      2  C   UNL     1      46.704   6.439  11.670  0.00  0.00    +0.000 A 
ATOM      3  C   UNL     1      45.949   5.964  10.597  0.00  0.00    +0.000 A 
ATOM      4  C   UNL     1      45.123   4.857  10.782  0.00  0.00    +0.000 A 
ATOM      5  N   UNL     1      44.993   4.257  11.994  0.00  0.00    +0.000 NA
ATOM      6  C   UNL     1      45.734   4.746  13.020  0.00  0.00    +0.000 A 
ENDROOT
BRANCH   1   7
ATOM      7  C   UNL     1      47.469   6.254  14.074  0.00  0.00    +0.000 C 
BRANCH   7   8
ATOM      8  C   UNL     1      48.396   7.432  13.746  0.00  0.00    +0.000 C 
BRANCH   8   9
ATOM      9  N   UNL     1      49.798   7.030  13.860  0.00  0.00    +0.000 NA
ATOM     10  H   UNL     1      49.854   6.124  14.327  0.00  0.00    +0.000 HD
ATOM     11  H   UNL     1      50.299   7.686  14.457  0.00  0.00    +0.000 HD
ENDBRANCH   8   9
ENDBRANCH   7   8
ENDBRANCH   1   7
BRANCH   4  12
ATOM     12  C   UNL     1      44.323   4.270   9.643  0.00  0.00    +0.000 C 
BRANCH  12  13
ATOM     13  N   UNL     1      44.976   3.103   9.082  0.00  0.00    +0.000 N 
ATOM     14  N   UNL     1      44.627   1.867   9.499  0.00  0.00    +0.000 NA
ATOM     15  N   UNL     1      45.283   0.993   8.747  0.00  0.00    +0.000 NA
ATOM     16  C   UNL     1      46.074   1.690   7.874  0.00  0.00    +0.000 A 
ATOM     17  C   UNL     1      46.928   1.243   6.856  0.00  0.00    +0.000 A 
ATOM     18  C   UNL     1      47.622   2.196   6.099  0.00  0.00    +0.000 A 
ATOM     19  C   UNL     1      47.487   3.561   6.368  0.00  0.00    +0.000 A 
ATOM     20  C   UNL     1      46.638   4.024   7.381  0.00  0.00    +0.000 A 
ATOM     21  C   UNL     1      45.932   3.054   8.099  0.00  0.00    +0.000 A 
ENDBRANCH  12  13
ENDBRANCH   4  12
TORSDOF 5
ENDMDL
MODEL 7
REMARK VINA RESULT:    -6.258      4.093      6.578
REMARK INTER + INTRA:          -8.404
REMARK INTER:                  -7.950
REMARK INTRA:                  -0.454
REMARK UNBOUND:                -0.500
REMARK  Name = 
REMARK  5 active torsions:
REMARK  status: ('A' for Active; 'I' for Inactive)
REMARK    1  A    between atoms: N_1  and  C_2
REMARK    2  A    between atoms: C_2  and  C_3
REMARK    3  A    between atoms: C_3  and  C_4
REMARK    4  A    between atoms: C_7  and  C_8
REMARK    5  A    between atoms: C_8  and  N_9
REMARK                            x       y       z     vdW  Elec       q    Type
REMARK                         _______ _______ _______ _____ _____    ______ ____
ROOT
ATOM      1  C   UNL     1      46.637   5.691  12.578  0.00  0.00    +0.000 A 
ATOM      2  C   UNL     1      47.675   6.168  13.379  0.00  0.00    +0.000 A 
ATOM      3  C   UNL     1      47.866   5.638  14.656  0.00  0.00    +0.000 A 
ATOM      4  C   UNL     1      47.005   4.644  15.116  0.00  0.00    +0.000 A 
ATOM      5  N   UNL     1      46.014   4.139  14.337  0.00  0.00    +0.000 NA
ATOM      6  C   UNL     1      45.858   4.670  13.098  0.00  0.00    +0.000 A 
ENDROOT
BRANCH   1   7
ATOM      7  C   UNL     1      46.360   6.290  11.222  0.00  0.00    +0.000 C 
BRANCH   7   8
ATOM      8  C   UNL     1      45.293   5.536  10.419  0.00  0.00    +0.000 C 
BRANCH   8   9
ATOM      9  N   UNL     1      45.710   5.381   9.026  0.00  0.00    +0.000 NA
ATOM     10  H   UNL     1      46.243   6.203   8.738  0.00  0.00    +0.000 HD
ATOM     11  H   UNL     1      44.892   5.351   8.420  0.00  0.00    +0.000 HD
ENDBRANCH   8   9
ENDBRANCH   7   8
ENDBRANCH   1   7
BRANCH   4  12
ATOM     12  C   UNL     1      47.135   4.070  16.508  0.00  0.00    +0.000 C 
BRANCH  12  13
ATOM     13  N   UNL     1      48.362   3.311  16.657  0.00  0.00    +0.000 N 
ATOM     14  N   UNL     1      48.560   2.195  15.923  0.00  0.00    +0.000 NA
ATOM     15  N   UNL     1      49.794   1.774  16.163  0.00  0.00    +0.000 NA
ATOM     16  C   UNL     1      50.362   2.616  17.082  0.00  0.00    +0.000 A 
ATOM     17  C   UNL     1      51.648   2.631  17.639  0.00  0.00    +0.000 A 
ATOM     18  C   UNL     1      51.963   3.631  18.567  0.00  0.00    +0.000 A 
ATOM     19  C   UNL     1      51.010   4.580  18.949  0.00  0.00    +0.000 A 
ATOM     20  C   UNL     1      49.721   4.580  18.402  0.00  0.00    +0.000 A 
ATOM     21  C   UNL     1      49.443   3.591  17.453  0.00  0.00    +0.000 A 
ENDBRANCH  12  13
ENDBRANCH   4  12
TORSDOF 5
ENDMDL
MODEL 8
REMARK VINA RESULT:    -5.846      2.677      5.683
REMARK INTER + INTRA:          -7.883
REMARK INTER:                  -7.389
REMARK INTRA:                  -0.494
REMARK UNBOUND:                -0.500
REMARK  Name = 
REMARK  5 active torsions:
REMARK  status: ('A' for Active; 'I' for Inactive)
REMARK    1  A    between atoms: N_1  and  C_2
REMARK    2  A    between atoms: C_2  and  C_3
REMARK    3  A    between atoms: C_3  and  C_4
REMARK    4  A    between atoms: C_7  and  C_8
REMARK    5  A    between atoms: C_8  and  N_9
REMARK                            x       y       z     vdW  Elec       q    Type
REMARK                         _______ _______ _______ _____ _____    ______ ____
ROOT
ATOM      1  C   UNL     1      48.965   7.669  12.811  0.00  0.00    +0.000 A 
ATOM      2  C   UNL     1      48.618   6.557  13.579  0.00  0.00    +0.000 A 
ATOM      3  C   UNL     1      47.296   6.107  13.592  0.00  0.00    +0.000 A 
ATOM      4  C   UNL     1      46.339   6.787  12.843  0.00  0.00    +0.000 A 
ATOM      5  N   UNL     1      46.664   7.847  12.058  0.00  0.00    +0.000 NA
ATOM      6  C   UNL     1      47.958   8.256  12.061  0.00  0.00    +0.000 A 
ENDROOT
BRANCH   1   7
ATOM      7  C   UNL     1      50.367   8.223  12.829  0.00  0.00    +0.000 C 
BRANCH   7   8
ATOM      8  C   UNL     1      50.942   8.498  11.434  0.00  0.00    +0.000 C 
BRANCH   8   9
ATOM      9  N   UNL     1      51.514   7.279  10.863  0.00  0.00    +0.000 NA
ATOM     10  H   UNL     1      50.847   6.513  10.962  0.00  0.00    +0.000 HD
ATOM     11  H   UNL     1      52.339   7.003  11.393  0.00  0.00    +0.000 HD
ENDBRANCH   8   9
ENDBRANCH   7   8
ENDBRANCH   1   7
BRANCH   4  12
ATOM     12  C   UNL     1      44.885   6.374  12.860  0.00  0.00    +0.000 C 
BRANCH  12  13
ATOM     13  N   UNL     1      44.711   5.025  12.358  0.00  0.00    +0.000 N 
ATOM     14  N   UNL     1      44.290   4.044  13.185  0.00  0.00    +0.000 NA
ATOM     15  N   UNL     1      44.103   2.956  12.451  0.00  0.00    +0.000 NA
ATOM     16  C   UNL     1      44.442   3.250  11.157  0.00  0.00    +0.000 A 
ATOM     17  C   UNL     1      44.392   2.465   9.997  0.00  0.00    +0.000 A 
ATOM     18  C   UNL     1      44.802   3.036   8.785  0.00  0.00    +0.000 A 
ATOM     19  C   UNL     1      45.273   4.352   8.737  0.00  0.00    +0.000 A 
ATOM     20  C   UNL     1      45.329   5.149   9.887  0.00  0.00    +0.000 A 
ATOM     21  C   UNL     1      44.883   4.565  11.077  0.00  0.00    +0.000 A 
ENDBRANCH  12  13
ENDBRANCH   4  12
TORSDOF 5
ENDMDL
MODEL 9
REMARK VINA RESULT:    -5.605      4.723      7.975
REMARK INTER + INTRA:          -7.580
REMARK INTER:                  -7.546
REMARK INTRA:                  -0.034
REMARK UNBOUND:                -0.500
REMARK  Name = 
REMARK  5 active torsions:
REMARK  status: ('A' for Active; 'I' for Inactive)
REMARK    1  A    between atoms: N_1  and  C_2
REMARK    2  A    between atoms: C_2  and  C_3
REMARK    3  A    between atoms: C_3  and  C_4
REMARK    4  A    between atoms: C_7  and  C_8
REMARK    5  A    between atoms: C_8  and  N_9
REMARK                            x       y       z     vdW  Elec       q    Type
REMARK                         _______ _______ _______ _____ _____    ______ ____
ROOT
ATOM      1  C   UNL     1      50.890   2.712  17.505  0.00  0.00    +0.000 A 
ATOM      2  C   UNL     1      50.379   3.929  17.956  0.00  0.00    +0.000 A 
ATOM      3  C   UNL     1      49.144   4.380  17.486  0.00  0.00    +0.000 A 
ATOM      4  C   UNL     1      48.445   3.608  16.561  0.00  0.00    +0.000 A 
ATOM      5  N   UNL     1      48.907   2.402  16.140  0.00  0.00    +0.000 NA
ATOM      6  C   UNL     1      50.106   1.988  16.620  0.00  0.00    +0.000 A 
ENDROOT
BRANCH   1   7
ATOM      7  C   UNL     1      52.251   2.229  17.938  0.00  0.00    +0.000 C 
BRANCH   7   8
ATOM      8  C   UNL     1      52.589   0.814  17.453  0.00  0.00    +0.000 C 
BRANCH   8   9
ATOM      9  N   UNL     1      52.191  -0.181  18.448  0.00  0.00    +0.000 NA
ATOM     10  H   UNL     1      51.446  -0.764  18.066  0.00  0.00    +0.000 HD
ATOM     11  H   UNL     1      51.794   0.285  19.263  0.00  0.00    +0.000 HD
ENDBRANCH   8   9
ENDBRANCH   7   8
ENDBRANCH   1   7
BRANCH   4  12
ATOM     12  C   UNL     1      47.128   4.072  15.981  0.00  0.00    +0.000 C 
BRANCH  12  13
ATOM     13  N   UNL     1      47.329   4.986  14.873  0.00  0.00    +0.000 N 
ATOM     14  N   UNL     1      48.406   5.801  14.856  0.00  0.00    +0.000 NA
ATOM     15  N   UNL     1      48.409   6.434  13.691  0.00  0.00    +0.000 NA
ATOM     16  C   UNL     1      47.305   6.034  12.986  0.00  0.00    +0.000 A 
ATOM     17  C   UNL     1      46.869   6.375  11.698  0.00  0.00    +0.000 A 
ATOM     18  C   UNL     1      45.685   5.799  11.219  0.00  0.00    +0.000 A 
ATOM     19  C   UNL     1      44.941   4.923  12.015  0.00  0.00    +0.000 A 
ATOM     20  C   UNL     1      45.363   4.573  13.303  0.00  0.00    +0.000 A 
ATOM     21  C   UNL     1      46.565   5.135  13.745  0.00  0.00    +0.000 A 
ENDBRANCH  12  13
ENDBRANCH   4  12
TORSDOF 5
ENDMDL
