MODEL 1
REMARK VINA RESULT:    -7.651      0.000      0.000
REMARK INTER + INTRA:          -9.323
REMARK INTER:                  -8.993
REMARK INTRA:                  -0.331
REMARK UNBOUND:                -0.331
REMARK  Name = 
REMARK  3 active torsions:
REMARK  status: ('A' for Active; 'I' for Inactive)
REMARK    1  A    between atoms: C_2  and  C_4
REMARK    2  A    between atoms: N_11  and  C_12
REMARK    3  A    between atoms: C_12  and  C_13
REMARK                            x       y       z     vdW  Elec       q    Type
REMARK                         _______ _______ _______ _____ _____    ______ ____
ROOT
ATOM      1  C   UNL     1      46.198   6.606  12.694  0.00  0.00    +0.000 A 
ATOM      2  C   UNL     1      46.406   6.557  11.317  0.00  0.00    +0.000 A 
ATOM      3  N   UNL     1      45.841   5.668  10.457  0.00  0.00    +0.000 NA
ATOM      4  C   UNL     1      45.009   4.801  11.069  0.00  0.00    +0.000 A 
ATOM      5  C   UNL     1      44.711   4.746  12.431  0.00  0.00    +0.000 A 
ATOM      6  C   UNL     1      43.803   3.670  12.618  0.00  0.00    +0.000 A 
ATOM      7  C   UNL     1      43.589   3.088  11.388  0.00  0.00    +0.000 A 
ATOM      8  N   UNL     1      44.309   3.792  10.450  0.00  0.00    +0.000 N 
ATOM      9  C   UNL     1      45.323   5.684  13.278  0.00  0.00    +0.000 A 
ENDROOT
BRANCH   1  11
ATOM     10  N   UNL     1      46.254   8.835  13.669  0.00  0.00    +0.000 N 
ATOM     11  C   UNL     1      46.899   7.645  13.480  0.00  0.00    +0.000 C 
ATOM     12  O   UNL     1      48.004   7.442  13.962  0.00  0.00    +0.000 OA
ATOM     13  H   UNL     1      46.711   9.502  14.279  0.00  0.00    +0.000 HD
ATOM     14  H   UNL     1      45.267   8.960  13.497  0.00  0.00    +0.000 HD
ENDBRANCH   1  11
BRANCH   8  15
ATOM     15  C   UNL     1      44.416   3.434   9.049  0.00  0.00    +0.000 C 
BRANCH  15  16
ATOM     16  C   UNL     1      45.792   2.890   8.602  0.00  0.00    +0.000 C 
ATOM     17  C   UNL     1      46.302   3.611   7.340  0.00  0.00    +0.000 C 
ATOM     18  C   UNL     1      47.482   2.918   6.667  0.00  0.00    +0.000 C 
ATOM     19  C   UNL     1      47.184   1.453   6.389  0.00  0.00    +0.000 C 
ATOM     20  C   UNL     1      46.846   0.726   7.682  0.00  0.00    +0.000 C 
ATOM     21  C   UNL     1      45.658   1.368   8.391  0.00  0.00    +0.000 C 
ENDBRANCH  15  16
ENDBRANCH   8  15
TORSDOF 3
ENDMDL
MODEL 2
REMARK VINA RESULT:    -7.544      2.919      6.197
REMARK INTER + INTRA:          -9.197
REMARK INTER:                  -8.963
REMARK INTRA:                  -0.235
REMARK UNBOUND:                -0.331
REMARK  Name = 
REMARK  3 active torsions:
REMARK  status: ('A' for Active; 'I' for Inactive)
REMARK    1  A    between atoms: C_2  and  C_4
REMARK    2  A    between atoms: N_11  and  C_12
REMARK    3  A    between atoms: C_12  and  C_13
REMARK                            x       y       z     vdW  Elec       q    Type
REMARK                         _______ _______ _______ _____ _____    ______ ____
ROOT
ATOM      1  C   UNL     1      46.595   2.720   7.507  0.00  0.00    +0.000 A 
ATOM      2  C   UNL     1      46.517   4.107   7.602  0.00  0.00    +0.000 A 
ATOM      3  N   UNL     1      45.766   4.805   8.494  0.00  0.00    +0.000 NA
ATOM      4  C   UNL     1      45.076   4.009   9.337  0.00  0.00    +0.000 A 
ATOM      5  C   UNL     1      45.070   2.614   9.353  0.00  0.00    +0.000 A 
ATOM      6  C   UNL     1      44.195   2.210  10.395  0.00  0.00    +0.000 A 
ATOM      7  C   UNL     1      43.678   3.351  10.968  0.00  0.00    +0.000 A 
ATOM      8  N   UNL     1      44.232   4.439  10.333  0.00  0.00    +0.000 N 
ATOM      9  C   UNL     1      45.861   1.940   8.406  0.00  0.00    +0.000 A 
ENDROOT
BRANCH   1  11
ATOM     10  N   UNL     1      47.790   2.909   5.395  0.00  0.00    +0.000 N 
ATOM     11  C   UNL     1      47.467   2.127   6.469  0.00  0.00    +0.000 C 
ATOM     12  O   UNL     1      47.902   0.990   6.576  0.00  0.00    +0.000 OA
ATOM     13  H   UNL     1      48.455   2.518   4.739  0.00  0.00    +0.000 HD
ATOM     14  H   UNL     1      47.653   3.909   5.381  0.00  0.00    +0.000 HD
ENDBRANCH   1  11
BRANCH   8  15
ATOM     15  C   UNL     1      43.873   5.820  10.590  0.00  0.00    +0.000 C 
BRANCH  15  16
ATOM     16  C   UNL     1      44.596   6.488  11.782  0.00  0.00    +0.000 C 
ATOM     17  C   UNL     1      44.732   8.009  11.580  0.00  0.00    +0.000 C 
ATOM     18  C   UNL     1      45.704   8.676  12.548  0.00  0.00    +0.000 C 
ATOM     19  C   UNL     1      47.061   7.989  12.537  0.00  0.00    +0.000 C 
ATOM     20  C   UNL     1      46.916   6.520  12.905  0.00  0.00    +0.000 C 
ATOM     21  C   UNL     1      45.965   5.798  11.956  0.00  0.00    +0.000 C 
ENDBRANCH  15  16
ENDBRANCH   8  15
TORSDOF 3
ENDMDL
MODEL 3
REMARK VINA RESULT:    -6.999      2.072      2.804
REMARK INTER + INTRA:          -8.557
REMARK INTER:                  -8.732
REMARK INTRA:                   0.175
REMARK UNBOUND:                -0.331
REMARK  Name = 
REMARK  3 active torsions:
REMARK  status: ('A' for Active; 'I' for Inactive)
REMARK    1  A    between atoms: C_2  and  C_4
REMARK    2  A    between atoms: N_11  and  C_12
REMARK    3  A    between atoms: C_12  and  C_13
REMARK                            x       y       z     vdW  Elec       q    Type
REMARK                         _______ _______ _______ _____ _____    ______ ____
ROOT
ATOM      1  C   UNL     1      46.805   4.518  14.144  0.00  0.00    +0.000 A 
ATOM      2  C   UNL     1      46.333   3.304  13.651  0.00  0.00    +0.000 A 
ATOM      3  N   UNL     1      45.665   3.123  12.481  0.00  0.00    +0.000 NA
ATOM      4  C   UNL     1      45.499   4.269  11.788  0.00  0.00    +0.000 A 
ATOM      5  C   UNL     1      45.926   5.543  12.164  0.00  0.00    +0.000 A 
ATOM      6  C   UNL     1      45.522   6.440  11.140  0.00  0.00    +0.000 A 
ATOM      7  C   UNL     1      44.849   5.706  10.188  0.00  0.00    +0.000 A 
ATOM      8  N   UNL     1      44.857   4.387  10.579  0.00  0.00    +0.000 N 
ATOM      9  C   UNL     1      46.608   5.676  13.386  0.00  0.00    +0.000 A 
ENDROOT
BRANCH   1  11
ATOM     10  N   UNL     1      47.092   3.646  16.399  0.00  0.00    +0.000 N 
ATOM     11  C   UNL     1      47.513   4.529  15.443  0.00  0.00    +0.000 C 
ATOM     12  O   UNL     1      48.453   5.283  15.650  0.00  0.00    +0.000 OA
ATOM     13  H   UNL     1      47.642   3.609  17.249  0.00  0.00    +0.000 HD
ATOM     14  H   UNL     1      46.492   2.860  16.196  0.00  0.00    +0.000 HD
ENDBRANCH   1  11
BRANCH   8  15
ATOM     15  C   UNL     1      44.171   3.314   9.885  0.00  0.00    +0.000 C 
BRANCH  15  16
ATOM     16  C   UNL     1      44.821   2.852   8.561  0.00  0.00    +0.000 C 
ATOM     17  C   UNL     1      45.679   1.589   8.763  0.00  0.00    +0.000 C 
ATOM     18  C   UNL     1      46.594   1.270   7.585  0.00  0.00    +0.000 C 
ATOM     19  C   UNL     1      47.448   2.468   7.201  0.00  0.00    +0.000 C 
ATOM     20  C   UNL     1      46.566   3.656   6.844  0.00  0.00    +0.000 C 
ATOM     21  C   UNL     1      45.640   4.031   7.995  0.00  0.00    +0.000 C 
ENDBRANCH  15  16
ENDBRANCH   8  15
TORSDOF 3
ENDMDL
MODEL 4
REMARK VINA RESULT:    -6.093      1.786      2.796
REMARK INTER + INTRA:          -7.492
REMARK INTER:                  -7.418
REMARK INTRA:                  -0.074
REMARK UNBOUND:                -0.331
REMARK  Name = 
REMARK  3 active torsions:
REMARK  status: ('A' for Active; 'I' for Inactive)
REMARK    1  A    between atoms: C_2  and  C_4
REMARK    2  A    between atoms: N_11  and  C_12
REMARK    3  A    between atoms: C_12  and  C_13
REMARK                            x       y       z     vdW  Elec       q    Type
REMARK                         _______ _______ _______ _____ _____    ______ ____
ROOT
ATOM      1  C   UNL     1      48.171   7.583  12.990  0.00  0.00    +0.000 A 
ATOM      2  C   UNL     1      47.185   8.001  12.098  0.00  0.00    +0.000 A 
ATOM      3  N   UNL     1      46.120   7.265  11.685  0.00  0.00    +0.000 NA
ATOM      4  C   UNL     1      46.079   6.038  12.245  0.00  0.00    +0.000 A 
ATOM      5  C   UNL     1      46.994   5.501  13.151  0.00  0.00    +0.000 A 
ATOM      6  C   UNL     1      46.560   4.185  13.455  0.00  0.00    +0.000 A 
ATOM      7  C   UNL     1      45.418   3.945  12.723  0.00  0.00    +0.000 A 
ATOM      8  N   UNL     1      45.122   5.081  12.005  0.00  0.00    +0.000 N 
ATOM      9  C   UNL     1      48.080   6.302  13.543  0.00  0.00    +0.000 A 
ENDROOT
BRANCH   1  11
ATOM     10  N   UNL     1      50.275   8.666  12.420  0.00  0.00    +0.000 N 
ATOM     11  C   UNL     1      49.264   8.521  13.329  0.00  0.00    +0.000 C 
ATOM     12  O   UNL     1      49.254   9.160  14.370  0.00  0.00    +0.000 OA
ATOM     13  H   UNL     1      50.969   9.373  12.630  0.00  0.00    +0.000 HD
ATOM     14  H   UNL     1      50.207   8.347  11.464  0.00  0.00    +0.000 HD
ENDBRANCH   1  11
BRANCH   8  15
ATOM     15  C   UNL     1      44.043   5.195  11.043  0.00  0.00    +0.000 C 
BRANCH  15  16
ATOM     16  C   UNL     1      44.163   4.290   9.795  0.00  0.00    +0.000 C 
ATOM     17  C   UNL     1      44.166   2.798  10.177  0.00  0.00    +0.000 C 
ATOM     18  C   UNL     1      44.599   1.872   9.046  0.00  0.00    +0.000 C 
ATOM     19  C   UNL     1      45.934   2.297   8.456  0.00  0.00    +0.000 C 
ATOM     20  C   UNL     1      45.853   3.724   7.933  0.00  0.00    +0.000 C 
ATOM     21  C   UNL     1      45.439   4.699   9.030  0.00  0.00    +0.000 C 
ENDBRANCH  15  16
ENDBRANCH   8  15
TORSDOF 3
ENDMDL
MODEL 5
REMARK VINA RESULT:    -6.010      4.218      7.805
REMARK INTER + INTRA:          -7.395
REMARK INTER:                  -7.049
REMARK INTRA:                  -0.346
REMARK UNBOUND:                -0.331
REMARK  Name = 
REMARK  3 active torsions:
REMARK  status: ('A' for Active; 'I' for Inactive)
REMARK    1  A    between atoms: C_2  and  C_4
REMARK    2  A    between atoms: N_11  and  C_12
REMARK    3  A    between atoms: C_12  and  C_13
REMARK                            x       y       z     vdW  Elec       q    Type
REMARK                         _______ _______ _______ _____ _____    ______ ____
ROOT
ATOM      1  C   UNL     1      45.178   4.974  11.398  0.00  0.00    +0.000 A 
ATOM      2  C   UNL     1      44.982   4.060  12.431  0.00  0.00    +0.000 A 
ATOM      3  N   UNL     1      45.656   4.035  13.612  0.00  0.00    +0.000 NA
ATOM      4  C   UNL     1      46.566   5.025  13.718  0.00  0.00    +0.000 A 
ATOM      5  C   UNL     1      46.855   6.003  12.766  0.00  0.00    +0.000 A 
ATOM      6  C   UNL     1      47.886   6.819  13.301  0.00  0.00    +0.000 A 
ATOM      7  C   UNL     1      48.212   6.315  14.541  0.00  0.00    +0.000 A 
ATOM      8  N   UNL     1      47.394   5.238  14.795  0.00  0.00    +0.000 N 
ATOM      9  C   UNL     1      46.133   5.982  11.560  0.00  0.00    +0.000 A 
ENDROOT
BRANCH   1  11
ATOM     10  N   UNL     1      45.004   4.718   8.983  0.00  0.00    +0.000 N 
ATOM     11  C   UNL     1      44.351   4.851  10.177  0.00  0.00    +0.000 C 
ATOM     12  O   UNL     1      43.130   4.845  10.232  0.00  0.00    +0.000 OA
ATOM     13  H   UNL     1      44.425   4.550   8.170  0.00  0.00    +0.000 HD
ATOM     14  H   UNL     1      45.984   4.483   8.915  0.00  0.00    +0.000 HD
ENDBRANCH   1  11
BRANCH   8  15
ATOM     15  C   UNL     1      47.490   4.382  15.962  0.00  0.00    +0.000 C 
BRANCH  15  16
ATOM     16  C   UNL     1      48.226   4.991  17.178  0.00  0.00    +0.000 C 
ATOM     17  C   UNL     1      49.387   4.093  17.643  0.00  0.00    +0.000 C 
ATOM     18  C   UNL     1      49.944   4.464  19.014  0.00  0.00    +0.000 C 
ATOM     19  C   UNL     1      48.844   4.541  20.061  0.00  0.00    +0.000 C 
ATOM     20  C   UNL     1      47.792   5.561  19.653  0.00  0.00    +0.000 C 
ATOM     21  C   UNL     1      47.187   5.228  18.294  0.00  0.00    +0.000 C 
ENDBRANCH  15  16
ENDBRANCH   8  15
TORSDOF 3
ENDMDL
MODEL 6
REMARK VINA RESULT:    -5.968      3.861      5.222
REMARK INTER + INTRA:          -7.346
REMARK INTER:                  -7.013
REMARK INTRA:                  -0.333
REMARK UNBOUND:                -0.331
REMARK  Name = 
REMARK  3 active torsions:
REMARK  status: ('A' for Active; 'I' for Inactive)
REMARK    1  A    between atoms: C_2  and  C_4
REMARK    2  A    between atoms: N_11  and  C_12
REMARK    3  A    between atoms: C_12  and  C_13
REMARK                            x       y       z     vdW  Elec       q    Type
REMARK                         _______ _______ _______ _____ _____    ______ ____
ROOT
ATOM      1  C   UNL     1      48.506   4.367  17.193  0.00  0.00    +0.000 A 
ATOM      2  C   UNL     1      47.423   3.664  16.670  0.00  0.00    +0.000 A 
ATOM      3  N   UNL     1      46.727   3.991  15.549  0.00  0.00    +0.000 NA
ATOM      4  C   UNL     1      47.200   5.098  14.941  0.00  0.00    +0.000 A 
ATOM      5  C   UNL     1      48.274   5.886  15.355  0.00  0.00    +0.000 A 
ATOM      6  C   UNL     1      48.399   6.948  14.421  0.00  0.00    +0.000 A 
ATOM      7  C   UNL     1      47.399   6.798  13.485  0.00  0.00    +0.000 A 
ATOM      8  N   UNL     1      46.688   5.662  13.796  0.00  0.00    +0.000 N 
ATOM      9  C   UNL     1      48.958   5.507  16.522  0.00  0.00    +0.000 A 
ENDROOT
BRANCH   1  11
ATOM     10  N   UNL     1      48.381   3.114  19.277  0.00  0.00    +0.000 N 
ATOM     11  C   UNL     1      49.147   3.865  18.429  0.00  0.00    +0.000 C 
ATOM     12  O   UNL     1      50.322   4.093  18.675  0.00  0.00    +0.000 OA
ATOM     13  H   UNL     1      48.858   2.709  20.073  0.00  0.00    +0.000 HD
ATOM     14  H   UNL     1      47.496   2.710  19.007  0.00  0.00    +0.000 HD
ENDBRANCH   1  11
BRANCH   8  15
ATOM     15  C   UNL     1      45.498   5.213  13.099  0.00  0.00    +0.000 C 
BRANCH  15  16
ATOM     16  C   UNL     1      45.739   4.568  11.714  0.00  0.00    +0.000 C 
ATOM     17  C   UNL     1      45.625   5.605  10.581  0.00  0.00    +0.000 C 
ATOM     18  C   UNL     1      45.533   4.990   9.189  0.00  0.00    +0.000 C 
ATOM     19  C   UNL     1      44.424   3.953   9.109  0.00  0.00    +0.000 C 
ATOM     20  C   UNL     1      44.654   2.849  10.131  0.00  0.00    +0.000 C 
ATOM     21  C   UNL     1      44.737   3.408  11.548  0.00  0.00    +0.000 C 
ENDBRANCH  15  16
ENDBRANCH   8  15
TORSDOF 3
ENDMDL
MODEL 7
REMARK VINA RESULT:    -5.950      3.260      6.403
REMARK INTER + INTRA:          -7.324
REMARK INTER:                  -6.940
REMARK INTRA:                  -0.384
REMARK UNBOUND:                -0.331
REMARK  Name = 
REMARK  3 active torsions:
REMARK  status: ('A' for Active; 'I' for Inactive)
REMARK    1  A    between atoms: C_2  and  C_4
REMARK    2  A    between atoms: N_11  and  C_12
REMARK    3  A    between atoms: C_12  and  C_13
REMARK                            x       y       z     vdW  Elec       q    Type
REMARK                         _______ _______ _______ _____ _____    ______ ____
ROOT
ATOM      1  C   UNL     1      44.920   3.894  11.350  0.00  0.00    +0.000 A 
ATOM      2  C   UNL     1      45.145   5.008  10.544  0.00  0.00    +0.000 A 
ATOM      3  N   UNL     1      45.920   6.079  10.862  0.00  0.00    +0.000 NA
ATOM      4  C   UNL     1      46.498   5.968  12.075  0.00  0.00    +0.000 A 
ATOM      5  C   UNL     1      46.361   4.909  12.974  0.00  0.00    +0.000 A 
ATOM      6  C   UNL     1      47.134   5.229  14.120  0.00  0.00    +0.000 A 
ATOM      7  C   UNL     1      47.699   6.467  13.908  0.00  0.00    +0.000 A 
ATOM      8  N   UNL     1      47.324   6.900  12.657  0.00  0.00    +0.000 N 
ATOM      9  C   UNL     1      45.546   3.828  12.598  0.00  0.00    +0.000 A 
ENDROOT
BRANCH   1  11
ATOM     10  N   UNL     1      44.474   2.113   9.751  0.00  0.00    +0.000 N 
ATOM     11  C   UNL     1      44.043   2.817  10.841  0.00  0.00    +0.000 C 
ATOM     12  O   UNL     1      42.983   2.548  11.387  0.00  0.00    +0.000 OA
ATOM     13  H   UNL     1      43.903   1.326   9.469  0.00  0.00    +0.000 HD
ATOM     14  H   UNL     1      45.428   2.140   9.420  0.00  0.00    +0.000 HD
ENDBRANCH   1  11
BRANCH   8  15
ATOM     15  C   UNL     1      47.643   8.201  12.101  0.00  0.00    +0.000 C 
BRANCH  15  16
ATOM     16  C   UNL     1      49.120   8.638  12.228  0.00  0.00    +0.000 C 
ATOM     17  C   UNL     1      49.319  10.098  11.778  0.00  0.00    +0.000 C 
ATOM     18  C   UNL     1      50.779  10.488  11.575  0.00  0.00    +0.000 C 
ATOM     19  C   UNL     1      51.492   9.517  10.648  0.00  0.00    +0.000 C 
ATOM     20  C   UNL     1      51.423   8.102  11.204  0.00  0.00    +0.000 C 
ATOM     21  C   UNL     1      49.981   7.653  11.412  0.00  0.00    +0.000 C 
ENDBRANCH  15  16
ENDBRANCH   8  15
TORSDOF 3
ENDMDL
MODEL 8
REMARK VINA RESULT:    -5.866      1.713      2.083
REMARK INTER + INTRA:          -7.226
REMARK INTER:                  -7.027
REMARK INTRA:                  -0.199
REMARK UNBOUND:                -0.331
REMARK  Name = 
REMARK  3 active torsions:
REMARK  status: ('A' for Active; 'I' for Inactive)
REMARK    1  A    between atoms: C_2  and  C_4
REMARK    2  A    between atoms: N_11  and  C_12
REMARK    3  A    between atoms: C_12  and  C_13
REMARK                            x       y       z     vdW  Elec       q    Type
REMARK                         _______ _______ _______ _____ _____    ______ ____
ROOT
ATOM      1  C   UNL     1      45.033   7.760  11.627  0.00  0.00    +0.000 A 
ATOM      2  C   UNL     1      46.101   7.035  11.102  0.00  0.00    +0.000 A 
ATOM      3  N   UNL     1      46.068   5.731  10.719  0.00  0.00    +0.000 NA
ATOM      4  C   UNL     1      44.854   5.166  10.881  0.00  0.00    +0.000 A 
ATOM      5  C   UNL     1      43.707   5.778  11.387  0.00  0.00    +0.000 A 
ATOM      6  C   UNL     1      42.676   4.802  11.386  0.00  0.00    +0.000 A 
ATOM      7  C   UNL     1      43.215   3.629  10.908  0.00  0.00    +0.000 A 
ATOM      8  N   UNL     1      44.532   3.863  10.585  0.00  0.00    +0.000 N 
ATOM      9  C   UNL     1      43.795   7.127  11.772  0.00  0.00    +0.000 A 
ENDROOT
BRANCH   1  11
ATOM     10  N   UNL     1      46.118   9.440  13.015  0.00  0.00    +0.000 N 
ATOM     11  C   UNL     1      45.249   9.177  11.992  0.00  0.00    +0.000 C 
ATOM     12  O   UNL     1      44.691  10.082  11.390  0.00  0.00    +0.000 OA
ATOM     13  H   UNL     1      46.318  10.416  13.194  0.00  0.00    +0.000 HD
ATOM     14  H   UNL     1      46.768   8.756  13.375  0.00  0.00    +0.000 HD
ENDBRANCH   1  11
BRANCH   8  15
ATOM     15  C   UNL     1      45.467   2.850  10.132  0.00  0.00    +0.000 C 
BRANCH  15  16
ATOM     16  C   UNL     1      45.532   2.638   8.602  0.00  0.00    +0.000 C 
ATOM     17  C   UNL     1      46.313   1.360   8.242  0.00  0.00    +0.000 C 
ATOM     18  C   UNL     1      46.688   1.262   6.767  0.00  0.00    +0.000 C 
ATOM     19  C   UNL     1      47.413   2.511   6.291  0.00  0.00    +0.000 C 
ATOM     20  C   UNL     1      46.547   3.743   6.507  0.00  0.00    +0.000 C 
ATOM     21  C   UNL     1      46.155   3.900   7.972  0.00  0.00    +0.000 C 
ENDBRANCH  15  16
ENDBRANCH   8  15
TORSDOF 3
ENDMDL
MODEL 9
REMARK VINA RESULT:    -5.734      3.359      6.575
REMARK INTER + INTRA:          -7.070
REMARK INTER:                  -6.608
REMARK INTRA:                  -0.462
REMARK UNBOUND:                -0.331
REMARK  Name = 
REMARK  3 active torsions:
REMARK  status: ('A' for Active; 'I' for Inactive)
REMARK    1  A    between atoms: C_2  and  C_4
REMARK    2  A    between atoms: N_11  and  C_12
REMARK    3  A    between atoms: C_12  and  C_13
REMARK                            x       y       z     vdW  Elec       q    Type
REMARK                         _______ _______ _______ _____ _____    ______ ____
ROOT
ATOM      1  C   UNL     1      44.515   4.162  11.530  0.00  0.00    +0.000 A 
ATOM      2  C   UNL     1      45.589   4.122  12.417  0.00  0.00    +0.000 A 
ATOM      3  N   UNL     1      46.250   5.199  12.918  0.00  0.00    +0.000 NA
ATOM      4  C   UNL     1      45.750   6.373  12.480  0.00  0.00    +0.000 A 
ATOM      5  C   UNL     1      44.681   6.552  11.601  0.00  0.00    +0.000 A 
ATOM      6  C   UNL     1      44.520   7.950  11.416  0.00  0.00    +0.000 A 
ATOM      7  C   UNL     1      45.494   8.582  12.158  0.00  0.00    +0.000 A 
ATOM      8  N   UNL     1      46.224   7.619  12.816  0.00  0.00    +0.000 N 
ATOM      9  C   UNL     1      44.034   5.406  11.109  0.00  0.00    +0.000 A 
ENDROOT
BRANCH   1  11
ATOM     10  N   UNL     1      44.473   2.270  10.000  0.00  0.00    +0.000 N 
ATOM     11  C   UNL     1      43.915   2.885  11.085  0.00  0.00    +0.000 C 
ATOM     12  O   UNL     1      42.970   2.385  11.678  0.00  0.00    +0.000 OA
ATOM     13  H   UNL     1      44.104   1.357   9.762  0.00  0.00    +0.000 HD
ATOM     14  H   UNL     1      45.380   2.517   9.632  0.00  0.00    +0.000 HD
ENDBRANCH   1  11
BRANCH   8  15
ATOM     15  C   UNL     1      47.397   7.880  13.627  0.00  0.00    +0.000 C 
BRANCH  15  16
ATOM     16  C   UNL     1      48.572   8.573  12.899  0.00  0.00    +0.000 C 
ATOM     17  C   UNL     1      49.232   7.633  11.872  0.00  0.00    +0.000 C 
ATOM     18  C   UNL     1      50.578   8.131  11.356  0.00  0.00    +0.000 C 
ATOM     19  C   UNL     1      51.526   8.463  12.498  0.00  0.00    +0.000 C 
ATOM     20  C   UNL     1      50.915   9.520  13.406  0.00  0.00    +0.000 C 
ATOM     21  C   UNL     1      49.571   9.066  13.966  0.00  0.00    +0.000 C 
ENDBRANCH  15  16
ENDBRANCH   8  15
TORSDOF 3
ENDMDL
