MODEL 1
REMARK VINA RESULT:    -7.895      0.000      0.000
REMARK INTER + INTRA:         -12.535
REMARK INTER:                 -11.356
REMARK INTRA:                  -1.179
REMARK UNBOUND:                -1.179
REMARK  Name = 
REMARK  8 active torsions:
REMARK  status: ('A' for Active; 'I' for Inactive)
REMARK    1  A    between atoms: N_1  and  C_2
REMARK    2  A    between atoms: C_2  and  C_3
REMARK    3  A    between atoms: C_3  and  N_4
REMARK    4  A    between atoms: C_3  and  C_17
REMARK    5  A    between atoms: C_5  and  C_7
REMARK    6  A    between atoms: C_20  and  C_21
REMARK    7  A    between atoms: C_21  and  N_22
REMARK    8  A    between atoms: C_23  and  C_25
REMARK                            x       y       z     vdW  Elec       q    Type
REMARK                         _______ _______ _______ _____ _____    ______ ____
ROOT
ATOM      1  C   UNL     1      47.933   7.158  13.841  0.00  0.00    +0.000 C 
ENDROOT
BRANCH   1   2
ATOM      2  C   UNL     1      46.914   6.419  12.962  0.00  0.00    +0.000 A 
ATOM      3  C   UNL     1      46.527   5.109  13.280  0.00  0.00    +0.000 A 
ATOM      4  C   UNL     1      45.607   4.409  12.483  0.00  0.00    +0.000 A 
ATOM      5  C   UNL     1      45.052   4.998  11.341  0.00  0.00    +0.000 A 
ATOM      6  C   UNL     1      45.407   6.320  11.039  0.00  0.00    +0.000 A 
ATOM      7  C   UNL     1      46.329   7.019  11.835  0.00  0.00    +0.000 A 
BRANCH   5   8
ATOM      8  C   UNL     1      44.113   4.218  10.449  0.00  0.00    +0.000 C 
BRANCH   8   9
ATOM      9  N   UNL     1      44.791   3.205   9.676  0.00  0.00    +0.000 N 
ATOM     10  C   UNL     1      45.462   3.525   8.513  0.00  0.00    +0.000 C 
ATOM     11  O   UNL     1      45.479   4.662   8.054  0.00  0.00    +0.000 OA
ATOM     12  H   UNL     1      44.877   2.282  10.069  0.00  0.00    +0.000 HD
BRANCH  10  13
ATOM     13  C   UNL     1      46.152   2.434   7.871  0.00  0.00    +0.000 A 
ATOM     14  C   UNL     1      46.971   2.361   6.762  0.00  0.00    +0.000 A 
ATOM     15  N   UNL     1      47.399   1.077   6.534  0.00  0.00    +0.000 NA
ATOM     16  C   UNL     1      46.857   0.360   7.491  0.00  0.00    +0.000 A 
ATOM     17  N   UNL     1      46.100   1.132   8.324  0.00  0.00    +0.000 N 
ATOM     18  H   UNL     1      45.586   0.816   9.136  0.00  0.00    +0.000 HD
ENDBRANCH  10  13
ENDBRANCH   8   9
ENDBRANCH   5   8
ENDBRANCH   1   2
BRANCH   1  19
ATOM     19  N   UNL     1      47.902   6.599  15.190  0.00  0.00    +0.000 N 
ATOM     20  C   UNL     1      49.047   6.317  15.898  0.00  0.00    +0.000 C 
ATOM     21  O   UNL     1      50.167   6.641  15.521  0.00  0.00    +0.000 OA
ATOM     22  H   UNL     1      47.059   6.085  15.428  0.00  0.00    +0.000 HD
BRANCH  20  23
ATOM     23  C   UNL     1      48.861   5.625  17.176  0.00  0.00    +0.000 A 
ATOM     24  C   UNL     1      49.043   4.251  17.265  0.00  0.00    +0.000 A 
ATOM     25  S   UNL     1      48.696   3.623  18.814  0.00  0.00    +0.000 S 
ATOM     26  C   UNL     1      48.262   5.161  19.400  0.00  0.00    +0.000 A 
ATOM     27  N   UNL     1      47.792   5.327  20.666  0.00  0.00    +0.000 NA
ATOM     28  C   UNL     1      47.468   6.543  20.958  0.00  0.00    +0.000 A 
ATOM     29  N   UNL     1      47.597   7.612  20.108  0.00  0.00    +0.000 N 
ATOM     30  C   UNL     1      48.123   7.502  18.848  0.00  0.00    +0.000 A 
ATOM     31  O   UNL     1      48.335   8.491  18.156  0.00  0.00    +0.000 OA
ATOM     32  C   UNL     1      48.437   6.146  18.447  0.00  0.00    +0.000 A 
ATOM     33  H   UNL     1      47.368   8.548  20.415  0.00  0.00    +0.000 HD
ENDBRANCH  20  23
ENDBRANCH   1  19
BRANCH   1  34
ATOM     34  C   UNL     1      47.714   8.702  13.853  0.00  0.00    +0.000 C 
BRANCH  34  35
ATOM     35  N   UNL     1      47.435   9.280  15.173  0.00  0.00    +0.000 NA
ATOM     36  H   UNL     1      47.096  10.233  15.041  0.00  0.00    +0.000 HD
ATOM     37  H   UNL     1      48.304   9.350  15.701  0.00  0.00    +0.000 HD
ENDBRANCH  34  35
ENDBRANCH   1  34
TORSDOF 8
ENDMDL
MODEL 2
REMARK VINA RESULT:    -7.662      2.633      4.079
REMARK INTER + INTRA:         -12.200
REMARK INTER:                 -11.037
REMARK INTRA:                  -1.163
REMARK UNBOUND:                -1.179
REMARK  Name = 
REMARK  8 active torsions:
REMARK  status: ('A' for Active; 'I' for Inactive)
REMARK    1  A    between atoms: N_1  and  C_2
REMARK    2  A    between atoms: C_2  and  C_3
REMARK    3  A    between atoms: C_3  and  N_4
REMARK    4  A    between atoms: C_3  and  C_17
REMARK    5  A    between atoms: C_5  and  C_7
REMARK    6  A    between atoms: C_20  and  C_21
REMARK    7  A    between atoms: C_21  and  N_22
REMARK    8  A    between atoms: C_23  and  C_25
REMARK                            x       y       z     vdW  Elec       q    Type
REMARK                         _______ _______ _______ _____ _____    ______ ____
ROOT
ATOM      1  C   UNL     1      46.840   4.976  14.893  0.00  0.00    +0.000 C 
ENDROOT
BRANCH   1   2
ATOM      2  C   UNL     1      46.066   4.767  13.584  0.00  0.00    +0.000 A 
ATOM      3  C   UNL     1      45.903   3.477  13.058  0.00  0.00    +0.000 A 
ATOM      4  C   UNL     1      45.212   3.263  11.856  0.00  0.00    +0.000 A 
ATOM      5  C   UNL     1      44.667   4.336  11.140  0.00  0.00    +0.000 A 
ATOM      6  C   UNL     1      44.794   5.623  11.679  0.00  0.00    +0.000 A 
ATOM      7  C   UNL     1      45.489   5.837  12.880  0.00  0.00    +0.000 A 
BRANCH   5   8
ATOM      8  C   UNL     1      43.981   4.108   9.813  0.00  0.00    +0.000 C 
BRANCH   8   9
ATOM      9  N   UNL     1      44.789   3.348   8.890  0.00  0.00    +0.000 N 
ATOM     10  C   UNL     1      45.814   3.943   8.181  0.00  0.00    +0.000 C 
ATOM     11  O   UNL     1      46.060   5.142   8.260  0.00  0.00    +0.000 OA
ATOM     12  H   UNL     1      44.677   2.348   8.869  0.00  0.00    +0.000 HD
BRANCH  10  13
ATOM     13  C   UNL     1      46.586   3.060   7.343  0.00  0.00    +0.000 A 
ATOM     14  C   UNL     1      47.007   1.754   7.490  0.00  0.00    +0.000 A 
ATOM     15  N   UNL     1      47.733   1.332   6.404  0.00  0.00    +0.000 NA
ATOM     16  C   UNL     1      47.760   2.361   5.590  0.00  0.00    +0.000 A 
ATOM     17  N   UNL     1      47.080   3.424   6.109  0.00  0.00    +0.000 N 
ATOM     18  H   UNL     1      46.954   4.329   5.672  0.00  0.00    +0.000 HD
ENDBRANCH  10  13
ENDBRANCH   8   9
ENDBRANCH   5   8
ENDBRANCH   1   2
BRANCH   1  19
ATOM     19  N   UNL     1      47.953   5.890  14.654  0.00  0.00    +0.000 N 
ATOM     20  C   UNL     1      48.667   6.465  15.680  0.00  0.00    +0.000 C 
ATOM     21  O   UNL     1      48.527   6.150  16.856  0.00  0.00    +0.000 OA
ATOM     22  H   UNL     1      47.936   6.373  13.761  0.00  0.00    +0.000 HD
BRANCH  20  23
ATOM     23  C   UNL     1      49.657   7.472  15.291  0.00  0.00    +0.000 A 
ATOM     24  C   UNL     1      51.000   7.293  15.594  0.00  0.00    +0.000 A 
ATOM     25  S   UNL     1      51.980   8.614  15.137  0.00  0.00    +0.000 S 
ATOM     26  C   UNL     1      50.635   9.477  14.551  0.00  0.00    +0.000 A 
ATOM     27  N   UNL     1      50.764  10.743  14.070  0.00  0.00    +0.000 NA
ATOM     28  C   UNL     1      49.652  11.286  13.695  0.00  0.00    +0.000 A 
ATOM     29  N   UNL     1      48.428  10.668  13.734  0.00  0.00    +0.000 N 
ATOM     30  C   UNL     1      48.261   9.374  14.152  0.00  0.00    +0.000 A 
ATOM     31  O   UNL     1      47.176   8.810  14.065  0.00  0.00    +0.000 OA
ATOM     32  C   UNL     1      49.467   8.744  14.648  0.00  0.00    +0.000 A 
ATOM     33  H   UNL     1      47.603  11.132  13.382  0.00  0.00    +0.000 HD
ENDBRANCH  20  23
ENDBRANCH   1  19
BRANCH   1  34
ATOM     34  C   UNL     1      47.323   3.636  15.529  0.00  0.00    +0.000 C 
BRANCH  34  35
ATOM     35  N   UNL     1      46.853   3.392  16.898  0.00  0.00    +0.000 NA
ATOM     36  H   UNL     1      46.444   2.459  16.936  0.00  0.00    +0.000 HD
ATOM     37  H   UNL     1      46.104   4.048  17.119  0.00  0.00    +0.000 HD
ENDBRANCH  34  35
ENDBRANCH   1  34
TORSDOF 8
ENDMDL
MODEL 3
REMARK VINA RESULT:    -7.450      2.740      4.579
REMARK INTER + INTRA:         -11.895
REMARK INTER:                 -10.733
REMARK INTRA:                  -1.162
REMARK UNBOUND:                -1.179
REMARK  Name = 
REMARK  8 active torsions:
REMARK  status: ('A' for Active; 'I' for Inactive)
REMARK    1  A    between atoms: N_1  and  C_2
REMARK    2  A    between atoms: C_2  and  C_3
REMARK    3  A    between atoms: C_3  and  N_4
REMARK    4  A    between atoms: C_3  and  C_17
REMARK    5  A    between atoms: C_5  and  C_7
REMARK    6  A    between atoms: C_20  and  C_21
REMARK    7  A    between atoms: C_21  and  N_22
REMARK    8  A    between atoms: C_23  and  C_25
REMARK                            x       y       z     vdW  Elec       q    Type
REMARK                         _______ _______ _______ _____ _____    ______ ____
ROOT
ATOM      1  C   UNL     1      47.082   5.063  14.897  0.00  0.00    +0.000 C 
ENDROOT
BRANCH   1   2
ATOM      2  C   UNL     1      46.254   4.802  13.631  0.00  0.00    +0.000 A 
ATOM      3  C   UNL     1      46.109   3.496  13.139  0.00  0.00    +0.000 A 
ATOM      4  C   UNL     1      45.368   3.235  11.977  0.00  0.00    +0.000 A 
ATOM      5  C   UNL     1      44.755   4.275  11.267  0.00  0.00    +0.000 A 
ATOM      6  C   UNL     1      44.865   5.577  11.773  0.00  0.00    +0.000 A 
ATOM      7  C   UNL     1      45.609   5.838  12.935  0.00  0.00    +0.000 A 
BRANCH   5   8
ATOM      8  C   UNL     1      44.014   3.997   9.979  0.00  0.00    +0.000 C 
BRANCH   8   9
ATOM      9  N   UNL     1      44.811   3.266   9.023  0.00  0.00    +0.000 N 
ATOM     10  C   UNL     1      45.762   3.902   8.250  0.00  0.00    +0.000 C 
ATOM     11  O   UNL     1      45.945   5.114   8.298  0.00  0.00    +0.000 OA
ATOM     12  H   UNL     1      44.753   2.261   9.023  0.00  0.00    +0.000 HD
BRANCH  10  13
ATOM     13  C   UNL     1      46.534   3.048   7.383  0.00  0.00    +0.000 A 
ATOM     14  C   UNL     1      46.992   1.752   7.505  0.00  0.00    +0.000 A 
ATOM     15  N   UNL     1      47.699   1.360   6.396  0.00  0.00    +0.000 NA
ATOM     16  C   UNL     1      47.679   2.397   5.593  0.00  0.00    +0.000 A 
ATOM     17  N   UNL     1      46.986   3.438   6.140  0.00  0.00    +0.000 N 
ATOM     18  H   UNL     1      46.824   4.342   5.716  0.00  0.00    +0.000 HD
ENDBRANCH  10  13
ENDBRANCH   8   9
ENDBRANCH   5   8
ENDBRANCH   1   2
BRANCH   1  19
ATOM     19  N   UNL     1      48.319   5.749  14.531  0.00  0.00    +0.000 N 
ATOM     20  C   UNL     1      48.905   6.692  15.343  0.00  0.00    +0.000 C 
ATOM     21  O   UNL     1      48.528   6.926  16.485  0.00  0.00    +0.000 OA
ATOM     22  H   UNL     1      48.513   5.795  13.536  0.00  0.00    +0.000 HD
BRANCH  20  23
ATOM     23  C   UNL     1      50.058   7.400  14.780  0.00  0.00    +0.000 A 
ATOM     24  C   UNL     1      51.260   7.451  15.473  0.00  0.00    +0.000 A 
ATOM     25  S   UNL     1      52.451   8.394  14.694  0.00  0.00    +0.000 S 
ATOM     26  C   UNL     1      51.385   8.789  13.426  0.00  0.00    +0.000 A 
ATOM     27  N   UNL     1      51.757   9.640  12.431  0.00  0.00    +0.000 NA
ATOM     28  C   UNL     1      50.833   9.874  11.560  0.00  0.00    +0.000 A 
ATOM     29  N   UNL     1      49.580   9.315  11.578  0.00  0.00    +0.000 N 
ATOM     30  C   UNL     1      49.184   8.406  12.524  0.00  0.00    +0.000 A 
ATOM     31  O   UNL     1      48.103   7.836  12.447  0.00  0.00    +0.000 OA
ATOM     32  C   UNL     1      50.162   8.162  13.565  0.00  0.00    +0.000 A 
ATOM     33  H   UNL     1      48.917   9.505  10.839  0.00  0.00    +0.000 HD
ENDBRANCH  20  23
ENDBRANCH   1  19
BRANCH   1  34
ATOM     34  C   UNL     1      47.366   3.764  15.712  0.00  0.00    +0.000 C 
BRANCH  34  35
ATOM     35  N   UNL     1      46.707   3.694  17.021  0.00  0.00    +0.000 NA
ATOM     36  H   UNL     1      46.405   2.733  17.178  0.00  0.00    +0.000 HD
ATOM     37  H   UNL     1      45.864   4.266  17.005  0.00  0.00    +0.000 HD
ENDBRANCH  34  35
ENDBRANCH   1  34
TORSDOF 8
ENDMDL
MODEL 4
REMARK VINA RESULT:    -7.448      1.286      1.878
REMARK INTER + INTRA:         -11.893
REMARK INTER:                 -10.869
REMARK INTRA:                  -1.024
REMARK UNBOUND:                -1.179
REMARK  Name = 
REMARK  8 active torsions:
REMARK  status: ('A' for Active; 'I' for Inactive)
REMARK    1  A    between atoms: N_1  and  C_2
REMARK    2  A    between atoms: C_2  and  C_3
REMARK    3  A    between atoms: C_3  and  N_4
REMARK    4  A    between atoms: C_3  and  C_17
REMARK    5  A    between atoms: C_5  and  C_7
REMARK    6  A    between atoms: C_20  and  C_21
REMARK    7  A    between atoms: C_21  and  N_22
REMARK    8  A    between atoms: C_23  and  C_25
REMARK                            x       y       z     vdW  Elec       q    Type
REMARK                         _______ _______ _______ _____ _____    ______ ____
ROOT
ATOM      1  C   UNL     1      48.176   7.653  13.602  0.00  0.00    +0.000 C 
ENDROOT
BRANCH   1   2
ATOM      2  C   UNL     1      47.160   6.747  12.892  0.00  0.00    +0.000 A 
ATOM      3  C   UNL     1      47.007   5.410  13.292  0.00  0.00    +0.000 A 
ATOM      4  C   UNL     1      46.095   4.559  12.649  0.00  0.00    +0.000 A 
ATOM      5  C   UNL     1      45.313   5.018  11.582  0.00  0.00    +0.000 A 
ATOM      6  C   UNL     1      45.435   6.362  11.202  0.00  0.00    +0.000 A 
ATOM      7  C   UNL     1      46.350   7.212  11.844  0.00  0.00    +0.000 A 
BRANCH   5   8
ATOM      8  C   UNL     1      44.381   4.081  10.849  0.00  0.00    +0.000 C 
BRANCH   8   9
ATOM      9  N   UNL     1      45.084   3.123  10.029  0.00  0.00    +0.000 N 
ATOM     10  C   UNL     1      45.442   3.423   8.730  0.00  0.00    +0.000 C 
ATOM     11  O   UNL     1      45.146   4.485   8.194  0.00  0.00    +0.000 OA
ATOM     12  H   UNL     1      45.423   2.281  10.463  0.00  0.00    +0.000 HD
BRANCH  10  13
ATOM     13  C   UNL     1      46.196   2.406   8.042  0.00  0.00    +0.000 A 
ATOM     14  C   UNL     1      47.190   2.458   7.085  0.00  0.00    +0.000 A 
ATOM     15  N   UNL     1      47.611   1.202   6.725  0.00  0.00    +0.000 NA
ATOM     16  C   UNL     1      46.891   0.379   7.451  0.00  0.00    +0.000 A 
ATOM     17  N   UNL     1      46.028   1.055   8.263  0.00  0.00    +0.000 N 
ATOM     18  H   UNL     1      45.373   0.648   8.918  0.00  0.00    +0.000 HD
ENDBRANCH  10  13
ENDBRANCH   8   9
ENDBRANCH   5   8
ENDBRANCH   1   2
BRANCH   1  19
ATOM     19  N   UNL     1      48.000   7.537  15.047  0.00  0.00    +0.000 N 
ATOM     20  C   UNL     1      48.970   7.009  15.866  0.00  0.00    +0.000 C 
ATOM     21  O   UNL     1      50.100   6.734  15.481  0.00  0.00    +0.000 OA
ATOM     22  H   UNL     1      47.037   7.495  15.366  0.00  0.00    +0.000 HD
BRANCH  20  23
ATOM     23  C   UNL     1      48.596   6.820  17.270  0.00  0.00    +0.000 A 
ATOM     24  C   UNL     1      48.189   7.901  18.042  0.00  0.00    +0.000 A 
ATOM     25  S   UNL     1      47.880   7.491  19.670  0.00  0.00    +0.000 S 
ATOM     26  C   UNL     1      48.312   5.867  19.399  0.00  0.00    +0.000 A 
ATOM     27  N   UNL     1      48.335   4.964  20.417  0.00  0.00    +0.000 NA
ATOM     28  C   UNL     1      48.717   3.780  20.068  0.00  0.00    +0.000 A 
ATOM     29  N   UNL     1      49.053   3.411  18.791  0.00  0.00    +0.000 N 
ATOM     30  C   UNL     1      48.985   4.270  17.726  0.00  0.00    +0.000 A 
ATOM     31  O   UNL     1      49.178   3.882  16.579  0.00  0.00    +0.000 OA
ATOM     32  C   UNL     1      48.628   5.629  18.075  0.00  0.00    +0.000 A 
ATOM     33  H   UNL     1      49.301   2.455  18.576  0.00  0.00    +0.000 HD
ENDBRANCH  20  23
ENDBRANCH   1  19
BRANCH   1  34
ATOM     34  C   UNL     1      48.092   9.138  13.131  0.00  0.00    +0.000 C 
BRANCH  34  35
ATOM     35  N   UNL     1      48.270  10.138  14.190  0.00  0.00    +0.000 NA
ATOM     36  H   UNL     1      48.967  10.814  13.880  0.00  0.00    +0.000 HD
ATOM     37  H   UNL     1      48.651   9.685  15.020  0.00  0.00    +0.000 HD
ENDBRANCH  34  35
ENDBRANCH   1  34
TORSDOF 8
ENDMDL
MODEL 5
REMARK VINA RESULT:    -7.296      3.009      4.660
REMARK INTER + INTRA:         -11.674
REMARK INTER:                 -10.255
REMARK INTRA:                  -1.419
REMARK UNBOUND:                -1.179
REMARK  Name = 
REMARK  8 active torsions:
REMARK  status: ('A' for Active; 'I' for Inactive)
REMARK    1  A    between atoms: N_1  and  C_2
REMARK    2  A    between atoms: C_2  and  C_3
REMARK    3  A    between atoms: C_3  and  N_4
REMARK    4  A    between atoms: C_3  and  C_17
REMARK    5  A    between atoms: C_5  and  C_7
REMARK    6  A    between atoms: C_20  and  C_21
REMARK    7  A    between atoms: C_21  and  N_22
REMARK    8  A    between atoms: C_23  and  C_25
REMARK                            x       y       z     vdW  Elec       q    Type
REMARK                         _______ _______ _______ _____ _____    ______ ____
ROOT
ATOM      1  C   UNL     1      47.112   5.763  14.586  0.00  0.00    +0.000 C 
ENDROOT
BRANCH   1   2
ATOM      2  C   UNL     1      46.289   5.187  13.426  0.00  0.00    +0.000 A 
ATOM      3  C   UNL     1      46.254   3.802  13.205  0.00  0.00    +0.000 A 
ATOM      4  C   UNL     1      45.519   3.254  12.142  0.00  0.00    +0.000 A 
ATOM      5  C   UNL     1      44.803   4.076  11.264  0.00  0.00    +0.000 A 
ATOM      6  C   UNL     1      44.804   5.457  11.501  0.00  0.00    +0.000 A 
ATOM      7  C   UNL     1      45.541   6.006  12.563  0.00  0.00    +0.000 A 
BRANCH   5   8
ATOM      8  C   UNL     1      44.067   3.487  10.082  0.00  0.00    +0.000 C 
BRANCH   8   9
ATOM      9  N   UNL     1      44.952   2.845   9.138  0.00  0.00    +0.000 N 
ATOM     10  C   UNL     1      45.640   3.579   8.192  0.00  0.00    +0.000 C 
ATOM     11  O   UNL     1      45.504   4.792   8.073  0.00  0.00    +0.000 OA
ATOM     12  H   UNL     1      45.158   1.869   9.266  0.00  0.00    +0.000 HD
BRANCH  10  13
ATOM     13  C   UNL     1      46.539   2.827   7.354  0.00  0.00    +0.000 A 
ATOM     14  C   UNL     1      47.086   1.564   7.458  0.00  0.00    +0.000 A 
ATOM     15  N   UNL     1      47.903   1.278   6.392  0.00  0.00    +0.000 NA
ATOM     16  C   UNL     1      47.862   2.348   5.633  0.00  0.00    +0.000 A 
ATOM     17  N   UNL     1      47.051   3.307   6.167  0.00  0.00    +0.000 N 
ATOM     18  H   UNL     1      46.851   4.216   5.770  0.00  0.00    +0.000 HD
ENDBRANCH  10  13
ENDBRANCH   8   9
ENDBRANCH   5   8
ENDBRANCH   1   2
BRANCH   1  19
ATOM     19  N   UNL     1      48.271   6.472  14.050  0.00  0.00    +0.000 N 
ATOM     20  C   UNL     1      48.303   7.842  13.926  0.00  0.00    +0.000 C 
ATOM     21  O   UNL     1      47.438   8.579  14.382  0.00  0.00    +0.000 OA
ATOM     22  H   UNL     1      48.869   5.927  13.438  0.00  0.00    +0.000 HD
BRANCH  20  23
ATOM     23  C   UNL     1      49.470   8.399  13.238  0.00  0.00    +0.000 A 
ATOM     24  C   UNL     1      49.318   9.090  12.043  0.00  0.00    +0.000 A 
ATOM     25  S   UNL     1      50.800   9.584  11.354  0.00  0.00    +0.000 S 
ATOM     26  C   UNL     1      51.688   8.862  12.614  0.00  0.00    +0.000 A 
ATOM     27  N   UNL     1      53.048   8.857  12.605  0.00  0.00    +0.000 NA
ATOM     28  C   UNL     1      53.584   8.241  13.606  0.00  0.00    +0.000 A 
ATOM     29  N   UNL     1      52.884   7.651  14.628  0.00  0.00    +0.000 N 
ATOM     30  C   UNL     1      51.516   7.686  14.710  0.00  0.00    +0.000 A 
ATOM     31  O   UNL     1      50.925   7.254  15.692  0.00  0.00    +0.000 OA
ATOM     32  C   UNL     1      50.864   8.306  13.574  0.00  0.00    +0.000 A 
ATOM     33  H   UNL     1      53.365   7.224  15.407  0.00  0.00    +0.000 HD
ENDBRANCH  20  23
ENDBRANCH   1  19
BRANCH   1  34
ATOM     34  C   UNL     1      47.533   4.678  15.625  0.00  0.00    +0.000 C 
BRANCH  34  35
ATOM     35  N   UNL     1      48.790   4.949  16.333  0.00  0.00    +0.000 NA
ATOM     36  H   UNL     1      48.565   5.314  17.258  0.00  0.00    +0.000 HD
ATOM     37  H   UNL     1      49.300   5.683  15.845  0.00  0.00    +0.000 HD
ENDBRANCH  34  35
ENDBRANCH   1  34
TORSDOF 8
ENDMDL
MODEL 6
REMARK VINA RESULT:    -7.087      3.906      8.532
REMARK INTER + INTRA:         -11.373
REMARK INTER:                 -10.436
REMARK INTRA:                  -0.937
REMARK UNBOUND:                -1.179
REMARK  Name = 
REMARK  8 active torsions:
REMARK  status: ('A' for Active; 'I' for Inactive)
REMARK    1  A    between atoms: N_1  and  C_2
REMARK    2  A    between atoms: C_2  and  C_3
REMARK    3  A    between atoms: C_3  and  N_4
REMARK    4  A    between atoms: C_3  and  C_17
REMARK    5  A    between atoms: C_5  and  C_7
REMARK    6  A    between atoms: C_20  and  C_21
REMARK    7  A    between atoms: C_21  and  N_22
REMARK    8  A    between atoms: C_23  and  C_25
REMARK                            x       y       z     vdW  Elec       q    Type
REMARK                         _______ _______ _______ _____ _____    ______ ____
ROOT
ATOM      1  C   UNL     1      48.044   7.064  13.628  0.00  0.00    +0.000 C 
ENDROOT
BRANCH   1   2
ATOM      2  C   UNL     1      48.281   6.252  14.909  0.00  0.00    +0.000 A 
ATOM      3  C   UNL     1      49.300   6.621  15.800  0.00  0.00    +0.000 A 
ATOM      4  C   UNL     1      49.544   5.886  16.970  0.00  0.00    +0.000 A 
ATOM      5  C   UNL     1      48.779   4.755  17.281  0.00  0.00    +0.000 A 
ATOM      6  C   UNL     1      47.736   4.402  16.413  0.00  0.00    +0.000 A 
ATOM      7  C   UNL     1      47.494   5.137  15.241  0.00  0.00    +0.000 A 
BRANCH   5   8
ATOM      8  C   UNL     1      49.088   3.927  18.507  0.00  0.00    +0.000 C 
BRANCH   8   9
ATOM      9  N   UNL     1      50.392   3.309  18.449  0.00  0.00    +0.000 N 
ATOM     10  C   UNL     1      50.642   2.249  17.600  0.00  0.00    +0.000 C 
ATOM     11  O   UNL     1      49.771   1.751  16.894  0.00  0.00    +0.000 OA
ATOM     12  H   UNL     1      51.151   3.748  18.943  0.00  0.00    +0.000 HD
BRANCH  10  13
ATOM     13  C   UNL     1      52.000   1.766  17.591  0.00  0.00    +0.000 A 
ATOM     14  C   UNL     1      53.192   2.302  18.035  0.00  0.00    +0.000 A 
ATOM     15  N   UNL     1      54.245   1.452  17.803  0.00  0.00    +0.000 NA
ATOM     16  C   UNL     1      53.715   0.400  17.226  0.00  0.00    +0.000 A 
ATOM     17  N   UNL     1      52.365   0.538  17.080  0.00  0.00    +0.000 N 
ATOM     18  H   UNL     1      51.732  -0.136  16.669  0.00  0.00    +0.000 HD
ENDBRANCH  10  13
ENDBRANCH   8   9
ENDBRANCH   5   8
ENDBRANCH   1   2
BRANCH   1  19
ATOM     19  N   UNL     1      47.453   6.199  12.611  0.00  0.00    +0.000 N 
ATOM     20  C   UNL     1      46.311   6.541  11.925  0.00  0.00    +0.000 C 
ATOM     21  O   UNL     1      45.784   7.645  12.004  0.00  0.00    +0.000 OA
ATOM     22  H   UNL     1      47.676   5.212  12.696  0.00  0.00    +0.000 HD
BRANCH  20  23
ATOM     23  C   UNL     1      45.755   5.512  11.043  0.00  0.00    +0.000 A 
ATOM     24  C   UNL     1      45.859   5.636   9.664  0.00  0.00    +0.000 A 
ATOM     25  S   UNL     1      45.074   4.383   8.811  0.00  0.00    +0.000 S 
ATOM     26  C   UNL     1      44.547   3.656  10.257  0.00  0.00    +0.000 A 
ATOM     27  N   UNL     1      43.750   2.553  10.243  0.00  0.00    +0.000 NA
ATOM     28  C   UNL     1      43.399   2.136  11.414  0.00  0.00    +0.000 A 
ATOM     29  N   UNL     1      43.795   2.704  12.599  0.00  0.00    +0.000 N 
ATOM     30  C   UNL     1      44.646   3.776  12.662  0.00  0.00    +0.000 A 
ATOM     31  O   UNL     1      45.074   4.189  13.733  0.00  0.00    +0.000 OA
ATOM     32  C   UNL     1      45.013   4.326  11.373  0.00  0.00    +0.000 A 
ATOM     33  H   UNL     1      43.521   2.300  13.484  0.00  0.00    +0.000 HD
ENDBRANCH  20  23
ENDBRANCH   1  19
BRANCH   1  34
ATOM     34  C   UNL     1      49.338   7.763  13.108  0.00  0.00    +0.000 C 
BRANCH  34  35
ATOM     35  N   UNL     1      50.095   7.004  12.106  0.00  0.00    +0.000 NA
ATOM     36  H   UNL     1      49.774   6.036  12.127  0.00  0.00    +0.000 HD
ATOM     37  H   UNL     1      51.080   6.991  12.367  0.00  0.00    +0.000 HD
ENDBRANCH  34  35
ENDBRANCH   1  34
TORSDOF 8
ENDMDL
MODEL 7
REMARK VINA RESULT:    -6.521      4.590      7.750
REMARK INTER + INTRA:         -10.559
REMARK INTER:                  -9.765
REMARK INTRA:                  -0.794
REMARK UNBOUND:                -1.179
REMARK  Name = 
REMARK  8 active torsions:
REMARK  status: ('A' for Active; 'I' for Inactive)
REMARK    1  A    between atoms: N_1  and  C_2
REMARK    2  A    between atoms: C_2  and  C_3
REMARK    3  A    between atoms: C_3  and  N_4
REMARK    4  A    between atoms: C_3  and  C_17
REMARK    5  A    between atoms: C_5  and  C_7
REMARK    6  A    between atoms: C_20  and  C_21
REMARK    7  A    between atoms: C_21  and  N_22
REMARK    8  A    between atoms: C_23  and  C_25
REMARK                            x       y       z     vdW  Elec       q    Type
REMARK                         _______ _______ _______ _____ _____    ______ ____
ROOT
ATOM      1  C   UNL     1      45.760   8.047  12.867  0.00  0.00    +0.000 C 
ENDROOT
BRANCH   1   2
ATOM      2  C   UNL     1      47.251   8.081  12.503  0.00  0.00    +0.000 A 
ATOM      3  C   UNL     1      47.844   9.274  12.063  0.00  0.00    +0.000 A 
ATOM      4  C   UNL     1      49.201   9.325  11.712  0.00  0.00    +0.000 A 
ATOM      5  C   UNL     1      50.006   8.182  11.785  0.00  0.00    +0.000 A 
ATOM      6  C   UNL     1      49.429   6.996  12.259  0.00  0.00    +0.000 A 
ATOM      7  C   UNL     1      48.070   6.944  12.608  0.00  0.00    +0.000 A 
BRANCH   5   8
ATOM      8  C   UNL     1      51.451   8.225  11.343  0.00  0.00    +0.000 C 
BRANCH   8   9
ATOM      9  N   UNL     1      51.696   7.437  10.158  0.00  0.00    +0.000 N 
ATOM     10  C   UNL     1      52.971   7.290   9.651  0.00  0.00    +0.000 C 
ATOM     11  O   UNL     1      53.945   7.850  10.143  0.00  0.00    +0.000 OA
ATOM     12  H   UNL     1      50.939   6.890   9.784  0.00  0.00    +0.000 HD
BRANCH  10  13
ATOM     13  C   UNL     1      53.089   6.426   8.503  0.00  0.00    +0.000 A 
ATOM     14  C   UNL     1      52.727   6.567   7.179  0.00  0.00    +0.000 A 
ATOM     15  N   UNL     1      53.048   5.451   6.446  0.00  0.00    +0.000 NA
ATOM     16  C   UNL     1      53.605   4.628   7.302  0.00  0.00    +0.000 A 
ATOM     17  N   UNL     1      53.657   5.170   8.554  0.00  0.00    +0.000 N 
ATOM     18  H   UNL     1      54.043   4.736   9.382  0.00  0.00    +0.000 HD
ENDBRANCH  10  13
ENDBRANCH   8   9
ENDBRANCH   5   8
ENDBRANCH   1   2
BRANCH   1  19
ATOM     19  N   UNL     1      45.133   6.894  12.226  0.00  0.00    +0.000 N 
ATOM     20  C   UNL     1      45.172   5.635  12.776  0.00  0.00    +0.000 C 
ATOM     21  O   UNL     1      45.602   5.404  13.901  0.00  0.00    +0.000 OA
ATOM     22  H   UNL     1      45.011   6.969  11.221  0.00  0.00    +0.000 HD
BRANCH  20  23
ATOM     23  C   UNL     1      44.629   4.553  11.951  0.00  0.00    +0.000 A 
ATOM     24  C   UNL     1      43.795   3.593  12.508  0.00  0.00    +0.000 A 
ATOM     25  S   UNL     1      43.339   2.371  11.406  0.00  0.00    +0.000 S 
ATOM     26  C   UNL     1      44.269   3.070  10.163  0.00  0.00    +0.000 A 
ATOM     27  N   UNL     1      44.376   2.477   8.944  0.00  0.00    +0.000 NA
ATOM     28  C   UNL     1      45.144   3.103   8.114  0.00  0.00    +0.000 A 
ATOM     29  N   UNL     1      45.793   4.281   8.384  0.00  0.00    +0.000 N 
ATOM     30  C   UNL     1      45.663   4.945   9.575  0.00  0.00    +0.000 A 
ATOM     31  O   UNL     1      46.160   6.053   9.746  0.00  0.00    +0.000 OA
ATOM     32  C   UNL     1      44.868   4.249  10.566  0.00  0.00    +0.000 A 
ATOM     33  H   UNL     1      46.343   4.744   7.674  0.00  0.00    +0.000 HD
ENDBRANCH  20  23
ENDBRANCH   1  19
BRANCH   1  34
ATOM     34  C   UNL     1      45.022   9.374  12.511  0.00  0.00    +0.000 C 
BRANCH  34  35
ATOM     35  N   UNL     1      43.983   9.252  11.481  0.00  0.00    +0.000 NA
ATOM     36  H   UNL     1      43.777  10.183  11.120  0.00  0.00    +0.000 HD
ATOM     37  H   UNL     1      43.125   8.907  11.907  0.00  0.00    +0.000 HD
ENDBRANCH  34  35
ENDBRANCH   1  34
TORSDOF 8
ENDMDL
MODEL 8
REMARK VINA RESULT:    -6.516      3.627      9.107
REMARK INTER + INTRA:         -10.552
REMARK INTER:                  -9.486
REMARK INTRA:                  -1.067
REMARK UNBOUND:                -1.179
REMARK  Name = 
REMARK  8 active torsions:
REMARK  status: ('A' for Active; 'I' for Inactive)
REMARK    1  A    between atoms: N_1  and  C_2
REMARK    2  A    between atoms: C_2  and  C_3
REMARK    3  A    between atoms: C_3  and  N_4
REMARK    4  A    between atoms: C_3  and  C_17
REMARK    5  A    between atoms: C_5  and  C_7
REMARK    6  A    between atoms: C_20  and  C_21
REMARK    7  A    between atoms: C_21  and  N_22
REMARK    8  A    between atoms: C_23  and  C_25
REMARK                            x       y       z     vdW  Elec       q    Type
REMARK                         _______ _______ _______ _____ _____    ______ ____
ROOT
ATOM      1  C   UNL     1      47.620   6.851  13.759  0.00  0.00    +0.000 C 
ENDROOT
BRANCH   1   2
ATOM      2  C   UNL     1      48.156   6.214  15.049  0.00  0.00    +0.000 A 
ATOM      3  C   UNL     1      49.222   6.810  15.740  0.00  0.00    +0.000 A 
ATOM      4  C   UNL     1      49.738   6.238  16.913  0.00  0.00    +0.000 A 
ATOM      5  C   UNL     1      49.206   5.049  17.427  0.00  0.00    +0.000 A 
ATOM      6  C   UNL     1      48.118   4.469  16.762  0.00  0.00    +0.000 A 
ATOM      7  C   UNL     1      47.604   5.040  15.586  0.00  0.00    +0.000 A 
BRANCH   5   8
ATOM      8  C   UNL     1      49.808   4.402  18.653  0.00  0.00    +0.000 C 
BRANCH   8   9
ATOM      9  N   UNL     1      50.700   3.314  18.329  0.00  0.00    +0.000 N 
ATOM     10  C   UNL     1      52.070   3.487  18.340  0.00  0.00    +0.000 C 
ATOM     11  O   UNL     1      52.594   4.570  18.576  0.00  0.00    +0.000 OA
ATOM     12  H   UNL     1      50.310   2.393  18.222  0.00  0.00    +0.000 HD
BRANCH  10  13
ATOM     13  C   UNL     1      52.849   2.307  18.062  0.00  0.00    +0.000 A 
ATOM     14  C   UNL     1      54.137   2.117  17.603  0.00  0.00    +0.000 A 
ATOM     15  N   UNL     1      54.442   0.783  17.494  0.00  0.00    +0.000 NA
ATOM     16  C   UNL     1      53.361   0.152  17.884  0.00  0.00    +0.000 A 
ATOM     17  N   UNL     1      52.374   1.025  18.240  0.00  0.00    +0.000 N 
ATOM     18  H   UNL     1      51.451   0.785  18.578  0.00  0.00    +0.000 HD
ENDBRANCH  10  13
ENDBRANCH   8   9
ENDBRANCH   5   8
ENDBRANCH   1   2
BRANCH   1  19
ATOM     19  N   UNL     1      46.857   5.855  13.010  0.00  0.00    +0.000 N 
ATOM     20  C   UNL     1      45.588   6.100  12.542  0.00  0.00    +0.000 C 
ATOM     21  O   UNL     1      45.056   7.203  12.584  0.00  0.00    +0.000 OA
ATOM     22  H   UNL     1      47.123   4.889  13.175  0.00  0.00    +0.000 HD
BRANCH  20  23
ATOM     23  C   UNL     1      44.892   4.960  11.939  0.00  0.00    +0.000 A 
ATOM     24  C   UNL     1      44.078   4.143  12.711  0.00  0.00    +0.000 A 
ATOM     25  S   UNL     1      43.429   2.822  11.846  0.00  0.00    +0.000 S 
ATOM     26  C   UNL     1      44.242   3.285  10.424  0.00  0.00    +0.000 A 
ATOM     27  N   UNL     1      44.171   2.531   9.294  0.00  0.00    +0.000 NA
ATOM     28  C   UNL     1      44.869   2.986   8.307  0.00  0.00    +0.000 A 
ATOM     29  N   UNL     1      45.609   4.141   8.338  0.00  0.00    +0.000 N 
ATOM     30  C   UNL     1      45.658   4.963   9.433  0.00  0.00    +0.000 A 
ATOM     31  O   UNL     1      46.231   6.046   9.393  0.00  0.00    +0.000 OA
ATOM     32  C   UNL     1      44.948   4.461  10.591  0.00  0.00    +0.000 A 
ATOM     33  H   UNL     1      46.096   4.466   7.515  0.00  0.00    +0.000 HD
ENDBRANCH  20  23
ENDBRANCH   1  19
BRANCH   1  34
ATOM     34  C   UNL     1      48.746   7.487  12.887  0.00  0.00    +0.000 C 
BRANCH  34  35
ATOM     35  N   UNL     1      49.667   6.529  12.264  0.00  0.00    +0.000 NA
ATOM     36  H   UNL     1      49.259   6.216  11.384  0.00  0.00    +0.000 HD
ATOM     37  H   UNL     1      49.749   5.706  12.858  0.00  0.00    +0.000 HD
ENDBRANCH  34  35
ENDBRANCH   1  34
TORSDOF 8
ENDMDL
MODEL 9
REMARK VINA RESULT:    -6.476      2.655      9.960
REMARK INTER + INTRA:         -10.494
REMARK INTER:                  -9.628
REMARK INTRA:                  -0.866
REMARK UNBOUND:                -1.179
REMARK  Name = 
REMARK  8 active torsions:
REMARK  status: ('A' for Active; 'I' for Inactive)
REMARK    1  A    between atoms: N_1  and  C_2
REMARK    2  A    between atoms: C_2  and  C_3
REMARK    3  A    between atoms: C_3  and  N_4
REMARK    4  A    between atoms: C_3  and  C_17
REMARK    5  A    between atoms: C_5  and  C_7
REMARK    6  A    between atoms: C_20  and  C_21
REMARK    7  A    between atoms: C_21  and  N_22
REMARK    8  A    between atoms: C_23  and  C_25
REMARK                            x       y       z     vdW  Elec       q    Type
REMARK                         _______ _______ _______ _____ _____    ______ ____
ROOT
ATOM      1  C   UNL     1      44.532   4.551  11.472  0.00  0.00    +0.000 C 
ENDROOT
BRANCH   1   2
ATOM      2  C   UNL     1      45.628   5.160  12.358  0.00  0.00    +0.000 A 
ATOM      3  C   UNL     1      46.190   4.410  13.401  0.00  0.00    +0.000 A 
ATOM      4  C   UNL     1      47.183   4.950  14.232  0.00  0.00    +0.000 A 
ATOM      5  C   UNL     1      47.639   6.261  14.048  0.00  0.00    +0.000 A 
ATOM      6  C   UNL     1      47.107   7.003  12.985  0.00  0.00    +0.000 A 
ATOM      7  C   UNL     1      46.112   6.463  12.156  0.00  0.00    +0.000 A 
BRANCH   5   8
ATOM      8  C   UNL     1      48.660   6.861  14.987  0.00  0.00    +0.000 C 
BRANCH   8   9
ATOM      9  N   UNL     1      48.337   6.643  16.377  0.00  0.00    +0.000 N 
ATOM     10  C   UNL     1      49.038   5.728  17.138  0.00  0.00    +0.000 C 
ATOM     11  O   UNL     1      49.928   5.027  16.669  0.00  0.00    +0.000 OA
ATOM     12  H   UNL     1      47.678   7.263  16.817  0.00  0.00    +0.000 HD
BRANCH  10  13
ATOM     13  C   UNL     1      48.660   5.653  18.526  0.00  0.00    +0.000 A 
ATOM     14  C   UNL     1      48.932   4.742  19.527  0.00  0.00    +0.000 A 
ATOM     15  N   UNL     1      48.339   5.102  20.712  0.00  0.00    +0.000 NA
ATOM     16  C   UNL     1      47.710   6.223  20.453  0.00  0.00    +0.000 A 
ATOM     17  N   UNL     1      47.876   6.599  19.152  0.00  0.00    +0.000 N 
ATOM     18  H   UNL     1      47.495   7.427  18.711  0.00  0.00    +0.000 HD
ENDBRANCH  10  13
ENDBRANCH   8   9
ENDBRANCH   5   8
ENDBRANCH   1   2
BRANCH   1  19
ATOM     19  N   UNL     1      45.152   3.823  10.369  0.00  0.00    +0.000 N 
ATOM     20  C   UNL     1      44.582   2.701   9.815  0.00  0.00    +0.000 C 
ATOM     21  O   UNL     1      43.456   2.309  10.096  0.00  0.00    +0.000 OA
ATOM     22  H   UNL     1      46.158   3.934  10.286  0.00  0.00    +0.000 HD
BRANCH  20  23
ATOM     23  C   UNL     1      45.389   1.993   8.817  0.00  0.00    +0.000 A 
ATOM     24  C   UNL     1      45.384   0.606   8.763  0.00  0.00    +0.000 A 
ATOM     25  S   UNL     1      46.453  -0.030   7.593  0.00  0.00    +0.000 S 
ATOM     26  C   UNL     1      46.977   1.528   7.149  0.00  0.00    +0.000 A 
ATOM     27  N   UNL     1      47.958   1.704   6.223  0.00  0.00    +0.000 NA
ATOM     28  C   UNL     1      48.277   2.939   6.014  0.00  0.00    +0.000 A 
ATOM     29  N   UNL     1      47.685   4.014   6.628  0.00  0.00    +0.000 N 
ATOM     30  C   UNL     1      46.651   3.886   7.518  0.00  0.00    +0.000 A 
ATOM     31  O   UNL     1      46.065   4.867   7.960  0.00  0.00    +0.000 OA
ATOM     32  C   UNL     1      46.303   2.517   7.839  0.00  0.00    +0.000 A 
ATOM     33  H   UNL     1      47.949   4.958   6.386  0.00  0.00    +0.000 HD
ENDBRANCH  20  23
ENDBRANCH   1  19
BRANCH   1  34
ATOM     34  C   UNL     1      43.511   5.614  10.958  0.00  0.00    +0.000 C 
BRANCH  34  35
ATOM     35  N   UNL     1      42.308   5.772  11.783  0.00  0.00    +0.000 NA
ATOM     36  H   UNL     1      42.036   4.853  12.134  0.00  0.00    +0.000 HD
ATOM     37  H   UNL     1      41.540   6.101  11.200  0.00  0.00    +0.000 HD
ENDBRANCH  34  35
ENDBRANCH   1  34
TORSDOF 8
ENDMDL
