MODEL 1
REMARK VINA RESULT:    -7.929      0.000      0.000
REMARK INTER + INTRA:         -11.752
REMARK INTER:                 -10.710
REMARK INTRA:                  -1.042
REMARK UNBOUND:                -1.042
REMARK  Name = 
REMARK  6 active torsions:
REMARK  status: ('A' for Active; 'I' for Inactive)
REMARK    1  A    between atoms: C_2  and  C_20
REMARK    2  A    between atoms: N_3  and  C_4
REMARK    3  A    between atoms: C_4  and  C_5
REMARK    4  A    between atoms: C_8  and  C_9
REMARK    5  A    between atoms: C_9  and  N_10
REMARK    6  A    between atoms: C_11  and  C_13
REMARK                            x       y       z     vdW  Elec       q    Type
REMARK                         _______ _______ _______ _____ _____    ______ ____
ROOT
ATOM      1  C   UNL     1      46.239   4.555  13.731  0.00  0.00    +0.000 A 
ATOM      2  C   UNL     1      45.737   5.753  13.203  0.00  0.00    +0.000 A 
ATOM      3  C   UNL     1      44.977   5.752  12.029  0.00  0.00    +0.000 A 
ATOM      4  C   UNL     1      44.684   4.550  11.370  0.00  0.00    +0.000 A 
ATOM      5  C   UNL     1      45.177   3.352  11.904  0.00  0.00    +0.000 A 
ATOM      6  C   UNL     1      45.937   3.353  13.079  0.00  0.00    +0.000 A 
ENDROOT
BRANCH   1   7
ATOM      7  C   UNL     1      47.041   4.558  15.008  0.00  0.00    +0.000 C 
BRANCH   7  10
ATOM      8  O   UNL     1      49.228   4.981  16.682  0.00  0.00    +0.000 OA
ATOM      9  C   UNL     1      48.838   5.911  15.983  0.00  0.00    +0.000 C 
ATOM     10  N   UNL     1      47.727   5.811  15.185  0.00  0.00    +0.000 N 
ATOM     11  H   UNL     1      47.565   6.517  14.474  0.00  0.00    +0.000 HD
BRANCH   9  12
ATOM     12  C   UNL     1      49.516   7.214  15.989  0.00  0.00    +0.000 A 
ATOM     13  C   UNL     1      49.819   7.835  17.193  0.00  0.00    +0.000 A 
ATOM     14  S   UNL     1      50.574   9.354  17.005  0.00  0.00    +0.000 S 
ATOM     15  C   UNL     1      50.566   9.210  15.310  0.00  0.00    +0.000 A 
ATOM     16  N   UNL     1      51.100  10.182  14.520  0.00  0.00    +0.000 NA
ATOM     17  C   UNL     1      51.056   9.925  13.256  0.00  0.00    +0.000 A 
ATOM     18  N   UNL     1      50.526   8.787  12.705  0.00  0.00    +0.000 N 
ATOM     19  C   UNL     1      49.949   7.795  13.461  0.00  0.00    +0.000 A 
ATOM     20  O   UNL     1      49.438   6.812  12.934  0.00  0.00    +0.000 OA
ATOM     21  C   UNL     1      49.981   8.028  14.892  0.00  0.00    +0.000 A 
ATOM     22  H   UNL     1      50.512   8.652  11.706  0.00  0.00    +0.000 HD
ENDBRANCH   9  12
ENDBRANCH   7  10
ENDBRANCH   1   7
BRANCH   4  23
ATOM     23  C   UNL     1      43.844   4.543  10.120  0.00  0.00    +0.000 C 
BRANCH  23  24
ATOM     24  N   UNL     1      44.388   3.699   9.089  0.00  0.00    +0.000 N 
ATOM     25  C   UNL     1      45.489   4.089   8.359  0.00  0.00    +0.000 C 
ATOM     26  O   UNL     1      46.007   5.198   8.466  0.00  0.00    +0.000 OA
ATOM     27  H   UNL     1      44.134   2.715   9.024  0.00  0.00    +0.000 HD
BRANCH  25  28
ATOM     28  C   UNL     1      45.981   3.058   7.336  0.00  0.00    +0.000 C 
ATOM     29  C   UNL     1      46.350   1.742   7.990  0.00  0.00    +0.000 C 
ATOM     30  C   UNL     1      47.246   1.092   6.954  0.00  0.00    +0.000 C 
ATOM     31  C   UNL     1      47.911   2.256   6.231  0.00  0.00    +0.000 C 
ATOM     32  N   UNL     1      47.259   3.481   6.707  0.00  0.00    +0.000 NA
ATOM     33  H   UNL     1      47.060   4.103   5.923  0.00  0.00    +0.000 HD
ENDBRANCH  25  28
ENDBRANCH  23  24
ENDBRANCH   4  23
TORSDOF 6
ENDMDL
MODEL 2
REMARK VINA RESULT:    -7.899      2.101      3.774
REMARK INTER + INTRA:         -11.711
REMARK INTER:                 -10.803
REMARK INTRA:                  -0.908
REMARK UNBOUND:                -1.042
REMARK  Name = 
REMARK  6 active torsions:
REMARK  status: ('A' for Active; 'I' for Inactive)
REMARK    1  A    between atoms: C_2  and  C_20
REMARK    2  A    between atoms: N_3  and  C_4
REMARK    3  A    between atoms: C_4  and  C_5
REMARK    4  A    between atoms: C_8  and  C_9
REMARK    5  A    between atoms: C_9  and  N_10
REMARK    6  A    between atoms: C_11  and  C_13
REMARK                            x       y       z     vdW  Elec       q    Type
REMARK                         _______ _______ _______ _____ _____    ______ ____
ROOT
ATOM      1  C   UNL     1      46.386   7.654  12.986  0.00  0.00    +0.000 A 
ATOM      2  C   UNL     1      46.459   6.255  12.947  0.00  0.00    +0.000 A 
ATOM      3  C   UNL     1      45.538   5.512  12.201  0.00  0.00    +0.000 A 
ATOM      4  C   UNL     1      44.537   6.155  11.460  0.00  0.00    +0.000 A 
ATOM      5  C   UNL     1      44.471   7.555  11.492  0.00  0.00    +0.000 A 
ATOM      6  C   UNL     1      45.393   8.298  12.238  0.00  0.00    +0.000 A 
ENDROOT
BRANCH   1   7
ATOM      7  C   UNL     1      47.393   8.451  13.777  0.00  0.00    +0.000 C 
BRANCH   7  10
ATOM      8  O   UNL     1      49.804   7.077  14.027  0.00  0.00    +0.000 OA
ATOM      9  C   UNL     1      49.059   7.134  15.001  0.00  0.00    +0.000 C 
ATOM     10  N   UNL     1      47.824   7.728  14.944  0.00  0.00    +0.000 N 
ATOM     11  H   UNL     1      47.338   7.939  15.809  0.00  0.00    +0.000 HD
BRANCH   9  12
ATOM     12  C   UNL     1      49.428   6.528  16.287  0.00  0.00    +0.000 A 
ATOM     13  C   UNL     1      50.401   7.120  17.081  0.00  0.00    +0.000 A 
ATOM     14  S   UNL     1      50.723   6.259  18.519  0.00  0.00    +0.000 S 
ATOM     15  C   UNL     1      49.537   5.095  18.154  0.00  0.00    +0.000 A 
ATOM     16  N   UNL     1      49.277   4.065  19.005  0.00  0.00    +0.000 NA
ATOM     17  C   UNL     1      48.330   3.279  18.617  0.00  0.00    +0.000 A 
ATOM     18  N   UNL     1      47.619   3.423  17.455  0.00  0.00    +0.000 N 
ATOM     19  C   UNL     1      47.867   4.428  16.551  0.00  0.00    +0.000 A 
ATOM     20  O   UNL     1      47.246   4.500  15.496  0.00  0.00    +0.000 OA
ATOM     21  C   UNL     1      48.916   5.349  16.944  0.00  0.00    +0.000 A 
ATOM     22  H   UNL     1      46.897   2.766  17.203  0.00  0.00    +0.000 HD
ENDBRANCH   9  12
ENDBRANCH   7  10
ENDBRANCH   1   7
BRANCH   4  23
ATOM     23  C   UNL     1      43.560   5.361  10.634  0.00  0.00    +0.000 C 
BRANCH  23  24
ATOM     24  N   UNL     1      44.169   4.758   9.478  0.00  0.00    +0.000 N 
ATOM     25  C   UNL     1      44.455   3.412   9.447  0.00  0.00    +0.000 C 
ATOM     26  O   UNL     1      44.307   2.670  10.416  0.00  0.00    +0.000 OA
ATOM     27  H   UNL     1      44.192   5.241   8.582  0.00  0.00    +0.000 HD
BRANCH  25  28
ATOM     28  C   UNL     1      45.051   2.910   8.126  0.00  0.00    +0.000 C 
ATOM     29  C   UNL     1      46.055   1.796   8.345  0.00  0.00    +0.000 C 
ATOM     30  C   UNL     1      46.856   1.808   7.058  0.00  0.00    +0.000 C 
ATOM     31  C   UNL     1      46.814   3.256   6.589  0.00  0.00    +0.000 C 
ATOM     32  N   UNL     1      45.867   3.960   7.461  0.00  0.00    +0.000 NA
ATOM     33  H   UNL     1      45.257   4.562   6.909  0.00  0.00    +0.000 HD
ENDBRANCH  25  28
ENDBRANCH  23  24
ENDBRANCH   4  23
TORSDOF 6
ENDMDL
MODEL 3
REMARK VINA RESULT:    -7.670      2.417      3.970
REMARK INTER + INTRA:         -11.402
REMARK INTER:                 -10.999
REMARK INTRA:                  -0.402
REMARK UNBOUND:                -1.042
REMARK  Name = 
REMARK  6 active torsions:
REMARK  status: ('A' for Active; 'I' for Inactive)
REMARK    1  A    between atoms: C_2  and  C_20
REMARK    2  A    between atoms: N_3  and  C_4
REMARK    3  A    between atoms: C_4  and  C_5
REMARK    4  A    between atoms: C_8  and  C_9
REMARK    5  A    between atoms: C_9  and  N_10
REMARK    6  A    between atoms: C_11  and  C_13
REMARK                            x       y       z     vdW  Elec       q    Type
REMARK                         _______ _______ _______ _____ _____    ______ ____
ROOT
ATOM      1  C   UNL     1      47.323   6.242  13.065  0.00  0.00    +0.000 A 
ATOM      2  C   UNL     1      46.866   4.928  13.231  0.00  0.00    +0.000 A 
ATOM      3  C   UNL     1      45.799   4.441  12.469  0.00  0.00    +0.000 A 
ATOM      4  C   UNL     1      45.181   5.252  11.507  0.00  0.00    +0.000 A 
ATOM      5  C   UNL     1      45.646   6.563  11.335  0.00  0.00    +0.000 A 
ATOM      6  C   UNL     1      46.712   7.050  12.097  0.00  0.00    +0.000 A 
ENDROOT
BRANCH   1   7
ATOM      7  C   UNL     1      48.486   6.757  13.875  0.00  0.00    +0.000 C 
BRANCH   7  10
ATOM      8  O   UNL     1      50.248   6.226  15.968  0.00  0.00    +0.000 OA
ATOM      9  C   UNL     1      49.109   6.593  16.241  0.00  0.00    +0.000 C 
ATOM     10  N   UNL     1      48.158   6.807  15.277  0.00  0.00    +0.000 N 
ATOM     11  H   UNL     1      47.310   7.306  15.522  0.00  0.00    +0.000 HD
BRANCH   9  12
ATOM     12  C   UNL     1      48.678   6.787  17.631  0.00  0.00    +0.000 A 
ATOM     13  C   UNL     1      48.224   8.030  18.052  0.00  0.00    +0.000 A 
ATOM     14  S   UNL     1      47.799   8.076  19.704  0.00  0.00    +0.000 S 
ATOM     15  C   UNL     1      48.159   6.425  19.901  0.00  0.00    +0.000 A 
ATOM     16  N   UNL     1      47.988   5.806  21.101  0.00  0.00    +0.000 NA
ATOM     17  C   UNL     1      48.267   4.546  21.096  0.00  0.00    +0.000 A 
ATOM     18  N   UNL     1      48.706   3.846  20.003  0.00  0.00    +0.000 N 
ATOM     19  C   UNL     1      48.924   4.434  18.781  0.00  0.00    +0.000 A 
ATOM     20  O   UNL     1      49.365   3.789  17.835  0.00  0.00    +0.000 OA
ATOM     21  C   UNL     1      48.614   5.850  18.727  0.00  0.00    +0.000 A 
ATOM     22  H   UNL     1      48.919   2.862  20.068  0.00  0.00    +0.000 HD
ENDBRANCH   9  12
ENDBRANCH   7  10
ENDBRANCH   1   7
BRANCH   4  23
ATOM     23  C   UNL     1      44.050   4.723  10.666  0.00  0.00    +0.000 C 
BRANCH  23  24
ATOM     24  N   UNL     1      44.482   3.744   9.703  0.00  0.00    +0.000 N 
ATOM     25  C   UNL     1      45.347   4.082   8.687  0.00  0.00    +0.000 C 
ATOM     26  O   UNL     1      45.721   5.234   8.478  0.00  0.00    +0.000 OA
ATOM     27  H   UNL     1      44.357   2.748   9.871  0.00  0.00    +0.000 HD
BRANCH  25  28
ATOM     28  C   UNL     1      45.757   2.918   7.776  0.00  0.00    +0.000 C 
ATOM     29  C   UNL     1      45.924   1.625   8.549  0.00  0.00    +0.000 C 
ATOM     30  C   UNL     1      46.781   0.788   7.620  0.00  0.00    +0.000 C 
ATOM     31  C   UNL     1      47.622   1.798   6.853  0.00  0.00    +0.000 C 
ATOM     32  N   UNL     1      47.108   3.129   7.194  0.00  0.00    +0.000 NA
ATOM     33  H   UNL     1      47.028   3.704   6.355  0.00  0.00    +0.000 HD
ENDBRANCH  25  28
ENDBRANCH  23  24
ENDBRANCH   4  23
TORSDOF 6
ENDMDL
MODEL 4
REMARK VINA RESULT:    -7.444      5.219      9.225
REMARK INTER + INTRA:         -11.097
REMARK INTER:                 -10.207
REMARK INTRA:                  -0.891
REMARK UNBOUND:                -1.042
REMARK  Name = 
REMARK  6 active torsions:
REMARK  status: ('A' for Active; 'I' for Inactive)
REMARK    1  A    between atoms: C_2  and  C_20
REMARK    2  A    between atoms: N_3  and  C_4
REMARK    3  A    between atoms: C_4  and  C_5
REMARK    4  A    between atoms: C_8  and  C_9
REMARK    5  A    between atoms: C_9  and  N_10
REMARK    6  A    between atoms: C_11  and  C_13
REMARK                            x       y       z     vdW  Elec       q    Type
REMARK                         _______ _______ _______ _____ _____    ______ ____
ROOT
ATOM      1  C   UNL     1      48.661   3.529  17.126  0.00  0.00    +0.000 A 
ATOM      2  C   UNL     1      49.217   4.764  17.487  0.00  0.00    +0.000 A 
ATOM      3  C   UNL     1      50.576   4.870  17.801  0.00  0.00    +0.000 A 
ATOM      4  C   UNL     1      51.413   3.747  17.738  0.00  0.00    +0.000 A 
ATOM      5  C   UNL     1      50.857   2.515  17.367  0.00  0.00    +0.000 A 
ATOM      6  C   UNL     1      49.498   2.409  17.053  0.00  0.00    +0.000 A 
ENDROOT
BRANCH   1   7
ATOM      7  C   UNL     1      47.200   3.423  16.770  0.00  0.00    +0.000 C 
BRANCH   7  10
ATOM      8  O   UNL     1      47.244   3.138  13.998  0.00  0.00    +0.000 OA
ATOM      9  C   UNL     1      46.815   4.186  14.472  0.00  0.00    +0.000 C 
ATOM     10  N   UNL     1      46.823   4.438  15.820  0.00  0.00    +0.000 N 
ATOM     11  H   UNL     1      46.275   5.210  16.181  0.00  0.00    +0.000 HD
BRANCH   9  12
ATOM     12  C   UNL     1      46.300   5.262  13.616  0.00  0.00    +0.000 A 
ATOM     13  C   UNL     1      47.064   6.400  13.393  0.00  0.00    +0.000 A 
ATOM     14  S   UNL     1      46.291   7.555  12.402  0.00  0.00    +0.000 S 
ATOM     15  C   UNL     1      44.932   6.553  12.196  0.00  0.00    +0.000 A 
ATOM     16  N   UNL     1      43.884   6.941  11.420  0.00  0.00    +0.000 NA
ATOM     17  C   UNL     1      42.938   6.068  11.326  0.00  0.00    +0.000 A 
ATOM     18  N   UNL     1      42.940   4.842  11.938  0.00  0.00    +0.000 N 
ATOM     19  C   UNL     1      43.962   4.420  12.755  0.00  0.00    +0.000 A 
ATOM     20  O   UNL     1      43.910   3.337  13.328  0.00  0.00    +0.000 OA
ATOM     21  C   UNL     1      45.058   5.361  12.887  0.00  0.00    +0.000 A 
ATOM     22  H   UNL     1      42.164   4.208  11.833  0.00  0.00    +0.000 HD
ENDBRANCH   9  12
ENDBRANCH   7  10
ENDBRANCH   1   7
BRANCH   4  23
ATOM     23  C   UNL     1      52.881   3.862  18.050  0.00  0.00    +0.000 C 
BRANCH  23  24
ATOM     24  N   UNL     1      53.600   2.639  17.805  0.00  0.00    +0.000 N 
ATOM     25  C   UNL     1      54.131   1.908  18.843  0.00  0.00    +0.000 C 
ATOM     26  O   UNL     1      54.117   2.291  20.012  0.00  0.00    +0.000 OA
ATOM     27  H   UNL     1      53.540   2.163  16.908  0.00  0.00    +0.000 HD
BRANCH  25  28
ATOM     28  C   UNL     1      54.820   0.603  18.426  0.00  0.00    +0.000 C 
ATOM     29  C   UNL     1      54.534   0.248  16.980  0.00  0.00    +0.000 C 
ATOM     30  C   UNL     1      54.847  -1.234  16.931  0.00  0.00    +0.000 C 
ATOM     31  C   UNL     1      54.542  -1.742  18.333  0.00  0.00    +0.000 C 
ATOM     32  N   UNL     1      54.272  -0.564  19.164  0.00  0.00    +0.000 NA
ATOM     33  H   UNL     1      54.748  -0.649  20.063  0.00  0.00    +0.000 HD
ENDBRANCH  25  28
ENDBRANCH  23  24
ENDBRANCH   4  23
TORSDOF 6
ENDMDL
MODEL 5
REMARK VINA RESULT:    -7.316      2.125      2.631
REMARK INTER + INTRA:         -10.923
REMARK INTER:                 -10.112
REMARK INTRA:                  -0.812
REMARK UNBOUND:                -1.042
REMARK  Name = 
REMARK  6 active torsions:
REMARK  status: ('A' for Active; 'I' for Inactive)
REMARK    1  A    between atoms: C_2  and  C_20
REMARK    2  A    between atoms: N_3  and  C_4
REMARK    3  A    between atoms: C_4  and  C_5
REMARK    4  A    between atoms: C_8  and  C_9
REMARK    5  A    between atoms: C_9  and  N_10
REMARK    6  A    between atoms: C_11  and  C_13
REMARK                            x       y       z     vdW  Elec       q    Type
REMARK                         _______ _______ _______ _____ _____    ______ ____
ROOT
ATOM      1  C   UNL     1      46.906   4.686  14.185  0.00  0.00    +0.000 A 
ATOM      2  C   UNL     1      46.015   3.872  13.473  0.00  0.00    +0.000 A 
ATOM      3  C   UNL     1      45.492   4.289  12.244  0.00  0.00    +0.000 A 
ATOM      4  C   UNL     1      45.867   5.522  11.692  0.00  0.00    +0.000 A 
ATOM      5  C   UNL     1      46.765   6.331  12.400  0.00  0.00    +0.000 A 
ATOM      6  C   UNL     1      47.289   5.914  13.628  0.00  0.00    +0.000 A 
ENDROOT
BRANCH   1   7
ATOM      7  C   UNL     1      47.483   4.224  15.499  0.00  0.00    +0.000 C 
BRANCH   7  10
ATOM      8  O   UNL     1      49.731   5.105  16.891  0.00  0.00    +0.000 OA
ATOM      9  C   UNL     1      48.672   5.705  17.050  0.00  0.00    +0.000 C 
ATOM     10  N   UNL     1      47.503   5.296  16.461  0.00  0.00    +0.000 N 
ATOM     11  H   UNL     1      46.711   5.929  16.445  0.00  0.00    +0.000 HD
BRANCH   9  12
ATOM     12  C   UNL     1      48.580   6.882  17.923  0.00  0.00    +0.000 A 
ATOM     13  C   UNL     1      48.667   6.736  19.301  0.00  0.00    +0.000 A 
ATOM     14  S   UNL     1      48.505   8.205  20.153  0.00  0.00    +0.000 S 
ATOM     15  C   UNL     1      48.363   9.093  18.709  0.00  0.00    +0.000 A 
ATOM     16  N   UNL     1      48.221  10.446  18.726  0.00  0.00    +0.000 NA
ATOM     17  C   UNL     1      48.160  10.991  17.558  0.00  0.00    +0.000 A 
ATOM     18  N   UNL     1      48.226  10.309  16.371  0.00  0.00    +0.000 N 
ATOM     19  C   UNL     1      48.338   8.942  16.304  0.00  0.00    +0.000 A 
ATOM     20  O   UNL     1      48.344   8.357  15.226  0.00  0.00    +0.000 OA
ATOM     21  C   UNL     1      48.422   8.278  17.592  0.00  0.00    +0.000 A 
ATOM     22  H   UNL     1      48.161  10.794  15.489  0.00  0.00    +0.000 HD
ENDBRANCH   9  12
ENDBRANCH   7  10
ENDBRANCH   1   7
BRANCH   4  23
ATOM     23  C   UNL     1      45.326   5.963  10.358  0.00  0.00    +0.000 C 
BRANCH  23  24
ATOM     24  N   UNL     1      45.812   5.160   9.266  0.00  0.00    +0.000 N 
ATOM     25  C   UNL     1      45.041   4.156   8.726  0.00  0.00    +0.000 C 
ATOM     26  O   UNL     1      43.954   3.818   9.192  0.00  0.00    +0.000 OA
ATOM     27  H   UNL     1      46.618   5.449   8.717  0.00  0.00    +0.000 HD
BRANCH  25  28
ATOM     28  C   UNL     1      45.675   3.426   7.535  0.00  0.00    +0.000 C 
ATOM     29  C   UNL     1      46.182   2.050   7.919  0.00  0.00    +0.000 C 
ATOM     30  C   UNL     1      47.172   1.738   6.813  0.00  0.00    +0.000 C 
ATOM     31  C   UNL     1      47.711   3.095   6.381  0.00  0.00    +0.000 C 
ATOM     32  N   UNL     1      46.908   4.111   7.069  0.00  0.00    +0.000 NA
ATOM     33  H   UNL     1      46.655   4.859   6.423  0.00  0.00    +0.000 HD
ENDBRANCH  25  28
ENDBRANCH  23  24
ENDBRANCH   4  23
TORSDOF 6
ENDMDL
MODEL 6
REMARK VINA RESULT:    -7.079      2.368      3.629
REMARK INTER + INTRA:         -10.604
REMARK INTER:                  -9.593
REMARK INTRA:                  -1.011
REMARK UNBOUND:                -1.042
REMARK  Name = 
REMARK  6 active torsions:
REMARK  status: ('A' for Active; 'I' for Inactive)
REMARK    1  A    between atoms: C_2  and  C_20
REMARK    2  A    between atoms: N_3  and  C_4
REMARK    3  A    between atoms: C_4  and  C_5
REMARK    4  A    between atoms: C_8  and  C_9
REMARK    5  A    between atoms: C_9  and  N_10
REMARK    6  A    between atoms: C_11  and  C_13
REMARK                            x       y       z     vdW  Elec       q    Type
REMARK                         _______ _______ _______ _____ _____    ______ ____
ROOT
ATOM      1  C   UNL     1      46.995   4.812  14.414  0.00  0.00    +0.000 A 
ATOM      2  C   UNL     1      46.183   3.924  13.696  0.00  0.00    +0.000 A 
ATOM      3  C   UNL     1      45.677   4.275  12.439  0.00  0.00    +0.000 A 
ATOM      4  C   UNL     1      45.992   5.514  11.865  0.00  0.00    +0.000 A 
ATOM      5  C   UNL     1      46.812   6.398  12.579  0.00  0.00    +0.000 A 
ATOM      6  C   UNL     1      47.318   6.047  13.835  0.00  0.00    +0.000 A 
ENDROOT
BRANCH   1   7
ATOM      7  C   UNL     1      47.553   4.423  15.759  0.00  0.00    +0.000 C 
BRANCH   7  10
ATOM      8  O   UNL     1      50.060   5.176  16.716  0.00  0.00    +0.000 OA
ATOM      9  C   UNL     1      49.104   5.914  16.935  0.00  0.00    +0.000 C 
ATOM     10  N   UNL     1      47.825   5.586  16.562  0.00  0.00    +0.000 N 
ATOM     11  H   UNL     1      47.110   6.305  16.570  0.00  0.00    +0.000 HD
BRANCH   9  12
ATOM     12  C   UNL     1      49.264   7.185  17.652  0.00  0.00    +0.000 A 
ATOM     13  C   UNL     1      50.054   8.192  17.116  0.00  0.00    +0.000 A 
ATOM     14  S   UNL     1      50.151   9.581  18.103  0.00  0.00    +0.000 S 
ATOM     15  C   UNL     1      49.100   8.903  19.256  0.00  0.00    +0.000 A 
ATOM     16  N   UNL     1      48.737   9.597  20.370  0.00  0.00    +0.000 NA
ATOM     17  C   UNL     1      47.908   8.974  21.139  0.00  0.00    +0.000 A 
ATOM     18  N   UNL     1      47.410   7.720  20.901  0.00  0.00    +0.000 N 
ATOM     19  C   UNL     1      47.771   6.971  19.808  0.00  0.00    +0.000 A 
ATOM     20  O   UNL     1      47.345   5.832  19.650  0.00  0.00    +0.000 OA
ATOM     21  C   UNL     1      48.694   7.629  18.902  0.00  0.00    +0.000 A 
ATOM     22  H   UNL     1      46.772   7.284  21.549  0.00  0.00    +0.000 HD
ENDBRANCH   9  12
ENDBRANCH   7  10
ENDBRANCH   1   7
BRANCH   4  23
ATOM     23  C   UNL     1      45.471   5.885  10.501  0.00  0.00    +0.000 C 
BRANCH  23  24
ATOM     24  N   UNL     1      45.892   4.967   9.476  0.00  0.00    +0.000 N 
ATOM     25  C   UNL     1      44.972   4.266   8.728  0.00  0.00    +0.000 C 
ATOM     26  O   UNL     1      43.763   4.299   8.947  0.00  0.00    +0.000 OA
ATOM     27  H   UNL     1      46.844   4.979   9.116  0.00  0.00    +0.000 HD
BRANCH  25  28
ATOM     28  C   UNL     1      45.575   3.370   7.639  0.00  0.00    +0.000 C 
ATOM     29  C   UNL     1      46.137   2.084   8.211  0.00  0.00    +0.000 C 
ATOM     30  C   UNL     1      47.087   1.621   7.124  0.00  0.00    +0.000 C 
ATOM     31  C   UNL     1      47.568   2.902   6.457  0.00  0.00    +0.000 C 
ATOM     32  N   UNL     1      46.768   3.999   7.013  0.00  0.00    +0.000 NA
ATOM     33  H   UNL     1      46.466   4.629   6.270  0.00  0.00    +0.000 HD
ENDBRANCH  25  28
ENDBRANCH  23  24
ENDBRANCH   4  23
TORSDOF 6
ENDMDL
MODEL 7
REMARK VINA RESULT:    -6.568      3.588      8.792
REMARK INTER + INTRA:          -9.914
REMARK INTER:                  -9.079
REMARK INTRA:                  -0.835
REMARK UNBOUND:                -1.042
REMARK  Name = 
REMARK  6 active torsions:
REMARK  status: ('A' for Active; 'I' for Inactive)
REMARK    1  A    between atoms: C_2  and  C_20
REMARK    2  A    between atoms: N_3  and  C_4
REMARK    3  A    between atoms: C_4  and  C_5
REMARK    4  A    between atoms: C_8  and  C_9
REMARK    5  A    between atoms: C_9  and  N_10
REMARK    6  A    between atoms: C_11  and  C_13
REMARK                            x       y       z     vdW  Elec       q    Type
REMARK                         _______ _______ _______ _____ _____    ______ ____
ROOT
ATOM      1  C   UNL     1      49.031   7.872  13.056  0.00  0.00    +0.000 A 
ATOM      2  C   UNL     1      48.465   7.107  14.084  0.00  0.00    +0.000 A 
ATOM      3  C   UNL     1      49.171   6.867  15.268  0.00  0.00    +0.000 A 
ATOM      4  C   UNL     1      50.451   7.406  15.456  0.00  0.00    +0.000 A 
ATOM      5  C   UNL     1      51.013   8.179  14.431  0.00  0.00    +0.000 A 
ATOM      6  C   UNL     1      50.306   8.419  13.247  0.00  0.00    +0.000 A 
ENDROOT
BRANCH   1   7
ATOM      7  C   UNL     1      48.259   8.144  11.790  0.00  0.00    +0.000 C 
BRANCH   7  10
ATOM      8  O   UNL     1      45.487   7.858  11.737  0.00  0.00    +0.000 OA
ATOM      9  C   UNL     1      46.179   6.942  11.301  0.00  0.00    +0.000 C 
ATOM     10  N   UNL     1      47.549   6.969  11.354  0.00  0.00    +0.000 N 
ATOM     11  H   UNL     1      48.077   6.304  10.802  0.00  0.00    +0.000 HD
BRANCH   9  12
ATOM     12  C   UNL     1      45.577   5.731  10.730  0.00  0.00    +0.000 A 
ATOM     13  C   UNL     1      45.740   5.443   9.381  0.00  0.00    +0.000 A 
ATOM     14  S   UNL     1      44.943   4.016   8.888  0.00  0.00    +0.000 S 
ATOM     15  C   UNL     1      44.395   3.709  10.470  0.00  0.00    +0.000 A 
ATOM     16  N   UNL     1      43.656   2.602  10.755  0.00  0.00    +0.000 NA
ATOM     17  C   UNL     1      43.340   2.479  12.000  0.00  0.00    +0.000 A 
ATOM     18  N   UNL     1      43.690   3.361  12.989  0.00  0.00    +0.000 N 
ATOM     19  C   UNL     1      44.407   4.507  12.743  0.00  0.00    +0.000 A 
ATOM     20  O   UNL     1      44.662   5.302  13.642  0.00  0.00    +0.000 OA
ATOM     21  C   UNL     1      44.800   4.689  11.358  0.00  0.00    +0.000 A 
ATOM     22  H   UNL     1      43.400   3.213  13.943  0.00  0.00    +0.000 HD
ENDBRANCH   9  12
ENDBRANCH   7  10
ENDBRANCH   1   7
BRANCH   4  23
ATOM     23  C   UNL     1      51.204   7.172  16.739  0.00  0.00    +0.000 C 
BRANCH  23  24
ATOM     24  N   UNL     1      51.339   5.774  17.058  0.00  0.00    +0.000 N 
ATOM     25  C   UNL     1      50.497   5.168  17.962  0.00  0.00    +0.000 C 
ATOM     26  O   UNL     1      49.658   5.783  18.617  0.00  0.00    +0.000 OA
ATOM     27  H   UNL     1      51.890   5.151  16.472  0.00  0.00    +0.000 HD
BRANCH  25  28
ATOM     28  C   UNL     1      50.733   3.665  18.154  0.00  0.00    +0.000 C 
ATOM     29  C   UNL     1      52.194   3.295  17.993  0.00  0.00    +0.000 C 
ATOM     30  C   UNL     1      52.135   1.806  17.716  0.00  0.00    +0.000 C 
ATOM     31  C   UNL     1      50.800   1.595  17.014  0.00  0.00    +0.000 C 
ATOM     32  N   UNL     1      50.074   2.867  17.087  0.00  0.00    +0.000 NA
ATOM     33  H   UNL     1      49.099   2.705  17.341  0.00  0.00    +0.000 HD
ENDBRANCH  25  28
ENDBRANCH  23  24
ENDBRANCH   4  23
TORSDOF 6
ENDMDL
MODEL 8
REMARK VINA RESULT:    -6.513      4.068      7.860
REMARK INTER + INTRA:          -9.839
REMARK INTER:                  -8.801
REMARK INTRA:                  -1.038
REMARK UNBOUND:                -1.042
REMARK  Name = 
REMARK  6 active torsions:
REMARK  status: ('A' for Active; 'I' for Inactive)
REMARK    1  A    between atoms: C_2  and  C_20
REMARK    2  A    between atoms: N_3  and  C_4
REMARK    3  A    between atoms: C_4  and  C_5
REMARK    4  A    between atoms: C_8  and  C_9
REMARK    5  A    between atoms: C_9  and  N_10
REMARK    6  A    between atoms: C_11  and  C_13
REMARK                            x       y       z     vdW  Elec       q    Type
REMARK                         _______ _______ _______ _____ _____    ______ ____
ROOT
ATOM      1  C   UNL     1      47.785   8.456  11.931  0.00  0.00    +0.000 A 
ATOM      2  C   UNL     1      48.601   7.321  12.043  0.00  0.00    +0.000 A 
ATOM      3  C   UNL     1      49.991   7.427  11.927  0.00  0.00    +0.000 A 
ATOM      4  C   UNL     1      50.596   8.673  11.718  0.00  0.00    +0.000 A 
ATOM      5  C   UNL     1      49.781   9.809  11.616  0.00  0.00    +0.000 A 
ATOM      6  C   UNL     1      48.391   9.703  11.732  0.00  0.00    +0.000 A 
ENDROOT
BRANCH   1   7
ATOM      7  C   UNL     1      46.289   8.341  12.076  0.00  0.00    +0.000 C 
BRANCH   7  10
ATOM      8  O   UNL     1      43.734   7.543  11.299  0.00  0.00    +0.000 OA
ATOM      9  C   UNL     1      44.595   6.681  11.455  0.00  0.00    +0.000 C 
ATOM     10  N   UNL     1      45.856   6.978  11.904  0.00  0.00    +0.000 N 
ATOM     11  H   UNL     1      46.587   6.282  11.817  0.00  0.00    +0.000 HD
BRANCH   9  12
ATOM     12  C   UNL     1      44.313   5.262  11.209  0.00  0.00    +0.000 A 
ATOM     13  C   UNL     1      43.448   4.568  12.045  0.00  0.00    +0.000 A 
ATOM     14  S   UNL     1      43.268   2.924  11.627  0.00  0.00    +0.000 S 
ATOM     15  C   UNL     1      44.299   3.094  10.284  0.00  0.00    +0.000 A 
ATOM     16  N   UNL     1      44.561   2.043   9.460  0.00  0.00    +0.000 NA
ATOM     17  C   UNL     1      45.331   2.325   8.463  0.00  0.00    +0.000 A 
ATOM     18  N   UNL     1      45.868   3.560   8.214  0.00  0.00    +0.000 N 
ATOM     19  C   UNL     1      45.657   4.642   9.034  0.00  0.00    +0.000 A 
ATOM     20  O   UNL     1      46.194   5.723   8.810  0.00  0.00    +0.000 OA
ATOM     21  C   UNL     1      44.788   4.383  10.166  0.00  0.00    +0.000 A 
ATOM     22  H   UNL     1      46.473   3.713   7.422  0.00  0.00    +0.000 HD
ENDBRANCH   9  12
ENDBRANCH   7  10
ENDBRANCH   1   7
BRANCH   4  23
ATOM     23  C   UNL     1      52.094   8.795  11.618  0.00  0.00    +0.000 C 
BRANCH  23  24
ATOM     24  N   UNL     1      52.660   7.910  10.634  0.00  0.00    +0.000 N 
ATOM     25  C   UNL     1      52.851   8.322   9.334  0.00  0.00    +0.000 C 
ATOM     26  O   UNL     1      52.469   9.412   8.912  0.00  0.00    +0.000 OA
ATOM     27  H   UNL     1      53.142   7.056  10.907  0.00  0.00    +0.000 HD
BRANCH  25  28
ATOM     28  C   UNL     1      53.513   7.285   8.419  0.00  0.00    +0.000 C 
ATOM     29  C   UNL     1      52.519   6.658   7.461  0.00  0.00    +0.000 C 
ATOM     30  C   UNL     1      53.216   5.379   7.044  0.00  0.00    +0.000 C 
ATOM     31  C   UNL     1      54.072   4.995   8.243  0.00  0.00    +0.000 C 
ATOM     32  N   UNL     1      54.007   6.114   9.189  0.00  0.00    +0.000 NA
ATOM     33  H   UNL     1      54.936   6.320   9.558  0.00  0.00    +0.000 HD
ENDBRANCH  25  28
ENDBRANCH  23  24
ENDBRANCH   4  23
TORSDOF 6
ENDMDL
MODEL 9
REMARK VINA RESULT:    -6.442      3.280      8.200
REMARK INTER + INTRA:          -9.743
REMARK INTER:                  -8.749
REMARK INTRA:                  -0.994
REMARK UNBOUND:                -1.042
REMARK  Name = 
REMARK  6 active torsions:
REMARK  status: ('A' for Active; 'I' for Inactive)
REMARK    1  A    between atoms: C_2  and  C_20
REMARK    2  A    between atoms: N_3  and  C_4
REMARK    3  A    between atoms: C_4  and  C_5
REMARK    4  A    between atoms: C_8  and  C_9
REMARK    5  A    between atoms: C_9  and  N_10
REMARK    6  A    between atoms: C_11  and  C_13
REMARK                            x       y       z     vdW  Elec       q    Type
REMARK                         _______ _______ _______ _____ _____    ______ ____
ROOT
ATOM      1  C   UNL     1      45.005   4.636  12.332  0.00  0.00    +0.000 A 
ATOM      2  C   UNL     1      46.097   4.451  13.191  0.00  0.00    +0.000 A 
ATOM      3  C   UNL     1      46.886   5.536  13.586  0.00  0.00    +0.000 A 
ATOM      4  C   UNL     1      46.586   6.834  13.148  0.00  0.00    +0.000 A 
ATOM      5  C   UNL     1      45.488   7.019  12.297  0.00  0.00    +0.000 A 
ATOM      6  C   UNL     1      44.698   5.934  11.902  0.00  0.00    +0.000 A 
ENDROOT
BRANCH   1   7
ATOM      7  C   UNL     1      44.145   3.467  11.923  0.00  0.00    +0.000 C 
BRANCH   7  10
ATOM      8  O   UNL     1      43.885   3.745   9.163  0.00  0.00    +0.000 OA
ATOM      9  C   UNL     1      44.671   2.908   9.595  0.00  0.00    +0.000 C 
ATOM     10  N   UNL     1      44.809   2.656  10.936  0.00  0.00    +0.000 N 
ATOM     11  H   UNL     1      45.607   2.120  11.258  0.00  0.00    +0.000 HD
BRANCH   9  12
ATOM     12  C   UNL     1      45.491   2.087   8.695  0.00  0.00    +0.000 A 
ATOM     13  C   UNL     1      45.376   0.704   8.716  0.00  0.00    +0.000 A 
ATOM     14  S   UNL     1      46.429  -0.084   7.628  0.00  0.00    +0.000 S 
ATOM     15  C   UNL     1      47.037   1.398   7.056  0.00  0.00    +0.000 A 
ATOM     16  N   UNL     1      47.977   1.439   6.072  0.00  0.00    +0.000 NA
ATOM     17  C   UNL     1      48.321   2.630   5.713  0.00  0.00    +0.000 A 
ATOM     18  N   UNL     1      47.815   3.786   6.247  0.00  0.00    +0.000 N 
ATOM     19  C   UNL     1      46.889   3.793   7.262  0.00  0.00    +0.000 A 
ATOM     20  O   UNL     1      46.493   4.846   7.752  0.00  0.00    +0.000 OA
ATOM     21  C   UNL     1      46.458   2.479   7.697  0.00  0.00    +0.000 A 
ATOM     22  H   UNL     1      48.135   4.688   5.929  0.00  0.00    +0.000 HD
ENDBRANCH   9  12
ENDBRANCH   7  10
ENDBRANCH   1   7
BRANCH   4  23
ATOM     23  C   UNL     1      47.417   8.008  13.592  0.00  0.00    +0.000 C 
BRANCH  23  24
ATOM     24  N   UNL     1      48.502   8.295  12.689  0.00  0.00    +0.000 N 
ATOM     25  C   UNL     1      49.809   8.068  13.056  0.00  0.00    +0.000 C 
ATOM     26  O   UNL     1      50.138   7.708  14.185  0.00  0.00    +0.000 OA
ATOM     27  H   UNL     1      48.336   8.448  11.697  0.00  0.00    +0.000 HD
BRANCH  25  28
ATOM     28  C   UNL     1      50.846   8.372  11.967  0.00  0.00    +0.000 C 
ATOM     29  C   UNL     1      50.757   7.396  10.811  0.00  0.00    +0.000 C 
ATOM     30  C   UNL     1      52.112   7.539  10.146  0.00  0.00    +0.000 C 
ATOM     31  C   UNL     1      53.060   7.916  11.276  0.00  0.00    +0.000 C 
ATOM     32  N   UNL     1      52.232   8.169  12.461  0.00  0.00    +0.000 NA
ATOM     33  H   UNL     1      52.547   9.014  12.939  0.00  0.00    +0.000 HD
ENDBRANCH  25  28
ENDBRANCH  23  24
ENDBRANCH   4  23
TORSDOF 6
ENDMDL
