MODEL 1
REMARK VINA RESULT:    -9.314      0.000      0.000
REMARK INTER + INTRA:         -13.156
REMARK INTER:                 -12.309
REMARK INTRA:                  -0.848
REMARK UNBOUND:                -0.848
REMARK  Name = 
REMARK  7 active torsions:
REMARK  status: ('A' for Active; 'I' for Inactive)
REMARK    1  A    between atoms: C_1  and  C_2
REMARK    2  A    between atoms: C_2  and  N_3
REMARK    3  A    between atoms: C_2  and  C_19
REMARK    4  A    between atoms: C_7  and  C_8
REMARK    5  A    between atoms: C_8  and  O_9
REMARK    6  A    between atoms: C_8  and  C_10
REMARK    7  A    between atoms: C_10  and  C_11
REMARK                            x       y       z     vdW  Elec       q    Type
REMARK                         _______ _______ _______ _____ _____    ______ ____
ROOT
ATOM      1  N   UNL     1      47.378   4.927  15.265  0.00  0.00    +0.000 N 
ATOM      2  C   UNL     1      46.570   4.515  14.211  0.00  0.00    +0.000 A 
ATOM      3  C   UNL     1      45.740   5.461  13.627  0.00  0.00    +0.000 A 
ATOM      4  C   UNL     1      44.872   5.089  12.607  0.00  0.00    +0.000 A 
ATOM      5  C   UNL     1      44.897   3.777  12.169  0.00  0.00    +0.000 A 
ATOM      6  N   UNL     1      45.773   2.894  12.696  0.00  0.00    +0.000 NA
ATOM      7  N   UNL     1      46.593   3.259  13.733  0.00  0.00    +0.000 NA
ATOM      8  H   UNL     1      48.131   5.491  14.881  0.00  0.00    +0.000 HD
ENDROOT
BRANCH   1  10
ATOM      9  C   UNL     1      46.862   3.518  17.296  0.00  0.00    +0.000 C 
ATOM     10  C   UNL     1      47.904   3.988  16.270  0.00  0.00    +0.000 C 
BRANCH  10  11
ATOM     11  C   UNL     1      49.053   4.655  17.023  0.00  0.00    +0.000 A 
ATOM     12  C   UNL     1      49.073   6.002  17.363  0.00  0.00    +0.000 A 
ATOM     13  S   UNL     1      50.509   6.474  18.154  0.00  0.00    +0.000 S 
ATOM     14  C   UNL     1      51.133   4.891  18.092  0.00  0.00    +0.000 A 
ATOM     15  N   UNL     1      52.363   4.591  18.588  0.00  0.00    +0.000 NA
ATOM     16  C   UNL     1      52.683   3.343  18.489  0.00  0.00    +0.000 A 
ATOM     17  N   UNL     1      51.883   2.364  17.948  0.00  0.00    +0.000 N 
ATOM     18  C   UNL     1      50.641   2.621  17.419  0.00  0.00    +0.000 A 
ATOM     19  O   UNL     1      49.945   1.731  16.935  0.00  0.00    +0.000 OA
ATOM     20  C   UNL     1      50.248   4.011  17.493  0.00  0.00    +0.000 A 
ATOM     21  H   UNL     1      52.190   1.404  17.915  0.00  0.00    +0.000 HD
ENDBRANCH  10  11
ENDBRANCH   1  10
BRANCH   5  22
ATOM     22  C   UNL     1      44.045   3.324  11.003  0.00  0.00    +0.000 C 
BRANCH  22  23
ATOM     23  O   UNL     1      42.665   3.418  11.392  0.00  0.00    +0.000 OA
ATOM     24  H   UNL     1      42.646   3.657  12.335  0.00  0.00    +0.000 HD
ENDBRANCH  22  23
BRANCH  22  25
ATOM     25  C   UNL     1      44.314   4.174   9.752  0.00  0.00    +0.000 C 
BRANCH  25  26
ATOM     26  C   UNL     1      45.241   3.467   8.800  0.00  0.00    +0.000 A 
ATOM     27  C   UNL     1      45.409   2.086   8.890  0.00  0.00    +0.000 A 
ATOM     28  C   UNL     1      46.320   1.463   8.046  0.00  0.00    +0.000 A 
ATOM     29  C   UNL     1      47.033   2.232   7.135  0.00  0.00    +0.000 A 
ATOM     30  C   UNL     1      46.795   3.597   7.102  0.00  0.00    +0.000 A 
ATOM     31  N   UNL     1      45.920   4.231   7.911  0.00  0.00    +0.000 NA
ENDBRANCH  25  26
ENDBRANCH  22  25
ENDBRANCH   5  22
TORSDOF 6
ENDMDL
MODEL 2
REMARK VINA RESULT:    -7.929      1.863      2.307
REMARK INTER + INTRA:         -11.326
REMARK INTER:                 -10.603
REMARK INTRA:                  -0.722
REMARK UNBOUND:                -0.848
REMARK  Name = 
REMARK  7 active torsions:
REMARK  status: ('A' for Active; 'I' for Inactive)
REMARK    1  A    between atoms: C_1  and  C_2
REMARK    2  A    between atoms: C_2  and  N_3
REMARK    3  A    between atoms: C_2  and  C_19
REMARK    4  A    between atoms: C_7  and  C_8
REMARK    5  A    between atoms: C_8  and  O_9
REMARK    6  A    between atoms: C_8  and  C_10
REMARK    7  A    between atoms: C_10  and  C_11
REMARK                            x       y       z     vdW  Elec       q    Type
REMARK                         _______ _______ _______ _____ _____    ______ ____
ROOT
ATOM      1  N   UNL     1      47.543   4.916  15.034  0.00  0.00    +0.000 N 
ATOM      2  C   UNL     1      46.612   4.631  14.041  0.00  0.00    +0.000 A 
ATOM      3  C   UNL     1      46.579   3.337  13.540  0.00  0.00    +0.000 A 
ATOM      4  C   UNL     1      45.706   3.015  12.507  0.00  0.00    +0.000 A 
ATOM      5  C   UNL     1      44.853   3.996  12.037  0.00  0.00    +0.000 A 
ATOM      6  N   UNL     1      44.845   5.226  12.597  0.00  0.00    +0.000 NA
ATOM      7  N   UNL     1      45.742   5.548  13.584  0.00  0.00    +0.000 NA
ATOM      8  H   UNL     1      47.221   4.487  15.897  0.00  0.00    +0.000 HD
ENDROOT
BRANCH   1  10
ATOM      9  C   UNL     1      48.658   6.965  14.070  0.00  0.00    +0.000 C 
ATOM     10  C   UNL     1      48.029   6.281  15.293  0.00  0.00    +0.000 C 
BRANCH  10  11
ATOM     11  C   UNL     1      49.071   6.238  16.408  0.00  0.00    +0.000 A 
ATOM     12  C   UNL     1      50.330   6.816  16.309  0.00  0.00    +0.000 A 
ATOM     13  S   UNL     1      51.297   6.561  17.692  0.00  0.00    +0.000 S 
ATOM     14  C   UNL     1      50.055   5.696  18.472  0.00  0.00    +0.000 A 
ATOM     15  N   UNL     1      50.229   5.165  19.712  0.00  0.00    +0.000 NA
ATOM     16  C   UNL     1      49.187   4.560  20.179  0.00  0.00    +0.000 A 
ATOM     17  N   UNL     1      47.983   4.446  19.525  0.00  0.00    +0.000 N 
ATOM     18  C   UNL     1      47.765   4.950  18.265  0.00  0.00    +0.000 A 
ATOM     19  O   UNL     1      46.681   4.830  17.697  0.00  0.00    +0.000 OA
ATOM     20  C   UNL     1      48.912   5.621  17.696  0.00  0.00    +0.000 A 
ATOM     21  H   UNL     1      47.204   3.971  19.955  0.00  0.00    +0.000 HD
ENDBRANCH  10  11
ENDBRANCH   1  10
BRANCH   5  22
ATOM     22  C   UNL     1      43.816   3.692  10.978  0.00  0.00    +0.000 C 
BRANCH  22  23
ATOM     23  O   UNL     1      42.527   4.066  11.491  0.00  0.00    +0.000 OA
ATOM     24  H   UNL     1      42.316   3.454  12.218  0.00  0.00    +0.000 HD
ENDBRANCH  22  23
BRANCH  22  25
ATOM     25  C   UNL     1      44.116   4.442   9.671  0.00  0.00    +0.000 C 
BRANCH  25  26
ATOM     26  C   UNL     1      45.072   3.668   8.804  0.00  0.00    +0.000 A 
ATOM     27  C   UNL     1      45.181   2.286   8.952  0.00  0.00    +0.000 A 
ATOM     28  C   UNL     1      46.118   1.601   8.189  0.00  0.00    +0.000 A 
ATOM     29  C   UNL     1      46.914   2.309   7.298  0.00  0.00    +0.000 A 
ATOM     30  C   UNL     1      46.731   3.680   7.203  0.00  0.00    +0.000 A 
ATOM     31  N   UNL     1      45.833   4.374   7.933  0.00  0.00    +0.000 NA
ENDBRANCH  25  26
ENDBRANCH  22  25
ENDBRANCH   5  22
TORSDOF 6
ENDMDL
MODEL 3
REMARK VINA RESULT:    -7.823      2.285      2.934
REMARK INTER + INTRA:         -11.186
REMARK INTER:                 -10.721
REMARK INTRA:                  -0.465
REMARK UNBOUND:                -0.848
REMARK  Name = 
REMARK  7 active torsions:
REMARK  status: ('A' for Active; 'I' for Inactive)
REMARK    1  A    between atoms: C_1  and  C_2
REMARK    2  A    between atoms: C_2  and  N_3
REMARK    3  A    between atoms: C_2  and  C_19
REMARK    4  A    between atoms: C_7  and  C_8
REMARK    5  A    between atoms: C_8  and  O_9
REMARK    6  A    between atoms: C_8  and  C_10
REMARK    7  A    between atoms: C_10  and  C_11
REMARK                            x       y       z     vdW  Elec       q    Type
REMARK                         _______ _______ _______ _____ _____    ______ ____
ROOT
ATOM      1  N   UNL     1      47.456   6.088  14.429  0.00  0.00    +0.000 N 
ATOM      2  C   UNL     1      46.629   5.438  13.519  0.00  0.00    +0.000 A 
ATOM      3  C   UNL     1      46.443   4.072  13.679  0.00  0.00    +0.000 A 
ATOM      4  C   UNL     1      45.671   3.365  12.765  0.00  0.00    +0.000 A 
ATOM      5  C   UNL     1      45.067   4.063  11.735  0.00  0.00    +0.000 A 
ATOM      6  N   UNL     1      45.195   5.405  11.648  0.00  0.00    +0.000 NA
ATOM      7  N   UNL     1      45.996   6.089  12.528  0.00  0.00    +0.000 NA
ATOM      8  H   UNL     1      46.955   6.163  15.310  0.00  0.00    +0.000 HD
ENDROOT
BRANCH   1  10
ATOM      9  C   UNL     1      49.430   7.200  13.314  0.00  0.00    +0.000 C 
ATOM     10  C   UNL     1      48.129   7.359  14.115  0.00  0.00    +0.000 C 
BRANCH  10  11
ATOM     11  C   UNL     1      48.454   8.087  15.418  0.00  0.00    +0.000 A 
ATOM     12  C   UNL     1      48.231   9.443  15.619  0.00  0.00    +0.000 A 
ATOM     13  S   UNL     1      48.741   9.987  17.154  0.00  0.00    +0.000 S 
ATOM     14  C   UNL     1      49.247   8.425  17.604  0.00  0.00    +0.000 A 
ATOM     15  N   UNL     1      49.811   8.182  18.817  0.00  0.00    +0.000 NA
ATOM     16  C   UNL     1      50.118   6.942  19.019  0.00  0.00    +0.000 A 
ATOM     17  N   UNL     1      49.904   5.922  18.123  0.00  0.00    +0.000 N 
ATOM     18  C   UNL     1      49.355   6.120  16.879  0.00  0.00    +0.000 A 
ATOM     19  O   UNL     1      49.178   5.193  16.092  0.00  0.00    +0.000 OA
ATOM     20  C   UNL     1      49.011   7.498  16.604  0.00  0.00    +0.000 A 
ATOM     21  H   UNL     1      50.155   4.972  18.351  0.00  0.00    +0.000 HD
ENDBRANCH  10  11
ENDBRANCH   1  10
BRANCH   5  22
ATOM     22  C   UNL     1      44.141   3.373  10.756  0.00  0.00    +0.000 C 
BRANCH  22  23
ATOM     23  O   UNL     1      42.801   3.461  11.267  0.00  0.00    +0.000 OA
ATOM     24  H   UNL     1      42.827   3.178  12.198  0.00  0.00    +0.000 HD
ENDBRANCH  22  23
BRANCH  22  25
ATOM     25  C   UNL     1      44.231   4.009   9.361  0.00  0.00    +0.000 C 
BRANCH  25  26
ATOM     26  C   UNL     1      45.253   3.309   8.506  0.00  0.00    +0.000 A 
ATOM     27  C   UNL     1      45.517   1.955   8.706  0.00  0.00    +0.000 A 
ATOM     28  C   UNL     1      46.512   1.346   7.952  0.00  0.00    +0.000 A 
ATOM     29  C   UNL     1      47.212   2.100   7.019  0.00  0.00    +0.000 A 
ATOM     30  C   UNL     1      46.877   3.437   6.875  0.00  0.00    +0.000 A 
ATOM     31  N   UNL     1      45.919   4.059   7.594  0.00  0.00    +0.000 NA
ENDBRANCH  25  26
ENDBRANCH  22  25
ENDBRANCH   5  22
TORSDOF 6
ENDMDL
MODEL 4
REMARK VINA RESULT:    -7.656      3.250      4.191
REMARK INTER + INTRA:         -10.965
REMARK INTER:                 -10.165
REMARK INTRA:                  -0.801
REMARK UNBOUND:                -0.848
REMARK  Name = 
REMARK  7 active torsions:
REMARK  status: ('A' for Active; 'I' for Inactive)
REMARK    1  A    between atoms: C_1  and  C_2
REMARK    2  A    between atoms: C_2  and  N_3
REMARK    3  A    between atoms: C_2  and  C_19
REMARK    4  A    between atoms: C_7  and  C_8
REMARK    5  A    between atoms: C_8  and  O_9
REMARK    6  A    between atoms: C_8  and  C_10
REMARK    7  A    between atoms: C_10  and  C_11
REMARK                            x       y       z     vdW  Elec       q    Type
REMARK                         _______ _______ _______ _____ _____    ______ ____
ROOT
ATOM      1  N   UNL     1      47.620   5.858  14.393  0.00  0.00    +0.000 N 
ATOM      2  C   UNL     1      46.727   5.280  13.497  0.00  0.00    +0.000 A 
ATOM      3  C   UNL     1      46.536   3.907  13.573  0.00  0.00    +0.000 A 
ATOM      4  C   UNL     1      45.697   3.272  12.665  0.00  0.00    +0.000 A 
ATOM      5  C   UNL     1      45.034   4.046  11.730  0.00  0.00    +0.000 A 
ATOM      6  N   UNL     1      45.172   5.390  11.728  0.00  0.00    +0.000 NA
ATOM      7  N   UNL     1      46.037   6.004  12.599  0.00  0.00    +0.000 NA
ATOM      8  H   UNL     1      47.179   5.874  15.309  0.00  0.00    +0.000 HD
ENDROOT
BRANCH   1  10
ATOM      9  C   UNL     1      49.293   7.100  12.967  0.00  0.00    +0.000 C 
ATOM     10  C   UNL     1      48.285   7.144  14.125  0.00  0.00    +0.000 C 
BRANCH  10  11
ATOM     11  C   UNL     1      49.020   7.598  15.385  0.00  0.00    +0.000 A 
ATOM     12  C   UNL     1      49.525   6.725  16.339  0.00  0.00    +0.000 A 
ATOM     13  S   UNL     1      50.249   7.523  17.663  0.00  0.00    +0.000 S 
ATOM     14  C   UNL     1      49.934   9.054  16.988  0.00  0.00    +0.000 A 
ATOM     15  N   UNL     1      50.285  10.200  17.630  0.00  0.00    +0.000 NA
ATOM     16  C   UNL     1      50.001  11.279  16.977  0.00  0.00    +0.000 A 
ATOM     17  N   UNL     1      49.409  11.318  15.737  0.00  0.00    +0.000 N 
ATOM     18  C   UNL     1      49.021  10.189  15.058  0.00  0.00    +0.000 A 
ATOM     19  O   UNL     1      48.487  10.247  13.952  0.00  0.00    +0.000 OA
ATOM     20  C   UNL     1      49.303   8.956  15.760  0.00  0.00    +0.000 A 
ATOM     21  H   UNL     1      49.229  12.197  15.277  0.00  0.00    +0.000 HD
ENDBRANCH  10  11
ENDBRANCH   1  10
BRANCH   5  22
ATOM     22  C   UNL     1      44.038   3.433  10.769  0.00  0.00    +0.000 C 
BRANCH  22  23
ATOM     23  O   UNL     1      42.720   3.620  11.309  0.00  0.00    +0.000 OA
ATOM     24  H   UNL     1      42.088   3.493  10.580  0.00  0.00    +0.000 HD
ENDBRANCH  22  23
BRANCH  22  25
ATOM     25  C   UNL     1      44.146   4.067   9.374  0.00  0.00    +0.000 C 
BRANCH  25  26
ATOM     26  C   UNL     1      45.201   3.385   8.544  0.00  0.00    +0.000 A 
ATOM     27  C   UNL     1      45.430   2.018   8.697  0.00  0.00    +0.000 A 
ATOM     28  C   UNL     1      46.453   1.423   7.971  0.00  0.00    +0.000 A 
ATOM     29  C   UNL     1      47.215   2.204   7.111  0.00  0.00    +0.000 A 
ATOM     30  C   UNL     1      46.912   3.552   7.008  0.00  0.00    +0.000 A 
ATOM     31  N   UNL     1      45.927   4.160   7.703  0.00  0.00    +0.000 NA
ENDBRANCH  25  26
ENDBRANCH  22  25
ENDBRANCH   5  22
TORSDOF 6
ENDMDL
MODEL 5
REMARK VINA RESULT:    -7.136      3.763      4.476
REMARK INTER + INTRA:         -10.278
REMARK INTER:                 -10.106
REMARK INTRA:                  -0.171
REMARK UNBOUND:                -0.848
REMARK  Name = 
REMARK  7 active torsions:
REMARK  status: ('A' for Active; 'I' for Inactive)
REMARK    1  A    between atoms: C_1  and  C_2
REMARK    2  A    between atoms: C_2  and  N_3
REMARK    3  A    between atoms: C_2  and  C_19
REMARK    4  A    between atoms: C_7  and  C_8
REMARK    5  A    between atoms: C_8  and  O_9
REMARK    6  A    between atoms: C_8  and  C_10
REMARK    7  A    between atoms: C_10  and  C_11
REMARK                            x       y       z     vdW  Elec       q    Type
REMARK                         _______ _______ _______ _____ _____    ______ ____
ROOT
ATOM      1  N   UNL     1      46.703   7.430  13.849  0.00  0.00    +0.000 N 
ATOM      2  C   UNL     1      46.118   6.451  13.053  0.00  0.00    +0.000 A 
ATOM      3  C   UNL     1      46.197   5.135  13.487  0.00  0.00    +0.000 A 
ATOM      4  C   UNL     1      45.678   4.112  12.702  0.00  0.00    +0.000 A 
ATOM      5  C   UNL     1      45.050   4.448  11.516  0.00  0.00    +0.000 A 
ATOM      6  N   UNL     1      44.912   5.743  11.155  0.00  0.00    +0.000 NA
ATOM      7  N   UNL     1      45.468   6.742  11.913  0.00  0.00    +0.000 NA
ATOM      8  H   UNL     1      46.113   7.564  14.665  0.00  0.00    +0.000 HD
ENDROOT
BRANCH   1  10
ATOM      9  C   UNL     1      46.329   9.201  12.089  0.00  0.00    +0.000 C 
ATOM     10  C   UNL     1      47.132   8.732  13.311  0.00  0.00    +0.000 C 
BRANCH  10  11
ATOM     11  C   UNL     1      48.605   8.646  12.915  0.00  0.00    +0.000 A 
ATOM     12  C   UNL     1      49.052   8.680  11.600  0.00  0.00    +0.000 A 
ATOM     13  S   UNL     1      50.745   8.512  11.462  0.00  0.00    +0.000 S 
ATOM     14  C   UNL     1      50.932   8.419  13.152  0.00  0.00    +0.000 A 
ATOM     15  N   UNL     1      52.154   8.249  13.723  0.00  0.00    +0.000 NA
ATOM     16  C   UNL     1      52.134   8.224  15.016  0.00  0.00    +0.000 A 
ATOM     17  N   UNL     1      51.006   8.362  15.789  0.00  0.00    +0.000 N 
ATOM     18  C   UNL     1      49.748   8.517  15.258  0.00  0.00    +0.000 A 
ATOM     19  O   UNL     1      48.753   8.633  15.969  0.00  0.00    +0.000 OA
ATOM     20  C   UNL     1      49.721   8.534  13.812  0.00  0.00    +0.000 A 
ATOM     21  H   UNL     1      51.064   8.347  16.796  0.00  0.00    +0.000 HD
ENDBRANCH  10  11
ENDBRANCH   1  10
BRANCH   5  22
ATOM     22  C   UNL     1      44.384   3.396  10.656  0.00  0.00    +0.000 C 
BRANCH  22  23
ATOM     23  O   UNL     1      43.046   3.201  11.140  0.00  0.00    +0.000 OA
ATOM     24  H   UNL     1      42.965   3.694  11.975  0.00  0.00    +0.000 HD
ENDBRANCH  22  23
BRANCH  22  25
ATOM     25  C   UNL     1      44.370   3.812   9.177  0.00  0.00    +0.000 C 
BRANCH  25  26
ATOM     26  C   UNL     1      45.399   3.051   8.385  0.00  0.00    +0.000 A 
ATOM     27  C   UNL     1      46.071   3.676   7.336  0.00  0.00    +0.000 A 
ATOM     28  C   UNL     1      46.966   2.936   6.575  0.00  0.00    +0.000 A 
ATOM     29  C   UNL     1      47.171   1.597   6.884  0.00  0.00    +0.000 A 
ATOM     30  C   UNL     1      46.473   1.057   7.952  0.00  0.00    +0.000 A 
ATOM     31  N   UNL     1      45.593   1.749   8.707  0.00  0.00    +0.000 NA
ENDBRANCH  25  26
ENDBRANCH  22  25
ENDBRANCH   5  22
TORSDOF 6
ENDMDL
MODEL 6
REMARK VINA RESULT:    -6.628      3.400      9.270
REMARK INTER + INTRA:          -9.607
REMARK INTER:                  -8.486
REMARK INTRA:                  -1.121
REMARK UNBOUND:                -0.848
REMARK  Name = 
REMARK  7 active torsions:
REMARK  status: ('A' for Active; 'I' for Inactive)
REMARK    1  A    between atoms: C_1  and  C_2
REMARK    2  A    between atoms: C_2  and  N_3
REMARK    3  A    between atoms: C_2  and  C_19
REMARK    4  A    between atoms: C_7  and  C_8
REMARK    5  A    between atoms: C_8  and  O_9
REMARK    6  A    between atoms: C_8  and  C_10
REMARK    7  A    between atoms: C_10  and  C_11
REMARK                            x       y       z     vdW  Elec       q    Type
REMARK                         _______ _______ _______ _____ _____    ______ ____
ROOT
ATOM      1  N   UNL     1      48.055   7.185  14.743  0.00  0.00    +0.000 N 
ATOM      2  C   UNL     1      48.621   6.728  15.928  0.00  0.00    +0.000 A 
ATOM      3  C   UNL     1      48.832   7.655  16.940  0.00  0.00    +0.000 A 
ATOM      4  C   UNL     1      49.446   7.263  18.124  0.00  0.00    +0.000 A 
ATOM      5  C   UNL     1      49.791   5.932  18.275  0.00  0.00    +0.000 A 
ATOM      6  N   UNL     1      49.500   5.033  17.310  0.00  0.00    +0.000 NA
ATOM      7  N   UNL     1      48.936   5.437  16.127  0.00  0.00    +0.000 NA
ATOM      8  H   UNL     1      47.070   7.364  14.915  0.00  0.00    +0.000 HD
ENDROOT
BRANCH   1  10
ATOM      9  C   UNL     1      49.195   7.172  12.490  0.00  0.00    +0.000 C 
ATOM     10  C   UNL     1      48.229   6.479  13.463  0.00  0.00    +0.000 C 
BRANCH  10  11
ATOM     11  C   UNL     1      46.870   6.347  12.777  0.00  0.00    +0.000 A 
ATOM     12  C   UNL     1      46.214   7.402  12.157  0.00  0.00    +0.000 A 
ATOM     13  S   UNL     1      44.690   6.967  11.524  0.00  0.00    +0.000 S 
ATOM     14  C   UNL     1      44.875   5.353  12.033  0.00  0.00    +0.000 A 
ATOM     15  N   UNL     1      43.904   4.425  11.820  0.00  0.00    +0.000 NA
ATOM     16  C   UNL     1      44.204   3.240  12.241  0.00  0.00    +0.000 A 
ATOM     17  N   UNL     1      45.389   2.896  12.847  0.00  0.00    +0.000 N 
ATOM     18  C   UNL     1      46.391   3.801  13.099  0.00  0.00    +0.000 A 
ATOM     19  O   UNL     1      47.441   3.471  13.648  0.00  0.00    +0.000 OA
ATOM     20  C   UNL     1      46.091   5.145  12.660  0.00  0.00    +0.000 A 
ATOM     21  H   UNL     1      45.563   1.946  13.139  0.00  0.00    +0.000 HD
ENDBRANCH  10  11
ENDBRANCH   1  10
BRANCH   5  22
ATOM     22  C   UNL     1      50.381   5.418  19.571  0.00  0.00    +0.000 C 
BRANCH  22  23
ATOM     23  O   UNL     1      50.124   4.006  19.653  0.00  0.00    +0.000 OA
ATOM     24  H   UNL     1      50.923   3.548  19.339  0.00  0.00    +0.000 HD
ENDBRANCH  22  23
BRANCH  22  25
ATOM     25  C   UNL     1      51.889   5.698  19.647  0.00  0.00    +0.000 C 
BRANCH  25  26
ATOM     26  C   UNL     1      52.688   4.429  19.523  0.00  0.00    +0.000 A 
ATOM     27  C   UNL     1      53.479   3.999  20.588  0.00  0.00    +0.000 A 
ATOM     28  C   UNL     1      54.261   2.862  20.428  0.00  0.00    +0.000 A 
ATOM     29  C   UNL     1      54.229   2.184  19.216  0.00  0.00    +0.000 A 
ATOM     30  C   UNL     1      53.405   2.672  18.214  0.00  0.00    +0.000 A 
ATOM     31  N   UNL     1      52.637   3.775  18.338  0.00  0.00    +0.000 NA
ENDBRANCH  25  26
ENDBRANCH  22  25
ENDBRANCH   5  22
TORSDOF 6
ENDMDL
MODEL 7
REMARK VINA RESULT:    -6.462      5.458      8.745
REMARK INTER + INTRA:          -9.388
REMARK INTER:                  -8.354
REMARK INTRA:                  -1.034
REMARK UNBOUND:                -0.848
REMARK  Name = 
REMARK  7 active torsions:
REMARK  status: ('A' for Active; 'I' for Inactive)
REMARK    1  A    between atoms: C_1  and  C_2
REMARK    2  A    between atoms: C_2  and  N_3
REMARK    3  A    between atoms: C_2  and  C_19
REMARK    4  A    between atoms: C_7  and  C_8
REMARK    5  A    between atoms: C_8  and  O_9
REMARK    6  A    between atoms: C_8  and  C_10
REMARK    7  A    between atoms: C_10  and  C_11
REMARK                            x       y       z     vdW  Elec       q    Type
REMARK                         _______ _______ _______ _____ _____    ______ ____
ROOT
ATOM      1  N   UNL     1      46.681   6.299  12.651  0.00  0.00    +0.000 N 
ATOM      2  C   UNL     1      47.928   6.911  12.593  0.00  0.00    +0.000 A 
ATOM      3  C   UNL     1      48.592   7.138  13.791  0.00  0.00    +0.000 A 
ATOM      4  C   UNL     1      49.815   7.797  13.793  0.00  0.00    +0.000 A 
ATOM      5  C   UNL     1      50.363   8.170  12.580  0.00  0.00    +0.000 A 
ATOM      6  N   UNL     1      49.739   7.865  11.421  0.00  0.00    +0.000 NA
ATOM      7  N   UNL     1      48.510   7.255  11.431  0.00  0.00    +0.000 NA
ATOM      8  H   UNL     1      46.824   5.317  12.869  0.00  0.00    +0.000 HD
ENDROOT
BRANCH   1  10
ATOM      9  C   UNL     1      44.651   7.555  11.832  0.00  0.00    +0.000 C 
ATOM     10  C   UNL     1      45.681   6.444  11.581  0.00  0.00    +0.000 C 
BRANCH  10  11
ATOM     11  C   UNL     1      44.931   5.123  11.416  0.00  0.00    +0.000 A 
ATOM     12  C   UNL     1      44.123   4.567  12.399  0.00  0.00    +0.000 A 
ATOM     13  S   UNL     1      43.459   3.061  11.951  0.00  0.00    +0.000 S 
ATOM     14  C   UNL     1      44.206   3.121  10.422  0.00  0.00    +0.000 A 
ATOM     15  N   UNL     1      44.064   2.112   9.522  0.00  0.00    +0.000 NA
ATOM     16  C   UNL     1      44.671   2.317   8.399  0.00  0.00    +0.000 A 
ATOM     17  N   UNL     1      45.398   3.441   8.090  0.00  0.00    +0.000 N 
ATOM     18  C   UNL     1      45.584   4.478   8.972  0.00  0.00    +0.000 A 
ATOM     19  O   UNL     1      46.244   5.472   8.676  0.00  0.00    +0.000 OA
ATOM     20  C   UNL     1      44.936   4.284  10.250  0.00  0.00    +0.000 A 
ATOM     21  H   UNL     1      45.836   3.543   7.186  0.00  0.00    +0.000 HD
ENDBRANCH  10  11
ENDBRANCH   1  10
BRANCH   5  22
ATOM     22  C   UNL     1      51.733   8.811  12.501  0.00  0.00    +0.000 C 
BRANCH  22  23
ATOM     23  O   UNL     1      52.645   8.016  13.276  0.00  0.00    +0.000 OA
ATOM     24  H   UNL     1      52.570   7.099  12.960  0.00  0.00    +0.000 HD
ENDBRANCH  22  23
BRANCH  22  25
ATOM     25  C   UNL     1      52.213   8.922  11.046  0.00  0.00    +0.000 C 
BRANCH  25  26
ATOM     26  C   UNL     1      53.211   7.845  10.716  0.00  0.00    +0.000 A 
ATOM     27  C   UNL     1      52.801   6.706  10.025  0.00  0.00    +0.000 A 
ATOM     28  C   UNL     1      53.724   5.694   9.791  0.00  0.00    +0.000 A 
ATOM     29  C   UNL     1      55.027   5.847  10.247  0.00  0.00    +0.000 A 
ATOM     30  C   UNL     1      55.354   7.017  10.913  0.00  0.00    +0.000 A 
ATOM     31  N   UNL     1      54.480   8.016  11.160  0.00  0.00    +0.000 NA
ENDBRANCH  25  26
ENDBRANCH  22  25
ENDBRANCH   5  22
TORSDOF 6
ENDMDL
