MODEL 1
REMARK VINA RESULT:    -8.961      0.000      0.000
REMARK INTER + INTRA:         -14.626
REMARK INTER:                 -13.151
REMARK INTRA:                  -1.474
REMARK UNBOUND:                -1.474
REMARK  Name = 
REMARK  10 active torsions:
REMARK  status: ('A' for Active; 'I' for Inactive)
REMARK    1  A    between atoms: C_1  and  C_2
REMARK    2  A    between atoms: C_2  and  C_3
REMARK    3  A    between atoms: C_3  and  N_4
REMARK    4  A    between atoms: C_3  and  C_27
REMARK    5  A    between atoms: N_4  and  C_5
REMARK    6  A    between atoms: C_5  and  C_6
REMARK    7  A    between atoms: C_9  and  C_10
REMARK    8  A    between atoms: C_10  and  N_11
REMARK    9  A    between atoms: C_12  and  C_14
REMARK   10  A    between atoms: N_20  and  C_21
REMARK                            x       y       z     vdW  Elec       q    Type
REMARK                         _______ _______ _______ _____ _____    ______ ____
ROOT
ATOM      1  C   UNL     1      45.529   6.627  11.251  0.00  0.00    +0.000 C 
ATOM      2  C   UNL     1      44.527   6.280  12.353  0.00  0.00    +0.000 C 
ATOM      3  C   UNL     1      45.045   5.192  13.292  0.00  0.00    +0.000 C 
ATOM      4  C   UNL     1      46.441   5.518  13.863  0.00  0.00    +0.000 C 
ATOM      5  C   UNL     1      47.434   5.890  12.755  0.00  0.00    +0.000 C 
ATOM      6  C   UNL     1      46.882   7.016  11.878  0.00  0.00    +0.000 C 
ENDROOT
BRANCH   1   7
ATOM      7  C   UNL     1      45.772   5.473  10.262  0.00  0.00    +0.000 C 
BRANCH   7   8
ATOM      8  N   UNL     1      44.659   5.118   9.400  0.00  0.00    +0.000 NA
ATOM      9  H   UNL     1      43.805   5.525   9.785  0.00  0.00    +0.000 HD
BRANCH   8  10
ATOM     10  C   UNL     1      44.462   3.643   9.313  0.00  0.00    +0.000 C 
BRANCH  10  11
ATOM     11  C   UNL     1      45.462   3.032   8.304  0.00  0.00    +0.000 A 
ATOM     12  C   UNL     1      45.941   1.724   8.442  0.00  0.00    +0.000 A 
ATOM     13  C   UNL     1      46.847   1.220   7.511  0.00  0.00    +0.000 A 
ATOM     14  C   UNL     1      47.234   2.012   6.440  0.00  0.00    +0.000 A 
ATOM     15  C   UNL     1      46.712   3.292   6.361  0.00  0.00    +0.000 A 
ATOM     16  N   UNL     1      45.852   3.821   7.267  0.00  0.00    +0.000 NA
ENDBRANCH  10  11
BRANCH  10  18
ATOM     17  C   UNL     1      43.310   2.734  11.558  0.00  0.00    +0.000 C 
ATOM     18  C   UNL     1      44.543   2.828  10.650  0.00  0.00    +0.000 C 
ENDBRANCH  10  18
ENDBRANCH   8  10
ENDBRANCH   7   8
ENDBRANCH   1   7
BRANCH   4  19
ATOM     19  C   UNL     1      46.993   4.353  14.688  0.00  0.00    +0.000 C 
BRANCH  19  20
ATOM     20  N   UNL     1      47.568   4.833  15.916  0.00  0.00    +0.000 N 
ATOM     21  C   UNL     1      47.266   4.299  17.133  0.00  0.00    +0.000 C 
ATOM     22  O   UNL     1      46.552   3.293  17.265  0.00  0.00    +0.000 OA
ATOM     23  H   UNL     1      48.270   5.564  15.866  0.00  0.00    +0.000 HD
BRANCH  21  24
ATOM     24  C   UNL     1      47.896   4.957  18.263  0.00  0.00    +0.000 A 
ATOM     25  C   UNL     1      47.222   5.820  19.115  0.00  0.00    +0.000 A 
ATOM     26  S   UNL     1      48.208   6.391  20.391  0.00  0.00    +0.000 S 
ATOM     27  C   UNL     1      49.555   5.522  19.821  0.00  0.00    +0.000 A 
ATOM     28  N   UNL     1      50.746   5.561  20.466  0.00  0.00    +0.000 NA
ATOM     29  C   UNL     1      51.675   4.852  19.914  0.00  0.00    +0.000 A 
ATOM     30  N   UNL     1      51.543   4.102  18.765  0.00  0.00    +0.000 N 
ATOM     31  C   UNL     1      52.675   3.381  18.221  0.00  0.00    +0.000 C 
ATOM     32  C   UNL     1      50.362   4.094  18.041  0.00  0.00    +0.000 A 
ATOM     33  O   UNL     1      50.255   3.511  16.963  0.00  0.00    +0.000 OA
ATOM     34  C   UNL     1      49.270   4.824  18.670  0.00  0.00    +0.000 A 
ENDBRANCH  21  24
ENDBRANCH  19  20
ENDBRANCH   4  19
TORSDOF 8
ENDMDL
MODEL 2
REMARK VINA RESULT:    -8.020      2.178      2.937
REMARK INTER + INTRA:         -13.245
REMARK INTER:                 -11.857
REMARK INTRA:                  -1.388
REMARK UNBOUND:                -1.474
REMARK  Name = 
REMARK  10 active torsions:
REMARK  status: ('A' for Active; 'I' for Inactive)
REMARK    1  A    between atoms: C_1  and  C_2
REMARK    2  A    between atoms: C_2  and  C_3
REMARK    3  A    between atoms: C_3  and  N_4
REMARK    4  A    between atoms: C_3  and  C_27
REMARK    5  A    between atoms: N_4  and  C_5
REMARK    6  A    between atoms: C_5  and  C_6
REMARK    7  A    between atoms: C_9  and  C_10
REMARK    8  A    between atoms: C_10  and  N_11
REMARK    9  A    between atoms: C_12  and  C_14
REMARK   10  A    between atoms: N_20  and  C_21
REMARK                            x       y       z     vdW  Elec       q    Type
REMARK                         _______ _______ _______ _____ _____    ______ ____
ROOT
ATOM      1  C   UNL     1      45.403   6.568  11.209  0.00  0.00    +0.000 C 
ATOM      2  C   UNL     1      44.466   6.122  12.332  0.00  0.00    +0.000 C 
ATOM      3  C   UNL     1      45.131   5.136  13.291  0.00  0.00    +0.000 C 
ATOM      4  C   UNL     1      46.479   5.655  13.834  0.00  0.00    +0.000 C 
ATOM      5  C   UNL     1      47.403   6.124  12.704  0.00  0.00    +0.000 C 
ATOM      6  C   UNL     1      46.700   7.145  11.807  0.00  0.00    +0.000 C 
ENDROOT
BRANCH   1   7
ATOM      7  C   UNL     1      45.784   5.430  10.245  0.00  0.00    +0.000 C 
BRANCH   7   8
ATOM      8  N   UNL     1      44.775   5.040   9.276  0.00  0.00    +0.000 NA
ATOM      9  H   UNL     1      43.894   5.497   9.521  0.00  0.00    +0.000 HD
BRANCH   8  10
ATOM     10  C   UNL     1      44.537   3.569   9.272  0.00  0.00    +0.000 C 
BRANCH  10  11
ATOM     11  C   UNL     1      45.510   2.877   8.289  0.00  0.00    +0.000 A 
ATOM     12  C   UNL     1      45.999   3.533   7.153  0.00  0.00    +0.000 A 
ATOM     13  C   UNL     1      46.869   2.866   6.292  0.00  0.00    +0.000 A 
ATOM     14  C   UNL     1      47.264   1.571   6.594  0.00  0.00    +0.000 A 
ATOM     15  C   UNL     1      46.749   0.988   7.739  0.00  0.00    +0.000 A 
ATOM     16  N   UNL     1      45.879   1.601   8.580  0.00  0.00    +0.000 NA
ENDBRANCH  10  11
BRANCH  10  18
ATOM     17  C   UNL     1      43.335   2.651  11.487  0.00  0.00    +0.000 C 
ATOM     18  C   UNL     1      44.610   2.825  10.650  0.00  0.00    +0.000 C 
ENDBRANCH  10  18
ENDBRANCH   8  10
ENDBRANCH   7   8
ENDBRANCH   1   7
BRANCH   4  19
ATOM     19  C   UNL     1      47.187   4.593  14.679  0.00  0.00    +0.000 C 
BRANCH  19  20
ATOM     20  N   UNL     1      47.297   5.029  16.046  0.00  0.00    +0.000 N 
ATOM     21  C   UNL     1      48.435   5.577  16.558  0.00  0.00    +0.000 C 
ATOM     22  O   UNL     1      49.427   5.838  15.859  0.00  0.00    +0.000 OA
ATOM     23  H   UNL     1      46.474   4.975  16.637  0.00  0.00    +0.000 HD
BRANCH  21  24
ATOM     24  C   UNL     1      48.377   5.897  17.973  0.00  0.00    +0.000 A 
ATOM     25  C   UNL     1      48.365   4.935  18.971  0.00  0.00    +0.000 A 
ATOM     26  S   UNL     1      48.358   5.614  20.542  0.00  0.00    +0.000 S 
ATOM     27  C   UNL     1      48.346   7.199  19.923  0.00  0.00    +0.000 A 
ATOM     28  N   UNL     1      48.346   8.277  20.743  0.00  0.00    +0.000 NA
ATOM     29  C   UNL     1      48.334   9.415  20.128  0.00  0.00    +0.000 A 
ATOM     30  N   UNL     1      48.315   9.593  18.761  0.00  0.00    +0.000 N 
ATOM     31  C   UNL     1      48.261  10.924  18.192  0.00  0.00    +0.000 C 
ATOM     32  C   UNL     1      48.245   8.515  17.894  0.00  0.00    +0.000 A 
ATOM     33  O   UNL     1      48.128   8.655  16.678  0.00  0.00    +0.000 OA
ATOM     34  C   UNL     1      48.328   7.216  18.547  0.00  0.00    +0.000 A 
ENDBRANCH  21  24
ENDBRANCH  19  20
ENDBRANCH   4  19
TORSDOF 8
ENDMDL
MODEL 3
REMARK VINA RESULT:    -7.883      1.990      2.751
REMARK INTER + INTRA:         -13.044
REMARK INTER:                 -11.625
REMARK INTRA:                  -1.418
REMARK UNBOUND:                -1.474
REMARK  Name = 
REMARK  10 active torsions:
REMARK  status: ('A' for Active; 'I' for Inactive)
REMARK    1  A    between atoms: C_1  and  C_2
REMARK    2  A    between atoms: C_2  and  C_3
REMARK    3  A    between atoms: C_3  and  N_4
REMARK    4  A    between atoms: C_3  and  C_27
REMARK    5  A    between atoms: N_4  and  C_5
REMARK    6  A    between atoms: C_5  and  C_6
REMARK    7  A    between atoms: C_9  and  C_10
REMARK    8  A    between atoms: C_10  and  N_11
REMARK    9  A    between atoms: C_12  and  C_14
REMARK   10  A    between atoms: N_20  and  C_21
REMARK                            x       y       z     vdW  Elec       q    Type
REMARK                         _______ _______ _______ _____ _____    ______ ____
ROOT
ATOM      1  C   UNL     1      44.594   6.181  11.541  0.00  0.00    +0.000 C 
ATOM      2  C   UNL     1      44.927   5.735  12.965  0.00  0.00    +0.000 C 
ATOM      3  C   UNL     1      46.314   6.195  13.412  0.00  0.00    +0.000 C 
ATOM      4  C   UNL     1      46.527   7.711  13.215  0.00  0.00    +0.000 C 
ATOM      5  C   UNL     1      46.167   8.154  11.792  0.00  0.00    +0.000 C 
ATOM      6  C   UNL     1      44.751   7.709  11.420  0.00  0.00    +0.000 C 
ENDROOT
BRANCH   1   7
ATOM      7  C   UNL     1      45.482   5.520  10.472  0.00  0.00    +0.000 C 
BRANCH   7   8
ATOM      8  N   UNL     1      44.811   5.064   9.267  0.00  0.00    +0.000 NA
ATOM      9  H   UNL     1      43.900   5.523   9.208  0.00  0.00    +0.000 HD
BRANCH   8  10
ATOM     10  C   UNL     1      44.579   3.592   9.274  0.00  0.00    +0.000 C 
BRANCH  10  11
ATOM     11  C   UNL     1      45.563   2.896   8.305  0.00  0.00    +0.000 A 
ATOM     12  C   UNL     1      46.096   3.561   7.194  0.00  0.00    +0.000 A 
ATOM     13  C   UNL     1      46.974   2.889   6.345  0.00  0.00    +0.000 A 
ATOM     14  C   UNL     1      47.332   1.580   6.634  0.00  0.00    +0.000 A 
ATOM     15  C   UNL     1      46.773   0.990   7.754  0.00  0.00    +0.000 A 
ATOM     16  N   UNL     1      45.895   1.607   8.582  0.00  0.00    +0.000 NA
ENDBRANCH  10  11
BRANCH  10  18
ATOM     17  C   UNL     1      43.361   2.680  11.483  0.00  0.00    +0.000 C 
ATOM     18  C   UNL     1      44.643   2.861  10.659  0.00  0.00    +0.000 C 
ENDBRANCH  10  18
ENDBRANCH   8  10
ENDBRANCH   7   8
ENDBRANCH   1   7
BRANCH   4  19
ATOM     19  C   UNL     1      47.967   8.119  13.539  0.00  0.00    +0.000 C 
BRANCH  19  20
ATOM     20  N   UNL     1      48.243   7.925  14.937  0.00  0.00    +0.000 N 
ATOM     21  C   UNL     1      49.502   7.736  15.423  0.00  0.00    +0.000 C 
ATOM     22  O   UNL     1      50.515   7.822  14.712  0.00  0.00    +0.000 OA
ATOM     23  H   UNL     1      47.471   7.985  15.593  0.00  0.00    +0.000 HD
BRANCH  21  24
ATOM     24  C   UNL     1      49.576   7.494  16.853  0.00  0.00    +0.000 A 
ATOM     25  C   UNL     1      50.113   8.401  17.752  0.00  0.00    +0.000 A 
ATOM     26  S   UNL     1      50.007   7.866  19.374  0.00  0.00    +0.000 S 
ATOM     27  C   UNL     1      49.267   6.407  18.908  0.00  0.00    +0.000 A 
ATOM     28  N   UNL     1      48.896   5.478  19.822  0.00  0.00    +0.000 NA
ATOM     29  C   UNL     1      48.349   4.421  19.317  0.00  0.00    +0.000 A 
ATOM     30  N   UNL     1      48.134   4.185  17.976  0.00  0.00    +0.000 N 
ATOM     31  C   UNL     1      47.547   2.938  17.531  0.00  0.00    +0.000 C 
ATOM     32  C   UNL     1      48.562   5.080  17.009  0.00  0.00    +0.000 A 
ATOM     33  O   UNL     1      48.469   4.843  15.806  0.00  0.00    +0.000 OA
ATOM     34  C   UNL     1      49.119   6.315  17.542  0.00  0.00    +0.000 A 
ENDBRANCH  21  24
ENDBRANCH  19  20
ENDBRANCH   4  19
TORSDOF 8
ENDMDL
MODEL 4
REMARK VINA RESULT:    -7.408      3.451      9.010
REMARK INTER + INTRA:         -12.347
REMARK INTER:                 -10.826
REMARK INTRA:                  -1.521
REMARK UNBOUND:                -1.474
REMARK  Name = 
REMARK  10 active torsions:
REMARK  status: ('A' for Active; 'I' for Inactive)
REMARK    1  A    between atoms: C_1  and  C_2
REMARK    2  A    between atoms: C_2  and  C_3
REMARK    3  A    between atoms: C_3  and  N_4
REMARK    4  A    between atoms: C_3  and  C_27
REMARK    5  A    between atoms: N_4  and  C_5
REMARK    6  A    between atoms: C_5  and  C_6
REMARK    7  A    between atoms: C_9  and  C_10
REMARK    8  A    between atoms: C_10  and  N_11
REMARK    9  A    between atoms: C_12  and  C_14
REMARK   10  A    between atoms: N_20  and  C_21
REMARK                            x       y       z     vdW  Elec       q    Type
REMARK                         _______ _______ _______ _____ _____    ______ ____
ROOT
ATOM      1  C   UNL     1      49.612   7.757  13.815  0.00  0.00    +0.000 C 
ATOM      2  C   UNL     1      49.424   7.357  12.351  0.00  0.00    +0.000 C 
ATOM      3  C   UNL     1      47.952   7.222  11.967  0.00  0.00    +0.000 C 
ATOM      4  C   UNL     1      47.125   8.472  12.336  0.00  0.00    +0.000 C 
ATOM      5  C   UNL     1      47.338   8.882  13.798  0.00  0.00    +0.000 C 
ATOM      6  C   UNL     1      48.826   9.050  14.110  0.00  0.00    +0.000 C 
ENDROOT
BRANCH   1   7
ATOM      7  C   UNL     1      49.146   6.677  14.807  0.00  0.00    +0.000 C 
BRANCH   7   8
ATOM      8  N   UNL     1      49.429   6.923  16.210  0.00  0.00    +0.000 NA
ATOM      9  H   UNL     1      50.419   6.737  16.380  0.00  0.00    +0.000 HD
BRANCH   8  10
ATOM     10  C   UNL     1      48.639   6.036  17.109  0.00  0.00    +0.000 C 
BRANCH  10  11
ATOM     11  C   UNL     1      49.253   4.616  17.126  0.00  0.00    +0.000 A 
ATOM     12  C   UNL     1      50.560   4.385  17.572  0.00  0.00    +0.000 A 
ATOM     13  C   UNL     1      51.072   3.088  17.562  0.00  0.00    +0.000 A 
ATOM     14  C   UNL     1      50.265   2.041  17.142  0.00  0.00    +0.000 A 
ATOM     15  C   UNL     1      48.980   2.343  16.725  0.00  0.00    +0.000 A 
ATOM     16  N   UNL     1      48.464   3.597  16.696  0.00  0.00    +0.000 NA
ENDBRANCH  10  11
BRANCH  10  18
ATOM     17  C   UNL     1      47.252   5.972  19.403  0.00  0.00    +0.000 C 
ATOM     18  C   UNL     1      48.438   6.509  18.590  0.00  0.00    +0.000 C 
ENDBRANCH  10  18
ENDBRANCH   8  10
ENDBRANCH   7   8
ENDBRANCH   1   7
BRANCH   4  19
ATOM     19  C   UNL     1      45.634   8.254  12.067  0.00  0.00    +0.000 C 
BRANCH  19  20
ATOM     20  N   UNL     1      45.363   6.862  11.828  0.00  0.00    +0.000 N 
ATOM     21  C   UNL     1      44.154   6.408  11.393  0.00  0.00    +0.000 C 
ATOM     22  O   UNL     1      43.228   7.170  11.071  0.00  0.00    +0.000 OA
ATOM     23  H   UNL     1      46.122   6.198  11.936  0.00  0.00    +0.000 HD
BRANCH  21  24
ATOM     24  C   UNL     1      44.050   4.965  11.270  0.00  0.00    +0.000 A 
ATOM     25  C   UNL     1      43.363   4.171  12.175  0.00  0.00    +0.000 A 
ATOM     26  S   UNL     1      43.361   2.518  11.735  0.00  0.00    +0.000 S 
ATOM     27  C   UNL     1      44.293   2.824  10.345  0.00  0.00    +0.000 A 
ATOM     28  N   UNL     1      44.649   1.828   9.498  0.00  0.00    +0.000 NA
ATOM     29  C   UNL     1      45.358   2.213   8.488  0.00  0.00    +0.000 A 
ATOM     30  N   UNL     1      45.763   3.506   8.233  0.00  0.00    +0.000 N 
ATOM     31  C   UNL     1      46.594   3.805   7.085  0.00  0.00    +0.000 C 
ATOM     32  C   UNL     1      45.478   4.538   9.112  0.00  0.00    +0.000 A 
ATOM     33  O   UNL     1      45.913   5.678   8.953  0.00  0.00    +0.000 OA
ATOM     34  C   UNL     1      44.620   4.156  10.225  0.00  0.00    +0.000 A 
ENDBRANCH  21  24
ENDBRANCH  19  20
ENDBRANCH   4  19
TORSDOF 8
ENDMDL
MODEL 5
REMARK VINA RESULT:    -7.110      2.537      3.305
REMARK INTER + INTRA:         -11.909
REMARK INTER:                 -10.248
REMARK INTRA:                  -1.661
REMARK UNBOUND:                -1.474
REMARK  Name = 
REMARK  10 active torsions:
REMARK  status: ('A' for Active; 'I' for Inactive)
REMARK    1  A    between atoms: C_1  and  C_2
REMARK    2  A    between atoms: C_2  and  C_3
REMARK    3  A    between atoms: C_3  and  N_4
REMARK    4  A    between atoms: C_3  and  C_27
REMARK    5  A    between atoms: N_4  and  C_5
REMARK    6  A    between atoms: C_5  and  C_6
REMARK    7  A    between atoms: C_9  and  C_10
REMARK    8  A    between atoms: C_10  and  N_11
REMARK    9  A    between atoms: C_12  and  C_14
REMARK   10  A    between atoms: N_20  and  C_21
REMARK                            x       y       z     vdW  Elec       q    Type
REMARK                         _______ _______ _______ _____ _____    ______ ____
ROOT
ATOM      1  C   UNL     1      46.538   6.933  11.686  0.00  0.00    +0.000 C 
ATOM      2  C   UNL     1      45.830   8.168  12.241  0.00  0.00    +0.000 C 
ATOM      3  C   UNL     1      46.435   8.646  13.560  0.00  0.00    +0.000 C 
ATOM      4  C   UNL     1      47.963   8.845  13.472  0.00  0.00    +0.000 C 
ATOM      5  C   UNL     1      48.664   7.612  12.891  0.00  0.00    +0.000 C 
ATOM      6  C   UNL     1      48.048   7.211  11.549  0.00  0.00    +0.000 C 
ENDROOT
BRANCH   1   7
ATOM      7  C   UNL     1      46.359   5.681  12.563  0.00  0.00    +0.000 C 
BRANCH   7   8
ATOM      8  N   UNL     1      45.562   4.606  11.999  0.00  0.00    +0.000 NA
ATOM      9  H   UNL     1      46.177   3.816  11.795  0.00  0.00    +0.000 HD
BRANCH   8  10
ATOM     10  C   UNL     1      44.899   5.005  10.725  0.00  0.00    +0.000 C 
BRANCH  10  11
ATOM     11  C   UNL     1      45.359   4.079   9.575  0.00  0.00    +0.000 A 
ATOM     12  C   UNL     1      45.190   2.690   9.636  0.00  0.00    +0.000 A 
ATOM     13  C   UNL     1      45.628   1.895   8.577  0.00  0.00    +0.000 A 
ATOM     14  C   UNL     1      46.194   2.497   7.463  0.00  0.00    +0.000 A 
ATOM     15  C   UNL     1      46.320   3.876   7.468  0.00  0.00    +0.000 A 
ATOM     16  N   UNL     1      45.931   4.673   8.494  0.00  0.00    +0.000 NA
ENDBRANCH  10  11
BRANCH  10  18
ATOM     17  C   UNL     1      42.574   5.239  12.041  0.00  0.00    +0.000 C 
ATOM     18  C   UNL     1      43.333   5.066  10.718  0.00  0.00    +0.000 C 
ENDBRANCH  10  18
ENDBRANCH   8  10
ENDBRANCH   7   8
ENDBRANCH   1   7
BRANCH   4  19
ATOM     19  C   UNL     1      48.561   9.189  14.839  0.00  0.00    +0.000 C 
BRANCH  19  20
ATOM     20  N   UNL     1      49.391   8.112  15.311  0.00  0.00    +0.000 N 
ATOM     21  C   UNL     1      49.866   8.049  16.586  0.00  0.00    +0.000 C 
ATOM     22  O   UNL     1      49.536   8.859  17.466  0.00  0.00    +0.000 OA
ATOM     23  H   UNL     1      49.584   7.341  14.680  0.00  0.00    +0.000 HD
BRANCH  21  24
ATOM     24  C   UNL     1      50.739   6.921  16.859  0.00  0.00    +0.000 A 
ATOM     25  C   UNL     1      52.118   7.029  16.946  0.00  0.00    +0.000 A 
ATOM     26  S   UNL     1      52.874   5.546  17.339  0.00  0.00    +0.000 S 
ATOM     27  C   UNL     1      51.383   4.727  17.377  0.00  0.00    +0.000 A 
ATOM     28  N   UNL     1      51.309   3.406  17.667  0.00  0.00    +0.000 NA
ATOM     29  C   UNL     1      50.110   2.923  17.656  0.00  0.00    +0.000 A 
ATOM     30  N   UNL     1      48.959   3.627  17.375  0.00  0.00    +0.000 N 
ATOM     31  C   UNL     1      47.674   2.961  17.353  0.00  0.00    +0.000 C 
ATOM     32  C   UNL     1      49.002   4.962  17.006  0.00  0.00    +0.000 A 
ATOM     33  O   UNL     1      47.999   5.581  16.657  0.00  0.00    +0.000 OA
ATOM     34  C   UNL     1      50.328   5.559  17.077  0.00  0.00    +0.000 A 
ENDBRANCH  21  24
ENDBRANCH  19  20
ENDBRANCH   4  19
TORSDOF 8
ENDMDL
MODEL 6
REMARK VINA RESULT:    -6.882      2.298      2.968
REMARK INTER + INTRA:         -11.575
REMARK INTER:                  -9.943
REMARK INTRA:                  -1.632
REMARK UNBOUND:                -1.474
REMARK  Name = 
REMARK  10 active torsions:
REMARK  status: ('A' for Active; 'I' for Inactive)
REMARK    1  A    between atoms: C_1  and  C_2
REMARK    2  A    between atoms: C_2  and  C_3
REMARK    3  A    between atoms: C_3  and  N_4
REMARK    4  A    between atoms: C_3  and  C_27
REMARK    5  A    between atoms: N_4  and  C_5
REMARK    6  A    between atoms: C_5  and  C_6
REMARK    7  A    between atoms: C_9  and  C_10
REMARK    8  A    between atoms: C_10  and  N_11
REMARK    9  A    between atoms: C_12  and  C_14
REMARK   10  A    between atoms: N_20  and  C_21
REMARK                            x       y       z     vdW  Elec       q    Type
REMARK                         _______ _______ _______ _____ _____    ______ ____
ROOT
ATOM      1  C   UNL     1      46.544   7.227  12.047  0.00  0.00    +0.000 C 
ATOM      2  C   UNL     1      46.368   8.511  12.858  0.00  0.00    +0.000 C 
ATOM      3  C   UNL     1      47.380   8.627  13.996  0.00  0.00    +0.000 C 
ATOM      4  C   UNL     1      48.835   8.440  13.516  0.00  0.00    +0.000 C 
ATOM      5  C   UNL     1      48.998   7.163  12.683  0.00  0.00    +0.000 C 
ATOM      6  C   UNL     1      47.992   7.127  11.531  0.00  0.00    +0.000 C 
ENDROOT
BRANCH   1   7
ATOM      7  C   UNL     1      46.232   5.951  12.850  0.00  0.00    +0.000 C 
BRANCH   7   8
ATOM      8  N   UNL     1      45.571   4.879  12.127  0.00  0.00    +0.000 NA
ATOM      9  H   UNL     1      46.277   4.203  11.829  0.00  0.00    +0.000 HD
BRANCH   8  10
ATOM     10  C   UNL     1      44.870   5.370  10.907  0.00  0.00    +0.000 C 
BRANCH  10  11
ATOM     11  C   UNL     1      45.254   4.499   9.688  0.00  0.00    +0.000 A 
ATOM     12  C   UNL     1      44.858   3.160   9.587  0.00  0.00    +0.000 A 
ATOM     13  C   UNL     1      45.234   2.412   8.471  0.00  0.00    +0.000 A 
ATOM     14  C   UNL     1      45.968   3.018   7.462  0.00  0.00    +0.000 A 
ATOM     15  C   UNL     1      46.314   4.349   7.625  0.00  0.00    +0.000 A 
ATOM     16  N   UNL     1      45.989   5.093   8.710  0.00  0.00    +0.000 NA
ENDBRANCH  10  11
BRANCH  10  18
ATOM     17  C   UNL     1      42.585   5.249  12.304  0.00  0.00    +0.000 C 
ATOM     18  C   UNL     1      43.308   5.477  10.970  0.00  0.00    +0.000 C 
ENDBRANCH  10  18
ENDBRANCH   8  10
ENDBRANCH   7   8
ENDBRANCH   1   7
BRANCH   4  19
ATOM     19  C   UNL     1      49.814   8.422  14.694  0.00  0.00    +0.000 C 
BRANCH  19  20
ATOM     20  N   UNL     1      49.875   7.109  15.278  0.00  0.00    +0.000 N 
ATOM     21  C   UNL     1      49.382   6.827  16.516  0.00  0.00    +0.000 C 
ATOM     22  O   UNL     1      48.750   7.655  17.191  0.00  0.00    +0.000 OA
ATOM     23  H   UNL     1      50.253   6.350  14.720  0.00  0.00    +0.000 HD
BRANCH  21  24
ATOM     24  C   UNL     1      49.592   5.461  16.962  0.00  0.00    +0.000 A 
ATOM     25  C   UNL     1      48.562   4.549  17.134  0.00  0.00    +0.000 A 
ATOM     26  S   UNL     1      49.121   3.003  17.607  0.00  0.00    +0.000 S 
ATOM     27  C   UNL     1      50.741   3.524  17.616  0.00  0.00    +0.000 A 
ATOM     28  N   UNL     1      51.753   2.680  17.929  0.00  0.00    +0.000 NA
ATOM     29  C   UNL     1      52.928   3.220  17.895  0.00  0.00    +0.000 A 
ATOM     30  N   UNL     1      53.203   4.534  17.583  0.00  0.00    +0.000 N 
ATOM     31  C   UNL     1      54.563   5.031  17.621  0.00  0.00    +0.000 C 
ATOM     32  C   UNL     1      52.189   5.442  17.325  0.00  0.00    +0.000 A 
ATOM     33  O   UNL     1      52.407   6.639  17.143  0.00  0.00    +0.000 OA
ATOM     34  C   UNL     1      50.857   4.855  17.285  0.00  0.00    +0.000 A 
ENDBRANCH  21  24
ENDBRANCH  19  20
ENDBRANCH   4  19
TORSDOF 8
ENDMDL
MODEL 7
REMARK VINA RESULT:    -6.735      2.258      3.134
REMARK INTER + INTRA:         -11.360
REMARK INTER:                  -9.762
REMARK INTRA:                  -1.598
REMARK UNBOUND:                -1.474
REMARK  Name = 
REMARK  10 active torsions:
REMARK  status: ('A' for Active; 'I' for Inactive)
REMARK    1  A    between atoms: C_1  and  C_2
REMARK    2  A    between atoms: C_2  and  C_3
REMARK    3  A    between atoms: C_3  and  N_4
REMARK    4  A    between atoms: C_3  and  C_27
REMARK    5  A    between atoms: N_4  and  C_5
REMARK    6  A    between atoms: C_5  and  C_6
REMARK    7  A    between atoms: C_9  and  C_10
REMARK    8  A    between atoms: C_10  and  N_11
REMARK    9  A    between atoms: C_12  and  C_14
REMARK   10  A    between atoms: N_20  and  C_21
REMARK                            x       y       z     vdW  Elec       q    Type
REMARK                         _______ _______ _______ _____ _____    ______ ____
ROOT
ATOM      1  C   UNL     1      47.237   6.624  11.740  0.00  0.00    +0.000 C 
ATOM      2  C   UNL     1      48.172   7.797  11.444  0.00  0.00    +0.000 C 
ATOM      3  C   UNL     1      48.212   8.815  12.582  0.00  0.00    +0.000 C 
ATOM      4  C   UNL     1      48.515   8.164  13.948  0.00  0.00    +0.000 C 
ATOM      5  C   UNL     1      47.590   6.973  14.228  0.00  0.00    +0.000 C 
ATOM      6  C   UNL     1      47.630   5.966  13.077  0.00  0.00    +0.000 C 
ENDROOT
BRANCH   1   7
ATOM      7  C   UNL     1      45.755   7.032  11.823  0.00  0.00    +0.000 C 
BRANCH   7   8
ATOM      8  N   UNL     1      44.919   6.658  10.697  0.00  0.00    +0.000 NA
ATOM      9  H   UNL     1      44.185   7.361  10.587  0.00  0.00    +0.000 HD
BRANCH   8  10
ATOM     10  C   UNL     1      44.257   5.338  10.900  0.00  0.00    +0.000 C 
BRANCH  10  11
ATOM     11  C   UNL     1      44.790   4.314   9.870  0.00  0.00    +0.000 A 
ATOM     12  C   UNL     1      45.607   4.702   8.801  0.00  0.00    +0.000 A 
ATOM     13  C   UNL     1      46.057   3.743   7.895  0.00  0.00    +0.000 A 
ATOM     14  C   UNL     1      45.714   2.413   8.085  0.00  0.00    +0.000 A 
ATOM     15  C   UNL     1      44.911   2.101   9.169  0.00  0.00    +0.000 A 
ATOM     16  N   UNL     1      44.435   3.014  10.051  0.00  0.00    +0.000 NA
ENDBRANCH  10  11
BRANCH  10  18
ATOM     17  C   UNL     1      43.072   4.507  13.157  0.00  0.00    +0.000 C 
ATOM     18  C   UNL     1      44.349   4.700  12.328  0.00  0.00    +0.000 C 
ENDBRANCH  10  18
ENDBRANCH   8  10
ENDBRANCH   7   8
ENDBRANCH   1   7
BRANCH   4  19
ATOM     19  C   UNL     1      48.412   9.182  15.087  0.00  0.00    +0.000 C 
BRANCH  19  20
ATOM     20  N   UNL     1      48.364   8.511  16.359  0.00  0.00    +0.000 N 
ATOM     21  C   UNL     1      49.455   8.371  17.163  0.00  0.00    +0.000 C 
ATOM     22  O   UNL     1      50.548   8.901  16.909  0.00  0.00    +0.000 OA
ATOM     23  H   UNL     1      47.466   8.177  16.694  0.00  0.00    +0.000 HD
BRANCH  21  24
ATOM     24  C   UNL     1      49.226   7.610  18.378  0.00  0.00    +0.000 A 
ATOM     25  C   UNL     1      49.104   8.192  19.630  0.00  0.00    +0.000 A 
ATOM     26  S   UNL     1      48.777   7.049  20.861  0.00  0.00    +0.000 S 
ATOM     27  C   UNL     1      48.816   5.756  19.756  0.00  0.00    +0.000 A 
ATOM     28  N   UNL     1      48.601   4.479  20.153  0.00  0.00    +0.000 NA
ATOM     29  C   UNL     1      48.664   3.606  19.202  0.00  0.00    +0.000 A 
ATOM     30  N   UNL     1      48.931   3.875  17.876  0.00  0.00    +0.000 N 
ATOM     31  C   UNL     1      49.017   2.800  16.909  0.00  0.00    +0.000 C 
ATOM     32  C   UNL     1      49.224   5.159  17.445  0.00  0.00    +0.000 A 
ATOM     33  O   UNL     1      49.560   5.404  16.288  0.00  0.00    +0.000 OA
ATOM     34  C   UNL     1      49.092   6.180  18.475  0.00  0.00    +0.000 A 
ENDBRANCH  21  24
ENDBRANCH  19  20
ENDBRANCH   4  19
TORSDOF 8
ENDMDL
MODEL 8
REMARK VINA RESULT:    -6.533      1.475      2.245
REMARK INTER + INTRA:         -11.063
REMARK INTER:                 -10.488
REMARK INTRA:                  -0.575
REMARK UNBOUND:                -1.474
REMARK  Name = 
REMARK  10 active torsions:
REMARK  status: ('A' for Active; 'I' for Inactive)
REMARK    1  A    between atoms: C_1  and  C_2
REMARK    2  A    between atoms: C_2  and  C_3
REMARK    3  A    between atoms: C_3  and  N_4
REMARK    4  A    between atoms: C_3  and  C_27
REMARK    5  A    between atoms: N_4  and  C_5
REMARK    6  A    between atoms: C_5  and  C_6
REMARK    7  A    between atoms: C_9  and  C_10
REMARK    8  A    between atoms: C_10  and  N_11
REMARK    9  A    between atoms: C_12  and  C_14
REMARK   10  A    between atoms: N_20  and  C_21
REMARK                            x       y       z     vdW  Elec       q    Type
REMARK                         _______ _______ _______ _____ _____    ______ ____
ROOT
ATOM      1  C   UNL     1      45.270   6.797  11.138  0.00  0.00    +0.000 C 
ATOM      2  C   UNL     1      44.570   7.088  12.466  0.00  0.00    +0.000 C 
ATOM      3  C   UNL     1      44.702   5.938  13.462  0.00  0.00    +0.000 C 
ATOM      4  C   UNL     1      46.167   5.496  13.665  0.00  0.00    +0.000 C 
ATOM      5  C   UNL     1      46.870   5.229  12.329  0.00  0.00    +0.000 C 
ATOM      6  C   UNL     1      46.746   6.434  11.393  0.00  0.00    +0.000 C 
ENDROOT
BRANCH   1   7
ATOM      7  C   UNL     1      44.622   5.646  10.348  0.00  0.00    +0.000 C 
BRANCH   7   8
ATOM      8  N   UNL     1      45.335   5.195   9.165  0.00  0.00    +0.000 NA
ATOM      9  H   UNL     1      45.214   5.891   8.426  0.00  0.00    +0.000 HD
BRANCH   8  10
ATOM     10  C   UNL     1      44.814   3.896   8.655  0.00  0.00    +0.000 C 
BRANCH  10  11
ATOM     11  C   UNL     1      45.928   3.141   7.892  0.00  0.00    +0.000 A 
ATOM     12  C   UNL     1      46.174   1.779   8.106  0.00  0.00    +0.000 A 
ATOM     13  C   UNL     1      47.194   1.144   7.400  0.00  0.00    +0.000 A 
ATOM     14  C   UNL     1      47.929   1.864   6.469  0.00  0.00    +0.000 A 
ATOM     15  C   UNL     1      47.623   3.204   6.303  0.00  0.00    +0.000 A 
ATOM     16  N   UNL     1      46.657   3.857   6.995  0.00  0.00    +0.000 NA
ENDBRANCH  10  11
BRANCH  10  18
ATOM     17  C   UNL     1      44.728   2.869  11.130  0.00  0.00    +0.000 C 
ATOM     18  C   UNL     1      44.175   2.917   9.699  0.00  0.00    +0.000 C 
ENDBRANCH  10  18
ENDBRANCH   8  10
ENDBRANCH   7   8
ENDBRANCH   1   7
BRANCH   4  19
ATOM     19  C   UNL     1      46.257   4.255  14.558  0.00  0.00    +0.000 C 
BRANCH  19  20
ATOM     20  N   UNL     1      47.418   4.328  15.404  0.00  0.00    +0.000 N 
ATOM     21  C   UNL     1      47.455   3.791  16.656  0.00  0.00    +0.000 C 
ATOM     22  O   UNL     1      46.528   3.110  17.122  0.00  0.00    +0.000 OA
ATOM     23  H   UNL     1      48.262   4.749  15.030  0.00  0.00    +0.000 HD
BRANCH  21  24
ATOM     24  C   UNL     1      48.690   4.020  17.384  0.00  0.00    +0.000 A 
ATOM     25  C   UNL     1      49.859   3.315  17.142  0.00  0.00    +0.000 A 
ATOM     26  S   UNL     1      51.165   3.846  18.110  0.00  0.00    +0.000 S 
ATOM     27  C   UNL     1      50.194   5.007  18.888  0.00  0.00    +0.000 A 
ATOM     28  N   UNL     1      50.699   5.828  19.841  0.00  0.00    +0.000 NA
ATOM     29  C   UNL     1      49.842   6.655  20.342  0.00  0.00    +0.000 A 
ATOM     30  N   UNL     1      48.511   6.748  19.994  0.00  0.00    +0.000 N 
ATOM     31  C   UNL     1      47.639   7.693  20.661  0.00  0.00    +0.000 C 
ATOM     32  C   UNL     1      47.944   5.881  19.075  0.00  0.00    +0.000 A 
ATOM     33  O   UNL     1      46.740   5.883  18.824  0.00  0.00    +0.000 OA
ATOM     34  C   UNL     1      48.894   4.981  18.436  0.00  0.00    +0.000 A 
ENDBRANCH  21  24
ENDBRANCH  19  20
ENDBRANCH   4  19
TORSDOF 8
ENDMDL
MODEL 9
REMARK VINA RESULT:    -6.151      4.168      9.386
REMARK INTER + INTRA:         -10.502
REMARK INTER:                  -9.279
REMARK INTRA:                  -1.223
REMARK UNBOUND:                -1.474
REMARK  Name = 
REMARK  10 active torsions:
REMARK  status: ('A' for Active; 'I' for Inactive)
REMARK    1  A    between atoms: C_1  and  C_2
REMARK    2  A    between atoms: C_2  and  C_3
REMARK    3  A    between atoms: C_3  and  N_4
REMARK    4  A    between atoms: C_3  and  C_27
REMARK    5  A    between atoms: N_4  and  C_5
REMARK    6  A    between atoms: C_5  and  C_6
REMARK    7  A    between atoms: C_9  and  C_10
REMARK    8  A    between atoms: C_10  and  N_11
REMARK    9  A    between atoms: C_12  and  C_14
REMARK   10  A    between atoms: N_20  and  C_21
REMARK                            x       y       z     vdW  Elec       q    Type
REMARK                         _______ _______ _______ _____ _____    ______ ____
ROOT
ATOM      1  C   UNL     1      51.107   8.917  11.549  0.00  0.00    +0.000 C 
ATOM      2  C   UNL     1      50.431   7.583  11.232  0.00  0.00    +0.000 C 
ATOM      3  C   UNL     1      49.113   7.402  11.983  0.00  0.00    +0.000 C 
ATOM      4  C   UNL     1      48.154   8.596  11.793  0.00  0.00    +0.000 C 
ATOM      5  C   UNL     1      48.846   9.932  12.089  0.00  0.00    +0.000 C 
ATOM      6  C   UNL     1      50.132  10.077  11.272  0.00  0.00    +0.000 C 
ENDROOT
BRANCH   1   7
ATOM      7  C   UNL     1      51.582   9.027  13.009  0.00  0.00    +0.000 C 
BRANCH   7   8
ATOM      8  N   UNL     1      51.995   7.790  13.648  0.00  0.00    +0.000 NA
ATOM      9  H   UNL     1      51.247   7.103  13.542  0.00  0.00    +0.000 HD
BRANCH   8  10
ATOM     10  C   UNL     1      52.247   7.966  15.106  0.00  0.00    +0.000 C 
BRANCH  10  11
ATOM     11  C   UNL     1      50.938   7.747  15.901  0.00  0.00    +0.000 A 
ATOM     12  C   UNL     1      50.553   8.606  16.937  0.00  0.00    +0.000 A 
ATOM     13  C   UNL     1      49.367   8.364  17.629  0.00  0.00    +0.000 A 
ATOM     14  C   UNL     1      48.569   7.291  17.257  0.00  0.00    +0.000 A 
ATOM     15  C   UNL     1      49.008   6.490  16.217  0.00  0.00    +0.000 A 
ATOM     16  N   UNL     1      50.170   6.683  15.544  0.00  0.00    +0.000 NA
ENDBRANCH  10  11
BRANCH  10  18
ATOM     17  C   UNL     1      54.846   7.445  15.509  0.00  0.00    +0.000 C 
ATOM     18  C   UNL     1      53.373   7.089  15.752  0.00  0.00    +0.000 C 
ENDBRANCH  10  18
ENDBRANCH   8  10
ENDBRANCH   7   8
ENDBRANCH   1   7
BRANCH   4  19
ATOM     19  C   UNL     1      46.903   8.453  12.665  0.00  0.00    +0.000 C 
BRANCH  19  20
ATOM     20  N   UNL     1      46.299   7.162  12.469  0.00  0.00    +0.000 N 
ATOM     21  C   UNL     1      45.126   6.990  11.797  0.00  0.00    +0.000 C 
ATOM     22  O   UNL     1      44.544   7.918  11.213  0.00  0.00    +0.000 OA
ATOM     23  H   UNL     1      46.796   6.342  12.799  0.00  0.00    +0.000 HD
BRANCH  21  24
ATOM     24  C   UNL     1      44.639   5.622  11.756  0.00  0.00    +0.000 A 
ATOM     25  C   UNL     1      43.935   5.033  12.795  0.00  0.00    +0.000 A 
ATOM     26  S   UNL     1      43.438   3.436  12.435  0.00  0.00    +0.000 S 
ATOM     27  C   UNL     1      44.172   3.489  10.900  0.00  0.00    +0.000 A 
ATOM     28  N   UNL     1      44.114   2.434  10.053  0.00  0.00    +0.000 NA
ATOM     29  C   UNL     1      44.719   2.622   8.925  0.00  0.00    +0.000 A 
ATOM     30  N   UNL     1      45.391   3.766   8.550  0.00  0.00    +0.000 N 
ATOM     31  C   UNL     1      46.066   3.839   7.271  0.00  0.00    +0.000 C 
ATOM     32  C   UNL     1      45.529   4.838   9.417  0.00  0.00    +0.000 A 
ATOM     33  O   UNL     1      46.207   5.826   9.139  0.00  0.00    +0.000 OA
ATOM     34  C   UNL     1      44.801   4.692  10.670  0.00  0.00    +0.000 A 
ENDBRANCH  21  24
ENDBRANCH  19  20
ENDBRANCH   4  19
TORSDOF 8
ENDMDL
