MODEL 1
REMARK VINA RESULT:    -7.324      0.000      0.000
REMARK INTER + INTRA:         -11.706
REMARK INTER:                 -10.535
REMARK INTRA:                  -1.171
REMARK UNBOUND:                -1.171
REMARK  Name = 
REMARK  8 active torsions:
REMARK  status: ('A' for Active; 'I' for Inactive)
REMARK    1  A    between atoms: N_1  and  C_2
REMARK    2  A    between atoms: C_2  and  C_3
REMARK    3  A    between atoms: C_3  and  N_4
REMARK    4  A    between atoms: C_3  and  C_13
REMARK    5  A    between atoms: C_5  and  C_7
REMARK    6  A    between atoms: C_16  and  C_17
REMARK    7  A    between atoms: C_17  and  N_18
REMARK    8  A    between atoms: C_19  and  C_21
REMARK                            x       y       z     vdW  Elec       q    Type
REMARK                         _______ _______ _______ _____ _____    ______ ____
ROOT
ATOM      1  C   UNL     1      45.320   5.109  11.704  0.00  0.00    +0.000 A 
ATOM      2  C   UNL     1      45.950   6.137  11.001  0.00  0.00    +0.000 A 
ATOM      3  C   UNL     1      46.970   6.865  11.619  0.00  0.00    +0.000 A 
ATOM      4  C   UNL     1      47.365   6.547  12.920  0.00  0.00    +0.000 A 
ATOM      5  C   UNL     1      46.684   5.512  13.547  0.00  0.00    +0.000 A 
ATOM      6  N   UNL     1      45.689   4.791  12.972  0.00  0.00    +0.000 NA
ENDROOT
BRANCH   1   7
ATOM      7  C   UNL     1      44.107   4.377  11.116  0.00  0.00    +0.000 C 
BRANCH   7   8
ATOM      8  N   UNL     1      44.253   4.165   9.662  0.00  0.00    +0.000 N 
ATOM      9  C   UNL     1      44.920   3.069   9.169  0.00  0.00    +0.000 C 
ATOM     10  O   UNL     1      45.330   2.163   9.893  0.00  0.00    +0.000 OA
ATOM     11  H   UNL     1      44.188   4.976   9.051  0.00  0.00    +0.000 HD
BRANCH   9  12
ATOM     12  C   UNL     1      45.226   3.026   7.674  0.00  0.00    +0.000 C 
ATOM     13  C   UNL     1      45.723   1.638   7.260  0.00  0.00    +0.000 C 
ATOM     14  C   UNL     1      47.230   1.493   7.428  0.00  0.00    +0.000 C 
ATOM     15  C   UNL     1      47.961   2.641   6.742  0.00  0.00    +0.000 C 
ATOM     16  N   UNL     1      47.551   3.926   7.315  0.00  0.00    +0.000 NA
ATOM     17  C   UNL     1      46.112   4.156   7.142  0.00  0.00    +0.000 C 
ATOM     18  H   UNL     1      48.056   4.668   6.824  0.00  0.00    +0.000 HD
ENDBRANCH   9  12
ENDBRANCH   7   8
BRANCH   7  19
ATOM     19  C   UNL     1      42.790   5.142  11.488  0.00  0.00    +0.000 C 
BRANCH  19  20
ATOM     20  N   UNL     1      42.646   5.536  12.900  0.00  0.00    +0.000 NA
ATOM     21  H   UNL     1      43.235   4.936  13.474  0.00  0.00    +0.000 HD
ATOM     22  H   UNL     1      41.683   5.400  13.206  0.00  0.00    +0.000 HD
ENDBRANCH  19  20
ENDBRANCH   7  19
ENDBRANCH   1   7
BRANCH   4  23
ATOM     23  C   UNL     1      48.447   7.309  13.629  0.00  0.00    +0.000 C 
BRANCH  23  24
ATOM     24  N   UNL     1      48.256   7.300  15.058  0.00  0.00    +0.000 N 
ATOM     25  C   UNL     1      49.265   6.924  15.910  0.00  0.00    +0.000 C 
ATOM     26  O   UNL     1      50.393   6.658  15.502  0.00  0.00    +0.000 OA
ATOM     27  H   UNL     1      47.299   7.289  15.398  0.00  0.00    +0.000 HD
BRANCH  25  28
ATOM     28  C   UNL     1      48.947   6.906  17.344  0.00  0.00    +0.000 A 
ATOM     29  C   UNL     1      48.660   8.094  18.003  0.00  0.00    +0.000 A 
ATOM     30  S   UNL     1      48.268   7.889  19.651  0.00  0.00    +0.000 S 
ATOM     31  C   UNL     1      48.522   6.211  19.559  0.00  0.00    +0.000 A 
ATOM     32  N   UNL     1      48.381   5.418  20.656  0.00  0.00    +0.000 NA
ATOM     33  C   UNL     1      48.639   4.169  20.448  0.00  0.00    +0.000 A 
ATOM     34  N   UNL     1      49.017   3.643  19.241  0.00  0.00    +0.000 N 
ATOM     35  C   UNL     1      49.133   4.399  18.099  0.00  0.00    +0.000 A 
ATOM     36  O   UNL     1      49.422   3.886  17.025  0.00  0.00    +0.000 OA
ATOM     37  C   UNL     1      48.877   5.812  18.283  0.00  0.00    +0.000 A 
ATOM     38  H   UNL     1      49.192   2.650  19.145  0.00  0.00    +0.000 HD
ENDBRANCH  25  28
ENDBRANCH  23  24
ENDBRANCH   4  23
TORSDOF 8
ENDMDL
MODEL 2
REMARK VINA RESULT:    -7.304      2.813      9.020
REMARK INTER + INTRA:         -11.678
REMARK INTER:                 -10.198
REMARK INTRA:                  -1.479
REMARK UNBOUND:                -1.171
REMARK  Name = 
REMARK  8 active torsions:
REMARK  status: ('A' for Active; 'I' for Inactive)
REMARK    1  A    between atoms: N_1  and  C_2
REMARK    2  A    between atoms: C_2  and  C_3
REMARK    3  A    between atoms: C_3  and  N_4
REMARK    4  A    between atoms: C_3  and  C_13
REMARK    5  A    between atoms: C_5  and  C_7
REMARK    6  A    between atoms: C_16  and  C_17
REMARK    7  A    between atoms: C_17  and  N_18
REMARK    8  A    between atoms: C_19  and  C_21
REMARK                            x       y       z     vdW  Elec       q    Type
REMARK                         _______ _______ _______ _____ _____    ______ ____
ROOT
ATOM      1  C   UNL     1      49.207   7.667  15.630  0.00  0.00    +0.000 A 
ATOM      2  C   UNL     1      48.690   8.890  15.201  0.00  0.00    +0.000 A 
ATOM      3  C   UNL     1      48.041   8.965  13.966  0.00  0.00    +0.000 A 
ATOM      4  C   UNL     1      47.894   7.819  13.184  0.00  0.00    +0.000 A 
ATOM      5  C   UNL     1      48.439   6.644  13.684  0.00  0.00    +0.000 A 
ATOM      6  N   UNL     1      49.077   6.543  14.877  0.00  0.00    +0.000 NA
ENDROOT
BRANCH   1   7
ATOM      7  C   UNL     1      50.044   7.567  16.911  0.00  0.00    +0.000 C 
BRANCH   7   8
ATOM      8  N   UNL     1      49.660   6.396  17.723  0.00  0.00    +0.000 N 
ATOM      9  C   UNL     1      50.368   5.221  17.650  0.00  0.00    +0.000 C 
ATOM     10  O   UNL     1      51.408   5.113  17.001  0.00  0.00    +0.000 OA
ATOM     11  H   UNL     1      48.697   6.332  18.045  0.00  0.00    +0.000 HD
BRANCH   9  12
ATOM     12  C   UNL     1      49.790   3.988  18.340  0.00  0.00    +0.000 C 
ATOM     13  C   UNL     1      49.684   2.815  17.362  0.00  0.00    +0.000 C 
ATOM     14  C   UNL     1      48.369   2.825  16.594  0.00  0.00    +0.000 C 
ATOM     15  C   UNL     1      47.188   2.941  17.549  0.00  0.00    +0.000 C 
ATOM     16  N   UNL     1      47.278   4.178  18.330  0.00  0.00    +0.000 NA
ATOM     17  C   UNL     1      48.503   4.213  19.139  0.00  0.00    +0.000 C 
ATOM     18  H   UNL     1      46.475   4.214  18.963  0.00  0.00    +0.000 HD
ENDBRANCH   9  12
ENDBRANCH   7   8
BRANCH   7  19
ATOM     19  C   UNL     1      49.958   8.914  17.710  0.00  0.00    +0.000 C 
BRANCH  19  20
ATOM     20  N   UNL     1      50.204   8.824  19.159  0.00  0.00    +0.000 NA
ATOM     21  H   UNL     1      49.398   9.196  19.657  0.00  0.00    +0.000 HD
ATOM     22  H   UNL     1      51.009   9.395  19.415  0.00  0.00    +0.000 HD
ENDBRANCH  19  20
ENDBRANCH   7  19
ENDBRANCH   1   7
BRANCH   4  23
ATOM     23  C   UNL     1      47.215   7.853  11.845  0.00  0.00    +0.000 C 
BRANCH  23  24
ATOM     24  N   UNL     1      46.594   6.590  11.531  0.00  0.00    +0.000 N 
ATOM     25  C   UNL     1      45.243   6.401  11.690  0.00  0.00    +0.000 C 
ATOM     26  O   UNL     1      44.495   7.316  12.027  0.00  0.00    +0.000 OA
ATOM     27  H   UNL     1      47.199   5.777  11.476  0.00  0.00    +0.000 HD
BRANCH  25  28
ATOM     28  C   UNL     1      44.723   5.061  11.384  0.00  0.00    +0.000 A 
ATOM     29  C   UNL     1      43.982   4.374  12.335  0.00  0.00    +0.000 A 
ATOM     30  S   UNL     1      43.417   2.855  11.801  0.00  0.00    +0.000 S 
ATOM     31  C   UNL     1      44.190   3.035  10.298  0.00  0.00    +0.000 A 
ATOM     32  N   UNL     1      44.130   2.055   9.355  0.00  0.00    +0.000 NA
ATOM     33  C   UNL     1      44.792   2.312   8.276  0.00  0.00    +0.000 A 
ATOM     34  N   UNL     1      45.501   3.463   8.053  0.00  0.00    +0.000 N 
ATOM     35  C   UNL     1      45.556   4.495   8.959  0.00  0.00    +0.000 A 
ATOM     36  O   UNL     1      46.156   5.532   8.705  0.00  0.00    +0.000 OA
ATOM     37  C   UNL     1      44.849   4.247  10.199  0.00  0.00    +0.000 A 
ATOM     38  H   UNL     1      45.989   3.606   7.177  0.00  0.00    +0.000 HD
ENDBRANCH  25  28
ENDBRANCH  23  24
ENDBRANCH   4  23
TORSDOF 8
ENDMDL
MODEL 3
REMARK VINA RESULT:    -7.302      3.554      5.551
REMARK INTER + INTRA:         -11.675
REMARK INTER:                 -10.204
REMARK INTRA:                  -1.470
REMARK UNBOUND:                -1.171
REMARK  Name = 
REMARK  8 active torsions:
REMARK  status: ('A' for Active; 'I' for Inactive)
REMARK    1  A    between atoms: N_1  and  C_2
REMARK    2  A    between atoms: C_2  and  C_3
REMARK    3  A    between atoms: C_3  and  N_4
REMARK    4  A    between atoms: C_3  and  C_13
REMARK    5  A    between atoms: C_5  and  C_7
REMARK    6  A    between atoms: C_16  and  C_17
REMARK    7  A    between atoms: C_17  and  N_18
REMARK    8  A    between atoms: C_19  and  C_21
REMARK                            x       y       z     vdW  Elec       q    Type
REMARK                         _______ _______ _______ _____ _____    ______ ____
ROOT
ATOM      1  C   UNL     1      47.551   5.575  14.391  0.00  0.00    +0.000 A 
ATOM      2  C   UNL     1      48.351   6.108  15.403  0.00  0.00    +0.000 A 
ATOM      3  C   UNL     1      48.605   5.349  16.548  0.00  0.00    +0.000 A 
ATOM      4  C   UNL     1      48.079   4.062  16.663  0.00  0.00    +0.000 A 
ATOM      5  C   UNL     1      47.292   3.609  15.612  0.00  0.00    +0.000 A 
ATOM      6  N   UNL     1      47.027   4.325  14.491  0.00  0.00    +0.000 NA
ENDROOT
BRANCH   1   7
ATOM      7  C   UNL     1      47.136   6.422  13.183  0.00  0.00    +0.000 C 
BRANCH   7   8
ATOM      8  N   UNL     1      46.280   5.660  12.252  0.00  0.00    +0.000 N 
ATOM      9  C   UNL     1      45.332   6.291  11.483  0.00  0.00    +0.000 C 
ATOM     10  O   UNL     1      45.218   7.515  11.444  0.00  0.00    +0.000 OA
ATOM     11  H   UNL     1      46.138   4.669  12.435  0.00  0.00    +0.000 HD
BRANCH   9  12
ATOM     12  C   UNL     1      44.337   5.425  10.713  0.00  0.00    +0.000 C 
ATOM     13  C   UNL     1      43.012   5.314  11.471  0.00  0.00    +0.000 C 
ATOM     14  C   UNL     1      43.017   4.166  12.472  0.00  0.00    +0.000 C 
ATOM     15  C   UNL     1      43.456   2.870  11.803  0.00  0.00    +0.000 C 
ATOM     16  N   UNL     1      44.806   3.009  11.249  0.00  0.00    +0.000 NA
ATOM     17  C   UNL     1      44.864   4.070  10.235  0.00  0.00    +0.000 C 
ATOM     18  H   UNL     1      45.060   2.124  10.803  0.00  0.00    +0.000 HD
ENDBRANCH   9  12
ENDBRANCH   7   8
BRANCH   7  19
ATOM     19  C   UNL     1      48.408   7.019  12.486  0.00  0.00    +0.000 C 
BRANCH  19  20
ATOM     20  N   UNL     1      48.262   8.368  11.915  0.00  0.00    +0.000 NA
ATOM     21  H   UNL     1      47.888   8.291  10.972  0.00  0.00    +0.000 HD
ATOM     22  H   UNL     1      49.173   8.820  11.844  0.00  0.00    +0.000 HD
ENDBRANCH  19  20
ENDBRANCH   7  19
ENDBRANCH   1   7
BRANCH   4  23
ATOM     23  C   UNL     1      48.314   3.214  17.879  0.00  0.00    +0.000 C 
BRANCH  23  24
ATOM     24  N   UNL     1      49.718   2.952  18.083  0.00  0.00    +0.000 N 
ATOM     25  C   UNL     1      50.423   2.141  17.227  0.00  0.00    +0.000 C 
ATOM     26  O   UNL     1      49.914   1.670  16.213  0.00  0.00    +0.000 OA
ATOM     27  H   UNL     1      50.093   3.131  19.009  0.00  0.00    +0.000 HD
BRANCH  25  28
ATOM     28  C   UNL     1      51.835   1.904  17.555  0.00  0.00    +0.000 A 
ATOM     29  C   UNL     1      52.296   0.607  17.733  0.00  0.00    +0.000 A 
ATOM     30  S   UNL     1      53.967   0.510  18.062  0.00  0.00    +0.000 S 
ATOM     31  C   UNL     1      54.126   2.202  18.034  0.00  0.00    +0.000 A 
ATOM     32  N   UNL     1      55.326   2.799  18.276  0.00  0.00    +0.000 NA
ATOM     33  C   UNL     1      55.293   4.090  18.257  0.00  0.00    +0.000 A 
ATOM     34  N   UNL     1      54.170   4.836  18.011  0.00  0.00    +0.000 N 
ATOM     35  C   UNL     1      52.949   4.276  17.722  0.00  0.00    +0.000 A 
ATOM     36  O   UNL     1      51.978   4.974  17.455  0.00  0.00    +0.000 OA
ATOM     37  C   UNL     1      52.926   2.829  17.754  0.00  0.00    +0.000 A 
ATOM     38  H   UNL     1      54.217   5.848  17.998  0.00  0.00    +0.000 HD
ENDBRANCH  25  28
ENDBRANCH  23  24
ENDBRANCH   4  23
TORSDOF 8
ENDMDL
MODEL 4
REMARK VINA RESULT:    -7.046      1.430      2.127
REMARK INTER + INTRA:         -11.306
REMARK INTER:                  -9.961
REMARK INTRA:                  -1.346
REMARK UNBOUND:                -1.171
REMARK  Name = 
REMARK  8 active torsions:
REMARK  status: ('A' for Active; 'I' for Inactive)
REMARK    1  A    between atoms: N_1  and  C_2
REMARK    2  A    between atoms: C_2  and  C_3
REMARK    3  A    between atoms: C_3  and  N_4
REMARK    4  A    between atoms: C_3  and  C_13
REMARK    5  A    between atoms: C_5  and  C_7
REMARK    6  A    between atoms: C_16  and  C_17
REMARK    7  A    between atoms: C_17  and  N_18
REMARK    8  A    between atoms: C_19  and  C_21
REMARK                            x       y       z     vdW  Elec       q    Type
REMARK                         _______ _______ _______ _____ _____    ______ ____
ROOT
ATOM      1  C   UNL     1      45.286   4.990  11.967  0.00  0.00    +0.000 A 
ATOM      2  C   UNL     1      45.947   6.064  11.370  0.00  0.00    +0.000 A 
ATOM      3  C   UNL     1      47.001   6.683  12.047  0.00  0.00    +0.000 A 
ATOM      4  C   UNL     1      47.398   6.212  13.299  0.00  0.00    +0.000 A 
ATOM      5  C   UNL     1      46.686   5.140  13.821  0.00  0.00    +0.000 A 
ATOM      6  N   UNL     1      45.658   4.523  13.187  0.00  0.00    +0.000 NA
ENDROOT
BRANCH   1   7
ATOM      7  C   UNL     1      44.040   4.371  11.322  0.00  0.00    +0.000 C 
BRANCH   7   8
ATOM      8  N   UNL     1      44.189   4.250   9.857  0.00  0.00    +0.000 N 
ATOM      9  C   UNL     1      44.718   3.116   9.290  0.00  0.00    +0.000 C 
ATOM     10  O   UNL     1      44.991   2.112   9.947  0.00  0.00    +0.000 OA
ATOM     11  H   UNL     1      44.244   5.106   9.310  0.00  0.00    +0.000 HD
BRANCH   9  12
ATOM     12  C   UNL     1      45.049   3.144   7.800  0.00  0.00    +0.000 C 
ATOM     13  C   UNL     1      45.518   1.768   7.321  0.00  0.00    +0.000 C 
ATOM     14  C   UNL     1      47.019   1.577   7.504  0.00  0.00    +0.000 C 
ATOM     15  C   UNL     1      47.789   2.741   6.892  0.00  0.00    +0.000 C 
ATOM     16  N   UNL     1      47.401   4.004   7.526  0.00  0.00    +0.000 NA
ATOM     17  C   UNL     1      45.970   4.279   7.343  0.00  0.00    +0.000 C 
ATOM     18  H   UNL     1      47.931   4.759   7.083  0.00  0.00    +0.000 HD
ENDBRANCH   9  12
ENDBRANCH   7   8
BRANCH   7  19
ATOM     19  C   UNL     1      42.765   5.183  11.737  0.00  0.00    +0.000 C 
BRANCH  19  20
ATOM     20  N   UNL     1      42.576   5.398  13.182  0.00  0.00    +0.000 NA
ATOM     21  H   UNL     1      43.450   5.727  13.586  0.00  0.00    +0.000 HD
ATOM     22  H   UNL     1      42.340   4.519  13.640  0.00  0.00    +0.000 HD
ENDBRANCH  19  20
ENDBRANCH   7  19
ENDBRANCH   1   7
BRANCH   4  23
ATOM     23  C   UNL     1      48.517   6.852  14.069  0.00  0.00    +0.000 C 
BRANCH  23  24
ATOM     24  N   UNL     1      48.268   6.827  15.489  0.00  0.00    +0.000 N 
ATOM     25  C   UNL     1      49.262   6.511  16.382  0.00  0.00    +0.000 C 
ATOM     26  O   UNL     1      50.420   6.315  16.021  0.00  0.00    +0.000 OA
ATOM     27  H   UNL     1      47.300   6.758  15.789  0.00  0.00    +0.000 HD
BRANCH  25  28
ATOM     28  C   UNL     1      48.887   6.470  17.802  0.00  0.00    +0.000 A 
ATOM     29  C   UNL     1      49.068   5.303  18.532  0.00  0.00    +0.000 A 
ATOM     30  S   UNL     1      48.624   5.442  20.173  0.00  0.00    +0.000 S 
ATOM     31  C   UNL     1      48.119   7.051  19.956  0.00  0.00    +0.000 A 
ATOM     32  N   UNL     1      47.591   7.766  20.987  0.00  0.00    +0.000 NA
ATOM     33  C   UNL     1      47.218   8.962  20.670  0.00  0.00    +0.000 A 
ATOM     34  N   UNL     1      47.333   9.508  19.419  0.00  0.00    +0.000 N 
ATOM     35  C   UNL     1      47.896   8.837  18.360  0.00  0.00    +0.000 A 
ATOM     36  O   UNL     1      48.031   9.374  17.267  0.00  0.00    +0.000 OA
ATOM     37  C   UNL     1      48.310   7.481  18.656  0.00  0.00    +0.000 A 
ATOM     38  H   UNL     1      47.032  10.458  19.242  0.00  0.00    +0.000 HD
ENDBRANCH  25  28
ENDBRANCH  23  24
ENDBRANCH   4  23
TORSDOF 8
ENDMDL
MODEL 5
REMARK VINA RESULT:    -6.978      2.037      2.457
REMARK INTER + INTRA:         -11.209
REMARK INTER:                 -10.054
REMARK INTRA:                  -1.155
REMARK UNBOUND:                -1.171
REMARK  Name = 
REMARK  8 active torsions:
REMARK  status: ('A' for Active; 'I' for Inactive)
REMARK    1  A    between atoms: N_1  and  C_2
REMARK    2  A    between atoms: C_2  and  C_3
REMARK    3  A    between atoms: C_3  and  N_4
REMARK    4  A    between atoms: C_3  and  C_13
REMARK    5  A    between atoms: C_5  and  C_7
REMARK    6  A    between atoms: C_16  and  C_17
REMARK    7  A    between atoms: C_17  and  N_18
REMARK    8  A    between atoms: C_19  and  C_21
REMARK                            x       y       z     vdW  Elec       q    Type
REMARK                         _______ _______ _______ _____ _____    ______ ____
ROOT
ATOM      1  C   UNL     1      45.148   5.308  12.266  0.00  0.00    +0.000 A 
ATOM      2  C   UNL     1      46.072   5.024  13.273  0.00  0.00    +0.000 A 
ATOM      3  C   UNL     1      47.286   5.715  13.306  0.00  0.00    +0.000 A 
ATOM      4  C   UNL     1      47.555   6.696  12.351  0.00  0.00    +0.000 A 
ATOM      5  C   UNL     1      46.583   6.916  11.384  0.00  0.00    +0.000 A 
ATOM      6  N   UNL     1      45.399   6.257  11.327  0.00  0.00    +0.000 NA
ENDROOT
BRANCH   1   7
ATOM      7  C   UNL     1      43.867   4.480  12.112  0.00  0.00    +0.000 C 
BRANCH   7   8
ATOM      8  N   UNL     1      43.696   3.995  10.728  0.00  0.00    +0.000 N 
ATOM      9  C   UNL     1      44.534   3.041  10.204  0.00  0.00    +0.000 C 
ATOM     10  O   UNL     1      45.388   2.467  10.878  0.00  0.00    +0.000 OA
ATOM     11  H   UNL     1      43.217   4.599  10.065  0.00  0.00    +0.000 HD
BRANCH   9  12
ATOM     12  C   UNL     1      44.444   2.748   8.708  0.00  0.00    +0.000 C 
ATOM     13  C   UNL     1      45.143   1.429   8.369  0.00  0.00    +0.000 C 
ATOM     14  C   UNL     1      46.630   1.620   8.096  0.00  0.00    +0.000 C 
ATOM     15  C   UNL     1      46.852   2.720   7.066  0.00  0.00    +0.000 C 
ATOM     16  N   UNL     1      46.300   3.991   7.544  0.00  0.00    +0.000 NA
ATOM     17  C   UNL     1      44.854   3.893   7.779  0.00  0.00    +0.000 C 
ATOM     18  H   UNL     1      46.461   4.699   6.823  0.00  0.00    +0.000 HD
ENDBRANCH   9  12
ENDBRANCH   7   8
BRANCH   7  19
ATOM     19  C   UNL     1      42.634   5.305  12.622  0.00  0.00    +0.000 C 
BRANCH  19  20
ATOM     20  N   UNL     1      42.200   6.420  11.764  0.00  0.00    +0.000 NA
ATOM     21  H   UNL     1      42.341   7.297  12.260  0.00  0.00    +0.000 HD
ATOM     22  H   UNL     1      41.204   6.341  11.562  0.00  0.00    +0.000 HD
ENDBRANCH  19  20
ENDBRANCH   7  19
ENDBRANCH   1   7
BRANCH   4  23
ATOM     23  C   UNL     1      48.850   7.457  12.339  0.00  0.00    +0.000 C 
BRANCH  23  24
ATOM     24  N   UNL     1      49.731   7.027  13.397  0.00  0.00    +0.000 N 
ATOM     25  C   UNL     1      50.165   7.902  14.362  0.00  0.00    +0.000 C 
ATOM     26  O   UNL     1      49.763   9.062  14.415  0.00  0.00    +0.000 OA
ATOM     27  H   UNL     1      50.246   6.165  13.249  0.00  0.00    +0.000 HD
BRANCH  25  28
ATOM     28  C   UNL     1      51.097   7.369  15.365  0.00  0.00    +0.000 A 
ATOM     29  C   UNL     1      52.435   7.740  15.332  0.00  0.00    +0.000 A 
ATOM     30  S   UNL     1      53.365   7.068  16.594  0.00  0.00    +0.000 S 
ATOM     31  C   UNL     1      52.027   6.211  17.198  0.00  0.00    +0.000 A 
ATOM     32  N   UNL     1      52.147   5.394  18.280  0.00  0.00    +0.000 NA
ATOM     33  C   UNL     1      51.059   4.779  18.608  0.00  0.00    +0.000 A 
ATOM     34  N   UNL     1      49.862   4.915  17.955  0.00  0.00    +0.000 N 
ATOM     35  C   UNL     1      49.686   5.759  16.884  0.00  0.00    +0.000 A 
ATOM     36  O   UNL     1      48.588   5.895  16.357  0.00  0.00    +0.000 OA
ATOM     37  C   UNL     1      50.883   6.454  16.461  0.00  0.00    +0.000 A 
ATOM     38  H   UNL     1      49.042   4.413  18.272  0.00  0.00    +0.000 HD
ENDBRANCH  25  28
ENDBRANCH  23  24
ENDBRANCH   4  23
TORSDOF 8
ENDMDL
MODEL 6
REMARK VINA RESULT:    -6.804      1.725      2.055
REMARK INTER + INTRA:         -10.958
REMARK INTER:                 -10.264
REMARK INTRA:                  -0.694
REMARK UNBOUND:                -1.171
REMARK  Name = 
REMARK  8 active torsions:
REMARK  status: ('A' for Active; 'I' for Inactive)
REMARK    1  A    between atoms: N_1  and  C_2
REMARK    2  A    between atoms: C_2  and  C_3
REMARK    3  A    between atoms: C_3  and  N_4
REMARK    4  A    between atoms: C_3  and  C_13
REMARK    5  A    between atoms: C_5  and  C_7
REMARK    6  A    between atoms: C_16  and  C_17
REMARK    7  A    between atoms: C_17  and  N_18
REMARK    8  A    between atoms: C_19  and  C_21
REMARK                            x       y       z     vdW  Elec       q    Type
REMARK                         _______ _______ _______ _____ _____    ______ ____
ROOT
ATOM      1  C   UNL     1      44.852   4.427  12.226  0.00  0.00    +0.000 A 
ATOM      2  C   UNL     1      45.243   5.626  12.823  0.00  0.00    +0.000 A 
ATOM      3  C   UNL     1      46.246   5.613  13.795  0.00  0.00    +0.000 A 
ATOM      4  C   UNL     1      46.863   4.410  14.144  0.00  0.00    +0.000 A 
ATOM      5  C   UNL     1      46.413   3.264  13.502  0.00  0.00    +0.000 A 
ATOM      6  N   UNL     1      45.439   3.248  12.558  0.00  0.00    +0.000 NA
ENDROOT
BRANCH   1   7
ATOM      7  C   UNL     1      43.664   4.377  11.257  0.00  0.00    +0.000 C 
BRANCH   7   8
ATOM      8  N   UNL     1      43.996   3.632  10.026  0.00  0.00    +0.000 N 
ATOM      9  C   UNL     1      44.928   4.112   9.138  0.00  0.00    +0.000 C 
ATOM     10  O   UNL     1      45.606   5.114   9.365  0.00  0.00    +0.000 OA
ATOM     11  H   UNL     1      43.306   2.980   9.660  0.00  0.00    +0.000 HD
BRANCH   9  12
ATOM     12  C   UNL     1      45.062   3.413   7.787  0.00  0.00    +0.000 C 
ATOM     13  C   UNL     1      45.043   1.892   7.957  0.00  0.00    +0.000 C 
ATOM     14  C   UNL     1      46.432   1.327   8.226  0.00  0.00    +0.000 C 
ATOM     15  C   UNL     1      47.426   1.820   7.181  0.00  0.00    +0.000 C 
ATOM     16  N   UNL     1      47.508   3.283   7.200  0.00  0.00    +0.000 NA
ATOM     17  C   UNL     1      46.210   3.897   6.897  0.00  0.00    +0.000 C 
ATOM     18  H   UNL     1      48.176   3.573   6.481  0.00  0.00    +0.000 HD
ENDBRANCH   9  12
ENDBRANCH   7   8
BRANCH   7  19
ATOM     19  C   UNL     1      43.152   5.831  10.966  0.00  0.00    +0.000 C 
BRANCH  19  20
ATOM     20  N   UNL     1      41.990   6.278  11.752  0.00  0.00    +0.000 NA
ATOM     21  H   UNL     1      42.314   6.652  12.641  0.00  0.00    +0.000 HD
ATOM     22  H   UNL     1      41.380   5.487  11.959  0.00  0.00    +0.000 HD
ENDBRANCH  19  20
ENDBRANCH   7  19
ENDBRANCH   1   7
BRANCH   4  23
ATOM     23  C   UNL     1      47.938   4.344  15.191  0.00  0.00    +0.000 C 
BRANCH  23  24
ATOM     24  N   UNL     1      47.852   5.450  16.113  0.00  0.00    +0.000 N 
ATOM     25  C   UNL     1      48.858   6.379  16.207  0.00  0.00    +0.000 C 
ATOM     26  O   UNL     1      49.833   6.358  15.459  0.00  0.00    +0.000 OA
ATOM     27  H   UNL     1      47.191   5.364  16.879  0.00  0.00    +0.000 HD
BRANCH  25  28
ATOM     28  C   UNL     1      48.688   7.437  17.212  0.00  0.00    +0.000 A 
ATOM     29  C   UNL     1      49.043   8.745  16.907  0.00  0.00    +0.000 A 
ATOM     30  S   UNL     1      48.738   9.852  18.168  0.00  0.00    +0.000 S 
ATOM     31  C   UNL     1      48.173   8.617  19.190  0.00  0.00    +0.000 A 
ATOM     32  N   UNL     1      47.770   8.886  20.462  0.00  0.00    +0.000 NA
ATOM     33  C   UNL     1      47.400   7.848  21.136  0.00  0.00    +0.000 A 
ATOM     34  N   UNL     1      47.388   6.568  20.649  0.00  0.00    +0.000 N 
ATOM     35  C   UNL     1      47.747   6.255  19.359  0.00  0.00    +0.000 A 
ATOM     36  O   UNL     1      47.675   5.106  18.941  0.00  0.00    +0.000 OA
ATOM     37  C   UNL     1      48.195   7.382  18.568  0.00  0.00    +0.000 A 
ATOM     38  H   UNL     1      47.072   5.799  21.228  0.00  0.00    +0.000 HD
ENDBRANCH  25  28
ENDBRANCH  23  24
ENDBRANCH   4  23
TORSDOF 8
ENDMDL
MODEL 7
REMARK VINA RESULT:    -6.733      3.536      5.398
REMARK INTER + INTRA:         -10.855
REMARK INTER:                  -9.635
REMARK INTRA:                  -1.220
REMARK UNBOUND:                -1.171
REMARK  Name = 
REMARK  8 active torsions:
REMARK  status: ('A' for Active; 'I' for Inactive)
REMARK    1  A    between atoms: N_1  and  C_2
REMARK    2  A    between atoms: C_2  and  C_3
REMARK    3  A    between atoms: C_3  and  N_4
REMARK    4  A    between atoms: C_3  and  C_13
REMARK    5  A    between atoms: C_5  and  C_7
REMARK    6  A    between atoms: C_16  and  C_17
REMARK    7  A    between atoms: C_17  and  N_18
REMARK    8  A    between atoms: C_19  and  C_21
REMARK                            x       y       z     vdW  Elec       q    Type
REMARK                         _______ _______ _______ _____ _____    ______ ____
ROOT
ATOM      1  C   UNL     1      47.665   6.054  14.113  0.00  0.00    +0.000 A 
ATOM      2  C   UNL     1      48.564   6.684  14.975  0.00  0.00    +0.000 A 
ATOM      3  C   UNL     1      48.932   6.050  16.165  0.00  0.00    +0.000 A 
ATOM      4  C   UNL     1      48.419   4.790  16.471  0.00  0.00    +0.000 A 
ATOM      5  C   UNL     1      47.529   4.235  15.560  0.00  0.00    +0.000 A 
ATOM      6  N   UNL     1      47.153   4.829  14.400  0.00  0.00    +0.000 NA
ENDROOT
BRANCH   1   7
ATOM      7  C   UNL     1      47.131   6.771  12.867  0.00  0.00    +0.000 C 
BRANCH   7   8
ATOM      8  N   UNL     1      46.298   5.875  12.039  0.00  0.00    +0.000 N 
ATOM      9  C   UNL     1      45.182   6.345  11.390  0.00  0.00    +0.000 C 
ATOM     10  O   UNL     1      44.880   7.537  11.371  0.00  0.00    +0.000 OA
ATOM     11  H   UNL     1      46.330   4.877  12.234  0.00  0.00    +0.000 HD
BRANCH   9  12
ATOM     12  C   UNL     1      44.247   5.328  10.739  0.00  0.00    +0.000 C 
ATOM     13  C   UNL     1      42.939   5.209  11.525  0.00  0.00    +0.000 C 
ATOM     14  C   UNL     1      43.036   4.185  12.649  0.00  0.00    +0.000 C 
ATOM     15  C   UNL     1      43.565   2.856  12.123  0.00  0.00    +0.000 C 
ATOM     16  N   UNL     1      44.896   3.029  11.535  0.00  0.00    +0.000 NA
ATOM     17  C   UNL     1      44.868   3.968  10.408  0.00  0.00    +0.000 C 
ATOM     18  H   UNL     1      45.210   2.119  11.187  0.00  0.00    +0.000 HD
ENDBRANCH   9  12
ENDBRANCH   7   8
BRANCH   7  19
ATOM     19  C   UNL     1      48.320   7.405  12.065  0.00  0.00    +0.000 C 
BRANCH  19  20
ATOM     20  N   UNL     1      48.330   8.875  11.976  0.00  0.00    +0.000 NA
ATOM     21  H   UNL     1      49.095   9.238  12.541  0.00  0.00    +0.000 HD
ATOM     22  H   UNL     1      47.464   9.256  12.356  0.00  0.00    +0.000 HD
ENDBRANCH  19  20
ENDBRANCH   7  19
ENDBRANCH   1   7
BRANCH   4  23
ATOM     23  C   UNL     1      48.775   4.075  17.743  0.00  0.00    +0.000 C 
BRANCH  23  24
ATOM     24  N   UNL     1      50.142   3.615  17.730  0.00  0.00    +0.000 N 
ATOM     25  C   UNL     1      51.055   4.070  18.649  0.00  0.00    +0.000 C 
ATOM     26  O   UNL     1      50.734   4.821  19.566  0.00  0.00    +0.000 OA
ATOM     27  H   UNL     1      50.479   3.190  16.872  0.00  0.00    +0.000 HD
BRANCH  25  28
ATOM     28  C   UNL     1      52.431   3.570  18.515  0.00  0.00    +0.000 A 
ATOM     29  C   UNL     1      53.500   4.391  18.850  0.00  0.00    +0.000 A 
ATOM     30  S   UNL     1      55.022   3.640  18.680  0.00  0.00    +0.000 S 
ATOM     31  C   UNL     1      54.312   2.209  18.099  0.00  0.00    +0.000 A 
ATOM     32  N   UNL     1      55.078   1.146  17.728  0.00  0.00    +0.000 NA
ATOM     33  C   UNL     1      54.408   0.140  17.273  0.00  0.00    +0.000 A 
ATOM     34  N   UNL     1      53.042   0.099  17.162  0.00  0.00    +0.000 N 
ATOM     35  C   UNL     1      52.229   1.133  17.562  0.00  0.00    +0.000 A 
ATOM     36  O   UNL     1      51.009   1.042  17.498  0.00  0.00    +0.000 OA
ATOM     37  C   UNL     1      52.933   2.297  18.058  0.00  0.00    +0.000 A 
ATOM     38  H   UNL     1      52.579  -0.728  16.808  0.00  0.00    +0.000 HD
ENDBRANCH  25  28
ENDBRANCH  23  24
ENDBRANCH   4  23
TORSDOF 8
ENDMDL
MODEL 8
REMARK VINA RESULT:    -6.596      3.345      5.225
REMARK INTER + INTRA:         -10.659
REMARK INTER:                  -9.202
REMARK INTRA:                  -1.457
REMARK UNBOUND:                -1.171
REMARK  Name = 
REMARK  8 active torsions:
REMARK  status: ('A' for Active; 'I' for Inactive)
REMARK    1  A    between atoms: N_1  and  C_2
REMARK    2  A    between atoms: C_2  and  C_3
REMARK    3  A    between atoms: C_3  and  N_4
REMARK    4  A    between atoms: C_3  and  C_13
REMARK    5  A    between atoms: C_5  and  C_7
REMARK    6  A    between atoms: C_16  and  C_17
REMARK    7  A    between atoms: C_17  and  N_18
REMARK    8  A    between atoms: C_19  and  C_21
REMARK                            x       y       z     vdW  Elec       q    Type
REMARK                         _______ _______ _______ _____ _____    ______ ____
ROOT
ATOM      1  C   UNL     1      48.304   7.902  14.325  0.00  0.00    +0.000 A 
ATOM      2  C   UNL     1      48.090   8.877  15.301  0.00  0.00    +0.000 A 
ATOM      3  C   UNL     1      48.985   8.989  16.367  0.00  0.00    +0.000 A 
ATOM      4  C   UNL     1      50.094   8.144  16.438  0.00  0.00    +0.000 A 
ATOM      5  C   UNL     1      50.231   7.202  15.427  0.00  0.00    +0.000 A 
ATOM      6  N   UNL     1      49.376   7.070  14.383  0.00  0.00    +0.000 NA
ENDROOT
BRANCH   1   7
ATOM      7  C   UNL     1      47.275   7.656  13.215  0.00  0.00    +0.000 C 
BRANCH   7   8
ATOM      8  N   UNL     1      46.619   6.341  13.363  0.00  0.00    +0.000 N 
ATOM      9  C   UNL     1      45.345   6.129  12.896  0.00  0.00    +0.000 C 
ATOM     10  O   UNL     1      44.730   6.971  12.242  0.00  0.00    +0.000 OA
ATOM     11  H   UNL     1      46.945   5.725  14.104  0.00  0.00    +0.000 HD
BRANCH   9  12
ATOM     12  C   UNL     1      44.646   4.826  13.277  0.00  0.00    +0.000 C 
ATOM     13  C   UNL     1      45.359   3.623  12.656  0.00  0.00    +0.000 C 
ATOM     14  C   UNL     1      44.853   3.317  11.252  0.00  0.00    +0.000 C 
ATOM     15  C   UNL     1      43.333   3.208  11.240  0.00  0.00    +0.000 C 
ATOM     16  N   UNL     1      42.724   4.463  11.689  0.00  0.00    +0.000 NA
ATOM     17  C   UNL     1      43.130   4.795  13.060  0.00  0.00    +0.000 C 
ATOM     18  H   UNL     1      41.708   4.346  11.675  0.00  0.00    +0.000 HD
ENDBRANCH   9  12
ENDBRANCH   7   8
BRANCH   7  19
ATOM     19  C   UNL     1      47.950   7.841  11.811  0.00  0.00    +0.000 C 
BRANCH  19  20
ATOM     20  N   UNL     1      49.048   8.821  11.744  0.00  0.00    +0.000 NA
ATOM     21  H   UNL     1      49.018   9.411  12.573  0.00  0.00    +0.000 HD
ATOM     22  H   UNL     1      48.928   9.428  10.934  0.00  0.00    +0.000 HD
ENDBRANCH  19  20
ENDBRANCH   7  19
ENDBRANCH   1   7
BRANCH   4  23
ATOM     23  C   UNL     1      51.077   8.219  17.571  0.00  0.00    +0.000 C 
BRANCH  23  24
ATOM     24  N   UNL     1      51.766   6.966  17.761  0.00  0.00    +0.000 N 
ATOM     25  C   UNL     1      51.309   6.030  18.655  0.00  0.00    +0.000 C 
ATOM     26  O   UNL     1      50.255   6.180  19.269  0.00  0.00    +0.000 OA
ATOM     27  H   UNL     1      52.732   6.917  17.451  0.00  0.00    +0.000 HD
BRANCH  25  28
ATOM     28  C   UNL     1      52.113   4.809  18.803  0.00  0.00    +0.000 A 
ATOM     29  C   UNL     1      53.288   4.842  19.542  0.00  0.00    +0.000 A 
ATOM     30  S   UNL     1      54.074   3.331  19.651  0.00  0.00    +0.000 S 
ATOM     31  C   UNL     1      52.902   2.590  18.668  0.00  0.00    +0.000 A 
ATOM     32  N   UNL     1      52.996   1.273  18.334  0.00  0.00    +0.000 NA
ATOM     33  C   UNL     1      52.057   0.853  17.553  0.00  0.00    +0.000 A 
ATOM     34  N   UNL     1      51.030   1.628  17.083  0.00  0.00    +0.000 N 
ATOM     35  C   UNL     1      50.873   2.949  17.427  0.00  0.00    +0.000 A 
ATOM     36  O   UNL     1      49.913   3.599  17.030  0.00  0.00    +0.000 OA
ATOM     37  C   UNL     1      51.915   3.478  18.283  0.00  0.00    +0.000 A 
ATOM     38  H   UNL     1      50.318   1.230  16.483  0.00  0.00    +0.000 HD
ENDBRANCH  25  28
ENDBRANCH  23  24
ENDBRANCH   4  23
TORSDOF 8
ENDMDL
MODEL 9
REMARK VINA RESULT:    -5.235     11.436     14.413
REMARK INTER + INTRA:          -8.701
REMARK INTER:                  -7.556
REMARK INTRA:                  -1.145
REMARK UNBOUND:                -1.171
REMARK  Name = 
REMARK  8 active torsions:
REMARK  status: ('A' for Active; 'I' for Inactive)
REMARK    1  A    between atoms: N_1  and  C_2
REMARK    2  A    between atoms: C_2  and  C_3
REMARK    3  A    between atoms: C_3  and  N_4
REMARK    4  A    between atoms: C_3  and  C_13
REMARK    5  A    between atoms: C_5  and  C_7
REMARK    6  A    between atoms: C_16  and  C_17
REMARK    7  A    between atoms: C_17  and  N_18
REMARK    8  A    between atoms: C_19  and  C_21
REMARK                            x       y       z     vdW  Elec       q    Type
REMARK                         _______ _______ _______ _____ _____    ______ ____
ROOT
ATOM      1  C   UNL     1      37.770  -2.641   8.598  0.00  0.00    +0.000 A 
ATOM      2  C   UNL     1      37.263  -1.566   9.330  0.00  0.00    +0.000 A 
ATOM      3  C   UNL     1      36.682  -0.490   8.655  0.00  0.00    +0.000 A 
ATOM      4  C   UNL     1      36.594  -0.506   7.262  0.00  0.00    +0.000 A 
ATOM      5  C   UNL     1      37.124  -1.612   6.612  0.00  0.00    +0.000 A 
ATOM      6  N   UNL     1      37.695  -2.669   7.242  0.00  0.00    +0.000 NA
ENDROOT
BRANCH   1   7
ATOM      7  C   UNL     1      38.535  -3.777   9.288  0.00  0.00    +0.000 C 
BRANCH   7   8
ATOM      8  N   UNL     1      39.449  -3.263  10.329  0.00  0.00    +0.000 N 
ATOM      9  C   UNL     1      39.321  -3.655  11.639  0.00  0.00    +0.000 C 
ATOM     10  O   UNL     1      38.525  -4.523  11.997  0.00  0.00    +0.000 OA
ATOM     11  H   UNL     1      39.919  -2.377  10.158  0.00  0.00    +0.000 HD
BRANCH   9  12
ATOM     12  C   UNL     1      40.147  -2.922  12.693  0.00  0.00    +0.000 C 
ATOM     13  C   UNL     1      41.518  -3.580  12.865  0.00  0.00    +0.000 C 
ATOM     14  C   UNL     1      41.488  -4.713  13.883  0.00  0.00    +0.000 C 
ATOM     15  C   UNL     1      40.859  -4.246  15.190  0.00  0.00    +0.000 C 
ATOM     16  N   UNL     1      39.485  -3.789  14.964  0.00  0.00    +0.000 NA
ATOM     17  C   UNL     1      39.443  -2.659  14.027  0.00  0.00    +0.000 C 
ATOM     18  H   UNL     1      39.102  -3.476  15.860  0.00  0.00    +0.000 HD
ENDBRANCH   9  12
ENDBRANCH   7   8
BRANCH   7  19
ATOM     19  C   UNL     1      39.270  -4.654   8.216  0.00  0.00    +0.000 C 
BRANCH  19  20
ATOM     20  N   UNL     1      40.280  -3.965   7.396  0.00  0.00    +0.000 NA
ATOM     21  H   UNL     1      40.829  -3.349   7.993  0.00  0.00    +0.000 HD
ATOM     22  H   UNL     1      39.826  -3.381   6.694  0.00  0.00    +0.000 HD
ENDBRANCH  19  20
ENDBRANCH   7  19
ENDBRANCH   1   7
BRANCH   4  23
ATOM     23  C   UNL     1      35.990   0.633   6.492  0.00  0.00    +0.000 C 
BRANCH  23  24
ATOM     24  N   UNL     1      36.855   1.074   5.426  0.00  0.00    +0.000 N 
ATOM     25  C   UNL     1      37.894   1.940   5.664  0.00  0.00    +0.000 C 
ATOM     26  O   UNL     1      38.181   2.313   6.799  0.00  0.00    +0.000 OA
ATOM     27  H   UNL     1      36.510   0.971   4.476  0.00  0.00    +0.000 HD
BRANCH  25  28
ATOM     28  C   UNL     1      38.683   2.361   4.498  0.00  0.00    +0.000 A 
ATOM     29  C   UNL     1      38.987   1.443   3.502  0.00  0.00    +0.000 A 
ATOM     30  S   UNL     1      39.869   2.106   2.201  0.00  0.00    +0.000 S 
ATOM     31  C   UNL     1      39.926   3.633   2.947  0.00  0.00    +0.000 A 
ATOM     32  N   UNL     1      40.576   4.676   2.363  0.00  0.00    +0.000 NA
ATOM     33  C   UNL     1      40.569   5.766   3.058  0.00  0.00    +0.000 A 
ATOM     34  N   UNL     1      39.964   5.906   4.279  0.00  0.00    +0.000 N 
ATOM     35  C   UNL     1      39.263   4.891   4.887  0.00  0.00    +0.000 A 
ATOM     36  O   UNL     1      38.690   5.067   5.956  0.00  0.00    +0.000 OA
ATOM     37  C   UNL     1      39.261   3.639   4.160  0.00  0.00    +0.000 A 
ATOM     38  H   UNL     1      39.985   6.793   4.766  0.00  0.00    +0.000 HD
ENDBRANCH  25  28
ENDBRANCH  23  24
ENDBRANCH   4  23
TORSDOF 8
ENDMDL
