MODEL 1
REMARK VINA RESULT:    -7.868      0.000      0.000
REMARK INTER + INTRA:         -10.877
REMARK INTER:                 -10.398
REMARK INTRA:                  -0.479
REMARK UNBOUND:                -0.479
REMARK  Name = 
REMARK  6 active torsions:
REMARK  status: ('A' for Active; 'I' for Inactive)
REMARK    1  A    between atoms: C_2  and  C_4
REMARK    2  A    between atoms: C_7  and  N_8
REMARK    3  A    between atoms: N_8  and  CA_9
REMARK    4  A    between atoms: CA_9  and  C_10
REMARK    5  A    between atoms: CA_9  and  C_12
REMARK    6  A    between atoms: C_10  and  O_11
REMARK                            x       y       z     vdW  Elec       q    Type
REMARK                         _______ _______ _______ _____ _____    ______ ____
ROOT
ATOM      1  N   UNL     1      43.759   3.903  10.293  0.00  0.00    +0.000 N 
ATOM      2  H   UNL     1      42.786   3.736  10.045  0.00  0.00    +0.000 HD
ENDROOT
BRANCH   1   6
ATOM      3  C   UNL     1      46.502   2.679   7.404  0.00  0.00    +0.000 A 
ATOM      4  C   UNL     1      46.040   1.729   8.304  0.00  0.00    +0.000 A 
ATOM      5  C   UNL     1      45.104   2.120   9.266  0.00  0.00    +0.000 A 
ATOM      6  C   UNL     1      44.678   3.445   9.351  0.00  0.00    +0.000 A 
ATOM      7  C   UNL     1      45.167   4.299   8.351  0.00  0.00    +0.000 A 
ATOM      8  N   UNL     1      46.079   3.969   7.396  0.00  0.00    +0.000 NA
BRANCH   3  10
ATOM      9  N   UNL     1      47.545   3.029   5.232  0.00  0.00    +0.000 N 
ATOM     10  C   UNL     1      47.522   2.279   6.377  0.00  0.00    +0.000 C 
ATOM     11  O   UNL     1      48.299   1.351   6.549  0.00  0.00    +0.000 OA
ATOM     12  H   UNL     1      48.223   2.814   4.516  0.00  0.00    +0.000 HD
ATOM     13  H   UNL     1      46.915   3.818   5.128  0.00  0.00    +0.000 HD
ENDBRANCH   3  10
ENDBRANCH   1   6
BRANCH   1  14
ATOM     14  CA  UNL     1      43.946   5.169  11.047  0.00  0.00    +0.000 C 
BRANCH  14  15
ATOM     15  C   UNL     1      45.374   5.159  11.696  0.00  0.00    +0.000 C 
ATOM     16  C   UNL     1      45.326   4.825  13.204  0.00  0.00    +0.000 C 
ATOM     17  C   UNL     1      46.690   4.938  13.889  0.00  0.00    +0.000 C 
ATOM     18  C   UNL     1      47.322   6.303  13.661  0.00  0.00    +0.000 C 
ATOM     19  C   UNL     1      47.441   6.596  12.172  0.00  0.00    +0.000 C 
ATOM     20  C   UNL     1      46.082   6.515  11.478  0.00  0.00    +0.000 C 
ENDBRANCH  14  15
BRANCH  14  21
ATOM     21  C   UNL     1      42.817   5.343  12.094  0.00  0.00    +0.000 C 
BRANCH  21  22
ATOM     22  O   UNL     1      41.940   6.416  11.753  0.00  0.00    +0.000 OA
ATOM     23  H   UNL     1      41.156   6.003  11.348  0.00  0.00    +0.000 HD
ENDBRANCH  21  22
ENDBRANCH  14  21
ENDBRANCH   1  14
TORSDOF 6
ENDMDL
MODEL 2
REMARK VINA RESULT:    -7.818      0.983      1.305
REMARK INTER + INTRA:         -10.811
REMARK INTER:                 -10.372
REMARK INTRA:                  -0.440
REMARK UNBOUND:                -0.479
REMARK  Name = 
REMARK  6 active torsions:
REMARK  status: ('A' for Active; 'I' for Inactive)
REMARK    1  A    between atoms: C_2  and  C_4
REMARK    2  A    between atoms: C_7  and  N_8
REMARK    3  A    between atoms: N_8  and  CA_9
REMARK    4  A    between atoms: CA_9  and  C_10
REMARK    5  A    between atoms: CA_9  and  C_12
REMARK    6  A    between atoms: C_10  and  O_11
REMARK                            x       y       z     vdW  Elec       q    Type
REMARK                         _______ _______ _______ _____ _____    ______ ____
ROOT
ATOM      1  N   UNL     1      43.580   4.364  10.135  0.00  0.00    +0.000 N 
ATOM      2  H   UNL     1      42.681   4.511   9.681  0.00  0.00    +0.000 HD
ENDROOT
BRANCH   1   6
ATOM      3  C   UNL     1      46.379   2.296   7.841  0.00  0.00    +0.000 A 
ATOM      4  C   UNL     1      46.279   3.668   7.661  0.00  0.00    +0.000 A 
ATOM      5  C   UNL     1      45.360   4.379   8.438  0.00  0.00    +0.000 A 
ATOM      6  C   UNL     1      44.526   3.718   9.341  0.00  0.00    +0.000 A 
ATOM      7  C   UNL     1      44.761   2.342   9.479  0.00  0.00    +0.000 A 
ATOM      8  N   UNL     1      45.641   1.606   8.747  0.00  0.00    +0.000 NA
BRANCH   3  10
ATOM      9  N   UNL     1      48.433   2.211   6.537  0.00  0.00    +0.000 N 
ATOM     10  C   UNL     1      47.349   1.517   7.001  0.00  0.00    +0.000 C 
ATOM     11  O   UNL     1      47.196   0.329   6.752  0.00  0.00    +0.000 OA
ATOM     12  H   UNL     1      49.126   1.730   5.982  0.00  0.00    +0.000 HD
ATOM     13  H   UNL     1      48.557   3.187   6.788  0.00  0.00    +0.000 HD
ENDBRANCH   3  10
ENDBRANCH   1   6
BRANCH   1  14
ATOM     14  CA  UNL     1      43.934   5.462  11.070  0.00  0.00    +0.000 C 
BRANCH  14  15
ATOM     15  C   UNL     1      45.361   5.181  11.658  0.00  0.00    +0.000 C 
ATOM     16  C   UNL     1      45.301   4.354  12.961  0.00  0.00    +0.000 C 
ATOM     17  C   UNL     1      46.669   4.179  13.625  0.00  0.00    +0.000 C 
ATOM     18  C   UNL     1      47.351   5.516  13.869  0.00  0.00    +0.000 C 
ATOM     19  C   UNL     1      47.479   6.296  12.569  0.00  0.00    +0.000 C 
ATOM     20  C   UNL     1      46.118   6.504  11.907  0.00  0.00    +0.000 C 
ENDBRANCH  14  15
BRANCH  14  21
ATOM     21  C   UNL     1      42.852   5.599  12.172  0.00  0.00    +0.000 C 
BRANCH  21  22
ATOM     22  O   UNL     1      41.862   6.566  11.825  0.00  0.00    +0.000 OA
ATOM     23  H   UNL     1      41.669   7.058  12.643  0.00  0.00    +0.000 HD
ENDBRANCH  21  22
ENDBRANCH  14  21
ENDBRANCH   1  14
TORSDOF 6
ENDMDL
MODEL 3
REMARK VINA RESULT:    -7.232      1.413      1.798
REMARK INTER + INTRA:         -10.036
REMARK INTER:                 -10.069
REMARK INTRA:                   0.033
REMARK UNBOUND:                -0.479
REMARK  Name = 
REMARK  6 active torsions:
REMARK  status: ('A' for Active; 'I' for Inactive)
REMARK    1  A    between atoms: C_2  and  C_4
REMARK    2  A    between atoms: C_7  and  N_8
REMARK    3  A    between atoms: N_8  and  CA_9
REMARK    4  A    between atoms: CA_9  and  C_10
REMARK    5  A    between atoms: CA_9  and  C_12
REMARK    6  A    between atoms: C_10  and  O_11
REMARK                            x       y       z     vdW  Elec       q    Type
REMARK                         _______ _______ _______ _____ _____    ______ ____
ROOT
ATOM      1  N   UNL     1      43.725   4.696   9.959  0.00  0.00    +0.000 N 
ATOM      2  H   UNL     1      43.574   5.676   9.729  0.00  0.00    +0.000 HD
ENDROOT
BRANCH   1   6
ATOM      3  C   UNL     1      46.590   2.920   7.508  0.00  0.00    +0.000 A 
ATOM      4  C   UNL     1      45.628   2.101   8.081  0.00  0.00    +0.000 A 
ATOM      5  C   UNL     1      44.648   2.684   8.889  0.00  0.00    +0.000 A 
ATOM      6  C   UNL     1      44.663   4.054   9.153  0.00  0.00    +0.000 A 
ATOM      7  C   UNL     1      45.645   4.787   8.470  0.00  0.00    +0.000 A 
ATOM      8  N   UNL     1      46.620   4.267   7.676  0.00  0.00    +0.000 NA
BRANCH   3  10
ATOM      9  N   UNL     1      47.948   2.965   5.487  0.00  0.00    +0.000 N 
ATOM     10  C   UNL     1      47.660   2.306   6.652  0.00  0.00    +0.000 C 
ATOM     11  O   UNL     1      48.254   1.287   6.974  0.00  0.00    +0.000 OA
ATOM     12  H   UNL     1      48.672   2.605   4.884  0.00  0.00    +0.000 HD
ATOM     13  H   UNL     1      47.467   3.830   5.260  0.00  0.00    +0.000 HD
ENDBRANCH   3  10
ENDBRANCH   1   6
BRANCH   1  14
ATOM     14  CA  UNL     1      43.600   4.426  11.414  0.00  0.00    +0.000 C 
BRANCH  14  15
ATOM     15  C   UNL     1      44.459   5.482  12.196  0.00  0.00    +0.000 C 
ATOM     16  C   UNL     1      44.551   6.829  11.445  0.00  0.00    +0.000 C 
ATOM     17  C   UNL     1      45.490   7.831  12.120  0.00  0.00    +0.000 C 
ATOM     18  C   UNL     1      46.876   7.243  12.339  0.00  0.00    +0.000 C 
ATOM     19  C   UNL     1      46.790   5.956  13.147  0.00  0.00    +0.000 C 
ATOM     20  C   UNL     1      45.877   4.934  12.472  0.00  0.00    +0.000 C 
ENDBRANCH  14  15
BRANCH  14  21
ATOM     21  C   UNL     1      44.019   2.967  11.728  0.00  0.00    +0.000 C 
BRANCH  21  22
ATOM     22  O   UNL     1      42.901   2.080  11.709  0.00  0.00    +0.000 OA
ATOM     23  H   UNL     1      42.165   2.584  11.317  0.00  0.00    +0.000 HD
ENDBRANCH  21  22
ENDBRANCH  14  21
ENDBRANCH   1  14
TORSDOF 6
ENDMDL
MODEL 4
REMARK VINA RESULT:    -6.659      3.255      6.421
REMARK INTER + INTRA:          -9.280
REMARK INTER:                  -8.729
REMARK INTRA:                  -0.551
REMARK UNBOUND:                -0.479
REMARK  Name = 
REMARK  6 active torsions:
REMARK  status: ('A' for Active; 'I' for Inactive)
REMARK    1  A    between atoms: C_2  and  C_4
REMARK    2  A    between atoms: C_7  and  N_8
REMARK    3  A    between atoms: N_8  and  CA_9
REMARK    4  A    between atoms: CA_9  and  C_10
REMARK    5  A    between atoms: CA_9  and  C_12
REMARK    6  A    between atoms: C_10  and  O_11
REMARK                            x       y       z     vdW  Elec       q    Type
REMARK                         _______ _______ _______ _____ _____    ______ ____
ROOT
ATOM      1  N   UNL     1      45.478   5.588  11.377  0.00  0.00    +0.000 N 
ATOM      2  H   UNL     1      45.419   6.532  11.002  0.00  0.00    +0.000 HD
ENDROOT
BRANCH   1   6
ATOM      3  C   UNL     1      47.468   5.175  15.016  0.00  0.00    +0.000 A 
ATOM      4  C   UNL     1      47.843   6.221  14.186  0.00  0.00    +0.000 A 
ATOM      5  C   UNL     1      47.171   6.386  12.972  0.00  0.00    +0.000 A 
ATOM      6  C   UNL     1      46.177   5.490  12.579  0.00  0.00    +0.000 A 
ATOM      7  C   UNL     1      45.843   4.510  13.526  0.00  0.00    +0.000 A 
ATOM      8  N   UNL     1      46.466   4.308  14.719  0.00  0.00    +0.000 NA
BRANCH   3  10
ATOM      9  N   UNL     1      48.039   5.966  17.247  0.00  0.00    +0.000 N 
ATOM     10  C   UNL     1      48.193   4.975  16.316  0.00  0.00    +0.000 C 
ATOM     11  O   UNL     1      48.870   3.983  16.544  0.00  0.00    +0.000 OA
ATOM     12  H   UNL     1      48.490   5.873  18.145  0.00  0.00    +0.000 HD
ATOM     13  H   UNL     1      47.441   6.762  17.048  0.00  0.00    +0.000 HD
ENDBRANCH   3  10
ENDBRANCH   1   6
BRANCH   1  14
ATOM     14  CA  UNL     1      44.266   4.781  11.087  0.00  0.00    +0.000 C 
BRANCH  14  15
ATOM     15  C   UNL     1      44.494   3.995   9.749  0.00  0.00    +0.000 C 
ATOM     16  C   UNL     1      44.858   2.514   9.999  0.00  0.00    +0.000 C 
ATOM     17  C   UNL     1      45.215   1.758   8.717  0.00  0.00    +0.000 C 
ATOM     18  C   UNL     1      46.320   2.458   7.940  0.00  0.00    +0.000 C 
ATOM     19  C   UNL     1      45.926   3.895   7.627  0.00  0.00    +0.000 C 
ATOM     20  C   UNL     1      45.593   4.672   8.899  0.00  0.00    +0.000 C 
ENDBRANCH  14  15
BRANCH  14  21
ATOM     21  C   UNL     1      43.014   5.693  11.036  0.00  0.00    +0.000 C 
BRANCH  21  22
ATOM     22  O   UNL     1      42.431   5.866  12.327  0.00  0.00    +0.000 OA
ATOM     23  H   UNL     1      41.790   5.141  12.431  0.00  0.00    +0.000 HD
ENDBRANCH  21  22
ENDBRANCH  14  21
ENDBRANCH   1  14
TORSDOF 6
ENDMDL
MODEL 5
REMARK VINA RESULT:    -6.622      3.350      6.489
REMARK INTER + INTRA:          -9.231
REMARK INTER:                  -8.697
REMARK INTRA:                  -0.533
REMARK UNBOUND:                -0.479
REMARK  Name = 
REMARK  6 active torsions:
REMARK  status: ('A' for Active; 'I' for Inactive)
REMARK    1  A    between atoms: C_2  and  C_4
REMARK    2  A    between atoms: C_7  and  N_8
REMARK    3  A    between atoms: N_8  and  CA_9
REMARK    4  A    between atoms: CA_9  and  C_10
REMARK    5  A    between atoms: CA_9  and  C_12
REMARK    6  A    between atoms: C_10  and  O_11
REMARK                            x       y       z     vdW  Elec       q    Type
REMARK                         _______ _______ _______ _____ _____    ______ ____
ROOT
ATOM      1  N   UNL     1      44.784   6.319  10.870  0.00  0.00    +0.000 N 
ATOM      2  H   UNL     1      44.180   6.983  10.391  0.00  0.00    +0.000 HD
ENDROOT
BRANCH   1   6
ATOM      3  C   UNL     1      47.327   8.184  13.596  0.00  0.00    +0.000 A 
ATOM      4  C   UNL     1      47.694   6.936  13.114  0.00  0.00    +0.000 A 
ATOM      5  C   UNL     1      46.862   6.307  12.184  0.00  0.00    +0.000 A 
ATOM      6  C   UNL     1      45.664   6.898  11.782  0.00  0.00    +0.000 A 
ATOM      7  C   UNL     1      45.430   8.185  12.289  0.00  0.00    +0.000 A 
ATOM      8  N   UNL     1      46.206   8.838  13.196  0.00  0.00    +0.000 NA
BRANCH   3  10
ATOM      9  N   UNL     1      47.587   9.237  15.775  0.00  0.00    +0.000 N 
ATOM     10  C   UNL     1      48.201   8.865  14.609  0.00  0.00    +0.000 C 
ATOM     11  O   UNL     1      49.392   9.066  14.420  0.00  0.00    +0.000 OA
ATOM     12  H   UNL     1      48.133   9.683  16.498  0.00  0.00    +0.000 HD
ATOM     13  H   UNL     1      46.606   9.026  15.924  0.00  0.00    +0.000 HD
ENDBRANCH   3  10
ENDBRANCH   1   6
BRANCH   1  14
ATOM     14  CA  UNL     1      44.118   5.015  11.116  0.00  0.00    +0.000 C 
BRANCH  14  15
ATOM     15  C   UNL     1      44.273   4.123   9.835  0.00  0.00    +0.000 C 
ATOM     16  C   UNL     1      44.469   2.631  10.185  0.00  0.00    +0.000 C 
ATOM     17  C   UNL     1      44.755   1.758   8.961  0.00  0.00    +0.000 C 
ATOM     18  C   UNL     1      45.939   2.282   8.161  0.00  0.00    +0.000 C 
ATOM     19  C   UNL     1      45.708   3.729   7.750  0.00  0.00    +0.000 C 
ATOM     20  C   UNL     1      45.449   4.619   8.964  0.00  0.00    +0.000 C 
ENDBRANCH  14  15
BRANCH  14  21
ATOM     21  C   UNL     1      42.636   5.236  11.512  0.00  0.00    +0.000 C 
BRANCH  21  22
ATOM     22  O   UNL     1      42.505   5.624  12.879  0.00  0.00    +0.000 OA
ATOM     23  H   UNL     1      41.890   6.379  12.887  0.00  0.00    +0.000 HD
ENDBRANCH  21  22
ENDBRANCH  14  21
ENDBRANCH   1  14
TORSDOF 6
ENDMDL
MODEL 6
REMARK VINA RESULT:    -5.889      3.762      6.916
REMARK INTER + INTRA:          -8.262
REMARK INTER:                  -7.739
REMARK INTRA:                  -0.523
REMARK UNBOUND:                -0.479
REMARK  Name = 
REMARK  6 active torsions:
REMARK  status: ('A' for Active; 'I' for Inactive)
REMARK    1  A    between atoms: C_2  and  C_4
REMARK    2  A    between atoms: C_7  and  N_8
REMARK    3  A    between atoms: N_8  and  CA_9
REMARK    4  A    between atoms: CA_9  and  C_10
REMARK    5  A    between atoms: CA_9  and  C_12
REMARK    6  A    between atoms: C_10  and  O_11
REMARK                            x       y       z     vdW  Elec       q    Type
REMARK                         _______ _______ _______ _____ _____    ______ ____
ROOT
ATOM      1  N   UNL     1      46.517   5.740  12.194  0.00  0.00    +0.000 N 
ATOM      2  H   UNL     1      47.143   6.338  11.659  0.00  0.00    +0.000 HD
ENDROOT
BRANCH   1   6
ATOM      3  C   UNL     1      47.742   4.750  16.053  0.00  0.00    +0.000 A 
ATOM      4  C   UNL     1      48.263   5.902  15.482  0.00  0.00    +0.000 A 
ATOM      5  C   UNL     1      47.845   6.259  14.197  0.00  0.00    +0.000 A 
ATOM      6  C   UNL     1      46.962   5.450  13.483  0.00  0.00    +0.000 A 
ATOM      7  C   UNL     1      46.457   4.345  14.185  0.00  0.00    +0.000 A 
ATOM      8  N   UNL     1      46.832   3.955  15.434  0.00  0.00    +0.000 NA
BRANCH   3  10
ATOM      9  N   UNL     1      47.456   3.364  18.034  0.00  0.00    +0.000 N 
ATOM     10  C   UNL     1      48.194   4.344  17.426  0.00  0.00    +0.000 C 
ATOM     11  O   UNL     1      49.170   4.841  17.970  0.00  0.00    +0.000 OA
ATOM     12  H   UNL     1      47.727   3.042  18.951  0.00  0.00    +0.000 HD
ATOM     13  H   UNL     1      46.673   2.942  17.547  0.00  0.00    +0.000 HD
ENDBRANCH   3  10
ENDBRANCH   1   6
BRANCH   1  14
ATOM     14  CA  UNL     1      45.087   5.981  11.875  0.00  0.00    +0.000 C 
BRANCH  14  15
ATOM     15  C   UNL     1      44.672   5.040  10.690  0.00  0.00    +0.000 C 
ATOM     16  C   UNL     1      44.547   3.565  11.134  0.00  0.00    +0.000 C 
ATOM     17  C   UNL     1      44.273   2.609   9.972  0.00  0.00    +0.000 C 
ATOM     18  C   UNL     1      45.311   2.751   8.870  0.00  0.00    +0.000 C 
ATOM     19  C   UNL     1      45.377   4.190   8.379  0.00  0.00    +0.000 C 
ATOM     20  C   UNL     1      45.678   5.156   9.523  0.00  0.00    +0.000 C 
ENDBRANCH  14  15
BRANCH  14  21
ATOM     21  C   UNL     1      44.852   7.479  11.556  0.00  0.00    +0.000 C 
BRANCH  21  22
ATOM     22  O   UNL     1      44.882   8.282  12.736  0.00  0.00    +0.000 OA
ATOM     23  H   UNL     1      44.233   7.888  13.345  0.00  0.00    +0.000 HD
ENDBRANCH  21  22
ENDBRANCH  14  21
ENDBRANCH   1  14
TORSDOF 6
ENDMDL
MODEL 7
REMARK VINA RESULT:    -5.821      3.666      6.669
REMARK INTER + INTRA:          -8.172
REMARK INTER:                  -7.780
REMARK INTRA:                  -0.392
REMARK UNBOUND:                -0.479
REMARK  Name = 
REMARK  6 active torsions:
REMARK  status: ('A' for Active; 'I' for Inactive)
REMARK    1  A    between atoms: C_2  and  C_4
REMARK    2  A    between atoms: C_7  and  N_8
REMARK    3  A    between atoms: N_8  and  CA_9
REMARK    4  A    between atoms: CA_9  and  C_10
REMARK    5  A    between atoms: CA_9  and  C_12
REMARK    6  A    between atoms: C_10  and  O_11
REMARK                            x       y       z     vdW  Elec       q    Type
REMARK                         _______ _______ _______ _____ _____    ______ ____
ROOT
ATOM      1  N   UNL     1      45.430   6.671  11.589  0.00  0.00    +0.000 N 
ATOM      2  H   UNL     1      44.936   7.518  11.316  0.00  0.00    +0.000 HD
ENDROOT
BRANCH   1   6
ATOM      3  C   UNL     1      48.481   7.111  14.394  0.00  0.00    +0.000 A 
ATOM      4  C   UNL     1      47.770   8.244  14.025  0.00  0.00    +0.000 A 
ATOM      5  C   UNL     1      46.730   8.108  13.101  0.00  0.00    +0.000 A 
ATOM      6  C   UNL     1      46.442   6.871  12.525  0.00  0.00    +0.000 A 
ATOM      7  C   UNL     1      47.187   5.790  13.020  0.00  0.00    +0.000 A 
ATOM      8  N   UNL     1      48.208   5.869  13.917  0.00  0.00    +0.000 NA
BRANCH   3  10
ATOM      9  N   UNL     1      50.030   8.519  15.637  0.00  0.00    +0.000 N 
ATOM     10  C   UNL     1      49.612   7.242  15.372  0.00  0.00    +0.000 C 
ATOM     11  O   UNL     1      50.127   6.275  15.915  0.00  0.00    +0.000 OA
ATOM     12  H   UNL     1      50.777   8.665  16.300  0.00  0.00    +0.000 HD
ATOM     13  H   UNL     1      49.563   9.307  15.201  0.00  0.00    +0.000 HD
ENDBRANCH   3  10
ENDBRANCH   1   6
BRANCH   1  14
ATOM     14  CA  UNL     1      44.547   5.477  11.606  0.00  0.00    +0.000 C 
BRANCH  14  15
ATOM     15  C   UNL     1      45.107   4.423  10.588  0.00  0.00    +0.000 C 
ATOM     16  C   UNL     1      45.534   5.073   9.253  0.00  0.00    +0.000 C 
ATOM     17  C   UNL     1      45.960   4.052   8.196  0.00  0.00    +0.000 C 
ATOM     18  C   UNL     1      44.884   3.003   7.962  0.00  0.00    +0.000 C 
ATOM     19  C   UNL     1      44.521   2.308   9.267  0.00  0.00    +0.000 C 
ATOM     20  C   UNL     1      44.067   3.312  10.325  0.00  0.00    +0.000 C 
ENDBRANCH  14  15
BRANCH  14  21
ATOM     21  C   UNL     1      43.084   5.885  11.297  0.00  0.00    +0.000 C 
BRANCH  21  22
ATOM     22  O   UNL     1      42.953   7.296  11.128  0.00  0.00    +0.000 OA
ATOM     23  H   UNL     1      42.423   7.422  10.320  0.00  0.00    +0.000 HD
ENDBRANCH  21  22
ENDBRANCH  14  21
ENDBRANCH   1  14
TORSDOF 6
ENDMDL
MODEL 8
REMARK VINA RESULT:    -5.772      3.522      5.482
REMARK INTER + INTRA:          -8.107
REMARK INTER:                  -7.716
REMARK INTRA:                  -0.390
REMARK UNBOUND:                -0.479
REMARK  Name = 
REMARK  6 active torsions:
REMARK  status: ('A' for Active; 'I' for Inactive)
REMARK    1  A    between atoms: C_2  and  C_4
REMARK    2  A    between atoms: C_7  and  N_8
REMARK    3  A    between atoms: N_8  and  CA_9
REMARK    4  A    between atoms: CA_9  and  C_10
REMARK    5  A    between atoms: CA_9  and  C_12
REMARK    6  A    between atoms: C_10  and  O_11
REMARK                            x       y       z     vdW  Elec       q    Type
REMARK                         _______ _______ _______ _____ _____    ______ ____
ROOT
ATOM      1  N   UNL     1      46.781   6.260  14.155  0.00  0.00    +0.000 N 
ATOM      2  H   UNL     1      46.583   7.254  14.245  0.00  0.00    +0.000 HD
ENDROOT
BRANCH   1   6
ATOM      3  C   UNL     1      44.972   4.314  10.943  0.00  0.00    +0.000 A 
ATOM      4  C   UNL     1      45.590   5.532  10.700  0.00  0.00    +0.000 A 
ATOM      5  C   UNL     1      46.219   6.187  11.762  0.00  0.00    +0.000 A 
ATOM      6  C   UNL     1      46.186   5.652  13.050  0.00  0.00    +0.000 A 
ATOM      7  C   UNL     1      45.586   4.389  13.162  0.00  0.00    +0.000 A 
ATOM      8  N   UNL     1      44.960   3.713  12.160  0.00  0.00    +0.000 NA
BRANCH   3  10
ATOM      9  N   UNL     1      44.087   4.340   8.675  0.00  0.00    +0.000 N 
ATOM     10  C   UNL     1      44.276   3.608   9.816  0.00  0.00    +0.000 C 
ATOM     11  O   UNL     1      43.909   2.444   9.897  0.00  0.00    +0.000 OA
ATOM     12  H   UNL     1      43.640   3.907   7.881  0.00  0.00    +0.000 HD
ATOM     13  H   UNL     1      44.434   5.292   8.619  0.00  0.00    +0.000 HD
ENDBRANCH   3  10
ENDBRANCH   1   6
BRANCH   1  14
ATOM     14  CA  UNL     1      48.142   5.904  14.629  0.00  0.00    +0.000 C 
BRANCH  14  15
ATOM     15  C   UNL     1      48.028   5.288  16.067  0.00  0.00    +0.000 C 
ATOM     16  C   UNL     1      49.367   5.350  16.835  0.00  0.00    +0.000 C 
ATOM     17  C   UNL     1      49.318   4.638  18.189  0.00  0.00    +0.000 C 
ATOM     18  C   UNL     1      48.846   3.199  18.050  0.00  0.00    +0.000 C 
ATOM     19  C   UNL     1      47.489   3.145  17.363  0.00  0.00    +0.000 C 
ATOM     20  C   UNL     1      47.528   3.828  15.997  0.00  0.00    +0.000 C 
ENDBRANCH  14  15
BRANCH  14  21
ATOM     21  C   UNL     1      49.068   7.146  14.585  0.00  0.00    +0.000 C 
BRANCH  21  22
ATOM     22  O   UNL     1      50.038   7.047  13.542  0.00  0.00    +0.000 OA
ATOM     23  H   UNL     1      49.610   7.403  12.743  0.00  0.00    +0.000 HD
ENDBRANCH  21  22
ENDBRANCH  14  21
ENDBRANCH   1  14
TORSDOF 6
ENDMDL
MODEL 9
REMARK VINA RESULT:    -5.703      3.875      6.891
REMARK INTER + INTRA:          -8.016
REMARK INTER:                  -7.544
REMARK INTRA:                  -0.473
REMARK UNBOUND:                -0.479
REMARK  Name = 
REMARK  6 active torsions:
REMARK  status: ('A' for Active; 'I' for Inactive)
REMARK    1  A    between atoms: C_2  and  C_4
REMARK    2  A    between atoms: C_7  and  N_8
REMARK    3  A    between atoms: N_8  and  CA_9
REMARK    4  A    between atoms: CA_9  and  C_10
REMARK    5  A    between atoms: CA_9  and  C_12
REMARK    6  A    between atoms: C_10  and  O_11
REMARK                            x       y       z     vdW  Elec       q    Type
REMARK                         _______ _______ _______ _____ _____    ______ ____
ROOT
ATOM      1  N   UNL     1      46.056   5.976  12.444  0.00  0.00    +0.000 N 
ATOM      2  H   UNL     1      45.977   6.977  12.281  0.00  0.00    +0.000 HD
ENDROOT
BRANCH   1   6
ATOM      3  C   UNL     1      48.218   5.077  15.892  0.00  0.00    +0.000 A 
ATOM      4  C   UNL     1      47.174   4.233  15.542  0.00  0.00    +0.000 A 
ATOM      5  C   UNL     1      46.453   4.510  14.377  0.00  0.00    +0.000 A 
ATOM      6  C   UNL     1      46.744   5.635  13.607  0.00  0.00    +0.000 A 
ATOM      7  C   UNL     1      47.858   6.378  14.026  0.00  0.00    +0.000 A 
ATOM      8  N   UNL     1      48.590   6.152  15.151  0.00  0.00    +0.000 NA
BRANCH   3  10
ATOM      9  N   UNL     1      50.165   5.493  17.294  0.00  0.00    +0.000 N 
ATOM     10  C   UNL     1      48.990   4.804  17.150  0.00  0.00    +0.000 C 
ATOM     11  O   UNL     1      48.597   4.026  18.007  0.00  0.00    +0.000 OA
ATOM     12  H   UNL     1      50.714   5.360  18.130  0.00  0.00    +0.000 HD
ATOM     13  H   UNL     1      50.452   6.161  16.586  0.00  0.00    +0.000 HD
ENDBRANCH   3  10
ENDBRANCH   1   6
BRANCH   1  14
ATOM     14  CA  UNL     1      44.868   5.224  11.966  0.00  0.00    +0.000 C 
BRANCH  14  15
ATOM     15  C   UNL     1      45.299   4.319  10.759  0.00  0.00    +0.000 C 
ATOM     16  C   UNL     1      45.600   5.147   9.489  0.00  0.00    +0.000 C 
ATOM     17  C   UNL     1      45.894   4.281   8.262  0.00  0.00    +0.000 C 
ATOM     18  C   UNL     1      44.778   3.282   7.999  0.00  0.00    +0.000 C 
ATOM     19  C   UNL     1      44.536   2.414   9.226  0.00  0.00    +0.000 C 
ATOM     20  C   UNL     1      44.213   3.263  10.454  0.00  0.00    +0.000 C 
ENDBRANCH  14  15
BRANCH  14  21
ATOM     21  C   UNL     1      43.725   6.203  11.598  0.00  0.00    +0.000 C 
BRANCH  21  22
ATOM     22  O   UNL     1      42.499   5.851  12.239  0.00  0.00    +0.000 OA
ATOM     23  H   UNL     1      42.182   6.662  12.675  0.00  0.00    +0.000 HD
ENDBRANCH  21  22
ENDBRANCH  14  21
ENDBRANCH   1  14
TORSDOF 6
ENDMDL
