MODEL 1
REMARK VINA RESULT:    -7.779      0.000      0.000
REMARK INTER + INTRA:         -10.260
REMARK INTER:                  -9.825
REMARK INTRA:                  -0.435
REMARK UNBOUND:                -0.435
REMARK  Name = 
REMARK  5 active torsions:
REMARK  status: ('A' for Active; 'I' for Inactive)
REMARK    1  A    between atoms: N_1  and  C_2
REMARK    2  A    between atoms: C_2  and  C_3
REMARK    3  A    between atoms: C_3  and  C_4
REMARK    4  A    between atoms: C_7  and  C_8
REMARK    5  A    between atoms: C_8  and  N_9
REMARK                            x       y       z     vdW  Elec       q    Type
REMARK                         _______ _______ _______ _____ _____    ______ ____
ROOT
ATOM      1  C   UNL     1      46.094   2.268   7.823  0.00  0.00    +0.000 A 
ATOM      2  C   UNL     1      45.298   1.602   8.765  0.00  0.00    +0.000 A 
ATOM      3  C   UNL     1      44.540   2.321   9.694  0.00  0.00    +0.000 A 
ATOM      4  C   UNL     1      44.551   3.723   9.690  0.00  0.00    +0.000 A 
ATOM      5  C   UNL     1      45.330   4.386   8.731  0.00  0.00    +0.000 A 
ATOM      6  C   UNL     1      46.088   3.667   7.805  0.00  0.00    +0.000 A 
ENDROOT
BRANCH   1   7
ATOM      7  C   UNL     1      46.960   1.494   6.860  0.00  0.00    +0.000 C 
BRANCH   7   8
ATOM      8  C   UNL     1      48.248   2.232   6.487  0.00  0.00    +0.000 C 
BRANCH   8   9
ATOM      9  N   UNL     1      48.271   2.545   5.057  0.00  0.00    +0.000 NA
ATOM     10  H   UNL     1      47.517   3.198   4.844  0.00  0.00    +0.000 HD
ATOM     11  H   UNL     1      48.075   1.700   4.516  0.00  0.00    +0.000 HD
ENDBRANCH   8   9
ENDBRANCH   7   8
ENDBRANCH   1   7
BRANCH   4  12
ATOM     12  C   UNL     1      43.780   4.510  10.721  0.00  0.00    +0.000 C 
BRANCH  12  13
ATOM     13  N   UNL     1      44.658   5.352  11.520  0.00  0.00    +0.000 N 
ATOM     14  C   UNL     1      44.722   6.727  11.450  0.00  0.00    +0.000 A 
ATOM     15  C   UNL     1      45.652   7.155  12.374  0.00  0.00    +0.000 A 
ATOM     16  C   UNL     1      46.187   6.004  13.009  0.00  0.00    +0.000 A 
ATOM     17  C   UNL     1      47.125   5.749  14.005  0.00  0.00    +0.000 A 
ATOM     18  N   UNL     1      47.400   4.472  14.358  0.00  0.00    +0.000 NA
ATOM     19  C   UNL     1      46.738   3.489  13.711  0.00  0.00    +0.000 A 
ATOM     20  N   UNL     1      45.816   3.607  12.740  0.00  0.00    +0.000 NA
ATOM     21  C   UNL     1      45.573   4.897  12.438  0.00  0.00    +0.000 A 
ENDBRANCH  12  13
ENDBRANCH   4  12
TORSDOF 5
ENDMDL
MODEL 2
REMARK VINA RESULT:    -7.281      1.328      2.754
REMARK INTER + INTRA:          -9.632
REMARK INTER:                  -9.088
REMARK INTRA:                  -0.544
REMARK UNBOUND:                -0.435
REMARK  Name = 
REMARK  5 active torsions:
REMARK  status: ('A' for Active; 'I' for Inactive)
REMARK    1  A    between atoms: N_1  and  C_2
REMARK    2  A    between atoms: C_2  and  C_3
REMARK    3  A    between atoms: C_3  and  C_4
REMARK    4  A    between atoms: C_7  and  C_8
REMARK    5  A    between atoms: C_8  and  N_9
REMARK                            x       y       z     vdW  Elec       q    Type
REMARK                         _______ _______ _______ _____ _____    ______ ____
ROOT
ATOM      1  C   UNL     1      46.086   2.454   7.847  0.00  0.00    +0.000 A 
ATOM      2  C   UNL     1      46.206   3.851   7.842  0.00  0.00    +0.000 A 
ATOM      3  C   UNL     1      45.496   4.631   8.759  0.00  0.00    +0.000 A 
ATOM      4  C   UNL     1      44.660   4.029   9.710  0.00  0.00    +0.000 A 
ATOM      5  C   UNL     1      44.559   2.630   9.727  0.00  0.00    +0.000 A 
ATOM      6  C   UNL     1      45.269   1.851   8.810  0.00  0.00    +0.000 A 
ENDROOT
BRANCH   1   7
ATOM      7  C   UNL     1      46.804   1.615   6.819  0.00  0.00    +0.000 C 
BRANCH   7   8
ATOM      8  C   UNL     1      48.194   2.154   6.471  0.00  0.00    +0.000 C 
BRANCH   8   9
ATOM      9  N   UNL     1      48.272   2.508   5.053  0.00  0.00    +0.000 NA
ATOM     10  H   UNL     1      49.024   1.974   4.615  0.00  0.00    +0.000 HD
ATOM     11  H   UNL     1      48.529   3.492   4.957  0.00  0.00    +0.000 HD
ENDBRANCH   8   9
ENDBRANCH   7   8
ENDBRANCH   1   7
BRANCH   4  12
ATOM     12  C   UNL     1      43.846   4.862  10.670  0.00  0.00    +0.000 C 
BRANCH  12  13
ATOM     13  N   UNL     1      44.689   5.521  11.656  0.00  0.00    +0.000 N 
ATOM     14  C   UNL     1      45.464   4.878  12.596  0.00  0.00    +0.000 A 
ATOM     15  C   UNL     1      46.130   5.841  13.326  0.00  0.00    +0.000 A 
ATOM     16  C   UNL     1      45.729   7.108  12.830  0.00  0.00    +0.000 A 
ATOM     17  C   UNL     1      46.023   8.439  13.112  0.00  0.00    +0.000 A 
ATOM     18  N   UNL     1      45.415   9.425  12.413  0.00  0.00    +0.000 NA
ATOM     19  C   UNL     1      44.533   9.062  11.460  0.00  0.00    +0.000 A 
ATOM     20  N   UNL     1      44.167   7.820  11.095  0.00  0.00    +0.000 NA
ATOM     21  C   UNL     1      44.811   6.880  11.813  0.00  0.00    +0.000 A 
ENDBRANCH  12  13
ENDBRANCH   4  12
TORSDOF 5
ENDMDL
MODEL 3
REMARK VINA RESULT:    -6.527      1.939      6.399
REMARK INTER + INTRA:          -8.679
REMARK INTER:                  -8.191
REMARK INTRA:                  -0.488
REMARK UNBOUND:                -0.435
REMARK  Name = 
REMARK  5 active torsions:
REMARK  status: ('A' for Active; 'I' for Inactive)
REMARK    1  A    between atoms: N_1  and  C_2
REMARK    2  A    between atoms: C_2  and  C_3
REMARK    3  A    between atoms: C_3  and  C_4
REMARK    4  A    between atoms: C_7  and  C_8
REMARK    5  A    between atoms: C_8  and  N_9
REMARK                            x       y       z     vdW  Elec       q    Type
REMARK                         _______ _______ _______ _____ _____    ______ ____
ROOT
ATOM      1  C   UNL     1      46.344   4.619  13.669  0.00  0.00    +0.000 A 
ATOM      2  C   UNL     1      45.920   5.638  12.805  0.00  0.00    +0.000 A 
ATOM      3  C   UNL     1      45.283   5.330  11.599  0.00  0.00    +0.000 A 
ATOM      4  C   UNL     1      45.045   3.996  11.239  0.00  0.00    +0.000 A 
ATOM      5  C   UNL     1      45.451   2.980  12.116  0.00  0.00    +0.000 A 
ATOM      6  C   UNL     1      46.088   3.289  13.321  0.00  0.00    +0.000 A 
ENDROOT
BRANCH   1   7
ATOM      7  C   UNL     1      47.086   4.947  14.942  0.00  0.00    +0.000 C 
BRANCH   7   8
ATOM      8  C   UNL     1      47.501   3.702  15.731  0.00  0.00    +0.000 C 
BRANCH   8   9
ATOM      9  N   UNL     1      46.740   3.601  16.977  0.00  0.00    +0.000 NA
ATOM     10  H   UNL     1      46.905   4.436  17.540  0.00  0.00    +0.000 HD
ATOM     11  H   UNL     1      47.086   2.813  17.529  0.00  0.00    +0.000 HD
ENDBRANCH   8   9
ENDBRANCH   7   8
ENDBRANCH   1   7
BRANCH   4  12
ATOM     12  C   UNL     1      44.408   3.649   9.915  0.00  0.00    +0.000 C 
BRANCH  12  13
ATOM     13  N   UNL     1      45.389   3.617   8.840  0.00  0.00    +0.000 N 
ATOM     14  C   UNL     1      45.898   4.723   8.195  0.00  0.00    +0.000 A 
ATOM     15  C   UNL     1      46.813   4.284   7.261  0.00  0.00    +0.000 A 
ATOM     16  C   UNL     1      46.844   2.867   7.324  0.00  0.00    +0.000 A 
ATOM     17  C   UNL     1      47.534   1.845   6.678  0.00  0.00    +0.000 A 
ATOM     18  N   UNL     1      47.285   0.556   7.003  0.00  0.00    +0.000 NA
ATOM     19  C   UNL     1      46.359   0.319   7.955  0.00  0.00    +0.000 A 
ATOM     20  N   UNL     1      45.631   1.213   8.647  0.00  0.00    +0.000 NA
ATOM     21  C   UNL     1      45.928   2.478   8.293  0.00  0.00    +0.000 A 
ENDBRANCH  12  13
ENDBRANCH   4  12
TORSDOF 5
ENDMDL
MODEL 4
REMARK VINA RESULT:    -6.288      1.568      2.279
REMARK INTER + INTRA:          -8.377
REMARK INTER:                  -8.008
REMARK INTRA:                  -0.369
REMARK UNBOUND:                -0.435
REMARK  Name = 
REMARK  5 active torsions:
REMARK  status: ('A' for Active; 'I' for Inactive)
REMARK    1  A    between atoms: N_1  and  C_2
REMARK    2  A    between atoms: C_2  and  C_3
REMARK    3  A    between atoms: C_3  and  C_4
REMARK    4  A    between atoms: C_7  and  C_8
REMARK    5  A    between atoms: C_8  and  N_9
REMARK                            x       y       z     vdW  Elec       q    Type
REMARK                         _______ _______ _______ _____ _____    ______ ____
ROOT
ATOM      1  C   UNL     1      44.902   2.685   9.303  0.00  0.00    +0.000 A 
ATOM      2  C   UNL     1      45.475   3.916   8.957  0.00  0.00    +0.000 A 
ATOM      3  C   UNL     1      45.261   5.049   9.747  0.00  0.00    +0.000 A 
ATOM      4  C   UNL     1      44.478   4.971  10.907  0.00  0.00    +0.000 A 
ATOM      5  C   UNL     1      43.924   3.733  11.263  0.00  0.00    +0.000 A 
ATOM      6  C   UNL     1      44.139   2.601  10.472  0.00  0.00    +0.000 A 
ENDROOT
BRANCH   1   7
ATOM      7  C   UNL     1      45.082   1.475   8.419  0.00  0.00    +0.000 C 
BRANCH   7   8
ATOM      8  C   UNL     1      46.531   1.271   7.971  0.00  0.00    +0.000 C 
BRANCH   8   9
ATOM      9  N   UNL     1      46.807  -0.148   7.739  0.00  0.00    +0.000 NA
ATOM     10  H   UNL     1      45.937  -0.676   7.815  0.00  0.00    +0.000 HD
ATOM     11  H   UNL     1      47.421  -0.504   8.474  0.00  0.00    +0.000 HD
ENDBRANCH   8   9
ENDBRANCH   7   8
ENDBRANCH   1   7
BRANCH   4  12
ATOM     12  C   UNL     1      44.194   6.199  11.738  0.00  0.00    +0.000 C 
BRANCH  12  13
ATOM     13  N   UNL     1      45.419   6.796  12.249  0.00  0.00    +0.000 N 
ATOM     14  C   UNL     1      45.929   8.016  11.865  0.00  0.00    +0.000 A 
ATOM     15  C   UNL     1      47.083   8.240  12.588  0.00  0.00    +0.000 A 
ATOM     16  C   UNL     1      47.292   7.110  13.420  0.00  0.00    +0.000 A 
ATOM     17  C   UNL     1      48.235   6.717  14.367  0.00  0.00    +0.000 A 
ATOM     18  N   UNL     1      48.116   5.515  14.975  0.00  0.00    +0.000 NA
ATOM     19  C   UNL     1      47.069   4.739  14.625  0.00  0.00    +0.000 A 
ATOM     20  N   UNL     1      46.099   5.004  13.733  0.00  0.00    +0.000 NA
ATOM     21  C   UNL     1      46.260   6.216  13.168  0.00  0.00    +0.000 A 
ENDBRANCH  12  13
ENDBRANCH   4  12
TORSDOF 5
ENDMDL
MODEL 5
REMARK VINA RESULT:    -6.053      1.596      6.545
REMARK INTER + INTRA:          -8.080
REMARK INTER:                  -7.594
REMARK INTRA:                  -0.486
REMARK UNBOUND:                -0.435
REMARK  Name = 
REMARK  5 active torsions:
REMARK  status: ('A' for Active; 'I' for Inactive)
REMARK    1  A    between atoms: N_1  and  C_2
REMARK    2  A    between atoms: C_2  and  C_3
REMARK    3  A    between atoms: C_3  and  C_4
REMARK    4  A    between atoms: C_7  and  C_8
REMARK    5  A    between atoms: C_8  and  N_9
REMARK                            x       y       z     vdW  Elec       q    Type
REMARK                         _______ _______ _______ _____ _____    ______ ____
ROOT
ATOM      1  C   UNL     1      46.691   5.610  13.262  0.00  0.00    +0.000 A 
ATOM      2  C   UNL     1      46.833   6.338  12.073  0.00  0.00    +0.000 A 
ATOM      3  C   UNL     1      46.070   6.019  10.946  0.00  0.00    +0.000 A 
ATOM      4  C   UNL     1      45.138   4.973  10.989  0.00  0.00    +0.000 A 
ATOM      5  C   UNL     1      44.981   4.261  12.187  0.00  0.00    +0.000 A 
ATOM      6  C   UNL     1      45.745   4.580  13.312  0.00  0.00    +0.000 A 
ENDROOT
BRANCH   1   7
ATOM      7  C   UNL     1      47.557   5.912  14.460  0.00  0.00    +0.000 C 
BRANCH   7   8
ATOM      8  C   UNL     1      47.555   4.789  15.500  0.00  0.00    +0.000 C 
BRANCH   8   9
ATOM      9  N   UNL     1      47.588   5.338  16.856  0.00  0.00    +0.000 NA
ATOM     10  H   UNL     1      47.149   4.676  17.497  0.00  0.00    +0.000 HD
ATOM     11  H   UNL     1      47.026   6.190  16.897  0.00  0.00    +0.000 HD
ENDBRANCH   8   9
ENDBRANCH   7   8
ENDBRANCH   1   7
BRANCH   4  12
ATOM     12  C   UNL     1      44.347   4.583   9.764  0.00  0.00    +0.000 C 
BRANCH  12  13
ATOM     13  N   UNL     1      44.851   3.353   9.169  0.00  0.00    +0.000 N 
ATOM     14  C   UNL     1      44.427   2.083   9.492  0.00  0.00    +0.000 A 
ATOM     15  C   UNL     1      45.121   1.191   8.700  0.00  0.00    +0.000 A 
ATOM     16  C   UNL     1      46.011   1.942   7.889  0.00  0.00    +0.000 A 
ATOM     17  C   UNL     1      46.953   1.662   6.902  0.00  0.00    +0.000 A 
ATOM     18  N   UNL     1      47.650   2.672   6.334  0.00  0.00    +0.000 NA
ATOM     19  C   UNL     1      47.396   3.926   6.762  0.00  0.00    +0.000 A 
ATOM     20  N   UNL     1      46.517   4.322   7.699  0.00  0.00    +0.000 NA
ATOM     21  C   UNL     1      45.843   3.279   8.222  0.00  0.00    +0.000 A 
ENDBRANCH  12  13
ENDBRANCH   4  12
TORSDOF 5
ENDMDL
MODEL 6
REMARK VINA RESULT:    -5.852      2.032      6.464
REMARK INTER + INTRA:          -7.827
REMARK INTER:                  -7.541
REMARK INTRA:                  -0.285
REMARK UNBOUND:                -0.435
REMARK  Name = 
REMARK  5 active torsions:
REMARK  status: ('A' for Active; 'I' for Inactive)
REMARK    1  A    between atoms: N_1  and  C_2
REMARK    2  A    between atoms: C_2  and  C_3
REMARK    3  A    between atoms: C_3  and  C_4
REMARK    4  A    between atoms: C_7  and  C_8
REMARK    5  A    between atoms: C_8  and  N_9
REMARK                            x       y       z     vdW  Elec       q    Type
REMARK                         _______ _______ _______ _____ _____    ______ ____
ROOT
ATOM      1  C   UNL     1      47.814   7.235  13.717  0.00  0.00    +0.000 A 
ATOM      2  C   UNL     1      47.522   5.922  13.324  0.00  0.00    +0.000 A 
ATOM      3  C   UNL     1      46.356   5.634  12.608  0.00  0.00    +0.000 A 
ATOM      4  C   UNL     1      45.464   6.658  12.259  0.00  0.00    +0.000 A 
ATOM      5  C   UNL     1      45.770   7.974  12.634  0.00  0.00    +0.000 A 
ATOM      6  C   UNL     1      46.935   8.260  13.350  0.00  0.00    +0.000 A 
ENDROOT
BRANCH   1   7
ATOM      7  C   UNL     1      49.040   7.538  14.543  0.00  0.00    +0.000 C 
BRANCH   7   8
ATOM      8  C   UNL     1      49.155   6.658  15.790  0.00  0.00    +0.000 C 
BRANCH   8   9
ATOM      9  N   UNL     1      48.246   7.124  16.839  0.00  0.00    +0.000 NA
ATOM     10  H   UNL     1      47.609   7.818  16.447  0.00  0.00    +0.000 HD
ATOM     11  H   UNL     1      48.778   7.606  17.567  0.00  0.00    +0.000 HD
ENDBRANCH   8   9
ENDBRANCH   7   8
ENDBRANCH   1   7
BRANCH   4  12
ATOM     12  C   UNL     1      44.175   6.354  11.534  0.00  0.00    +0.000 C 
BRANCH  12  13
ATOM     13  N   UNL     1      44.042   4.932  11.251  0.00  0.00    +0.000 N 
ATOM     14  C   UNL     1      43.390   4.020  12.051  0.00  0.00    +0.000 A 
ATOM     15  C   UNL     1      43.460   2.788  11.434  0.00  0.00    +0.000 A 
ATOM     16  C   UNL     1      44.199   2.952  10.234  0.00  0.00    +0.000 A 
ATOM     17  C   UNL     1      44.609   2.135   9.184  0.00  0.00    +0.000 A 
ATOM     18  N   UNL     1      45.340   2.656   8.173  0.00  0.00    +0.000 NA
ATOM     19  C   UNL     1      45.644   3.969   8.234  0.00  0.00    +0.000 A 
ATOM     20  N   UNL     1      45.309   4.856   9.186  0.00  0.00    +0.000 NA
ATOM     21  C   UNL     1      44.573   4.287  10.160  0.00  0.00    +0.000 A 
ENDBRANCH  12  13
ENDBRANCH   4  12
TORSDOF 5
ENDMDL
MODEL 7
REMARK VINA RESULT:    -5.731      2.595      4.022
REMARK INTER + INTRA:          -7.673
REMARK INTER:                  -7.198
REMARK INTRA:                  -0.475
REMARK UNBOUND:                -0.435
REMARK  Name = 
REMARK  5 active torsions:
REMARK  status: ('A' for Active; 'I' for Inactive)
REMARK    1  A    between atoms: N_1  and  C_2
REMARK    2  A    between atoms: C_2  and  C_3
REMARK    3  A    between atoms: C_3  and  C_4
REMARK    4  A    between atoms: C_7  and  C_8
REMARK    5  A    between atoms: C_8  and  N_9
REMARK                            x       y       z     vdW  Elec       q    Type
REMARK                         _______ _______ _______ _____ _____    ______ ____
ROOT
ATOM      1  C   UNL     1      44.946   3.206   9.749  0.00  0.00    +0.000 A 
ATOM      2  C   UNL     1      45.272   4.530   9.423  0.00  0.00    +0.000 A 
ATOM      3  C   UNL     1      45.281   5.524  10.405  0.00  0.00    +0.000 A 
ATOM      4  C   UNL     1      44.978   5.212  11.738  0.00  0.00    +0.000 A 
ATOM      5  C   UNL     1      44.675   3.883  12.065  0.00  0.00    +0.000 A 
ATOM      6  C   UNL     1      44.666   2.890  11.083  0.00  0.00    +0.000 A 
ENDROOT
BRANCH   1   7
ATOM      7  C   UNL     1      44.876   2.144   8.680  0.00  0.00    +0.000 C 
BRANCH   7   8
ATOM      8  C   UNL     1      46.233   1.857   8.030  0.00  0.00    +0.000 C 
BRANCH   8   9
ATOM      9  N   UNL     1      46.498   0.418   7.996  0.00  0.00    +0.000 NA
ATOM     10  H   UNL     1      47.007   0.191   7.141  0.00  0.00    +0.000 HD
ATOM     11  H   UNL     1      45.615  -0.094   7.945  0.00  0.00    +0.000 HD
ENDBRANCH   8   9
ENDBRANCH   7   8
ENDBRANCH   1   7
BRANCH   4  12
ATOM     12  C   UNL     1      44.931   6.286  12.798  0.00  0.00    +0.000 C 
BRANCH  12  13
ATOM     13  N   UNL     1      46.099   7.153  12.735  0.00  0.00    +0.000 N 
ATOM     14  C   UNL     1      47.390   6.769  13.025  0.00  0.00    +0.000 A 
ATOM     15  C   UNL     1      48.210   7.860  12.827  0.00  0.00    +0.000 A 
ATOM     16  C   UNL     1      47.389   8.946  12.428  0.00  0.00    +0.000 A 
ATOM     17  C   UNL     1      47.584  10.280  12.077  0.00  0.00    +0.000 A 
ATOM     18  N   UNL     1      46.521  11.051  11.752  0.00  0.00    +0.000 NA
ATOM     19  C   UNL     1      45.300  10.479  11.787  0.00  0.00    +0.000 A 
ATOM     20  N   UNL     1      44.985   9.211  12.106  0.00  0.00    +0.000 NA
ATOM     21  C   UNL     1      46.079   8.487  12.408  0.00  0.00    +0.000 A 
ENDBRANCH  12  13
ENDBRANCH   4  12
TORSDOF 5
ENDMDL
MODEL 8
REMARK VINA RESULT:    -5.448      3.700      7.868
REMARK INTER + INTRA:          -7.317
REMARK INTER:                  -6.880
REMARK INTRA:                  -0.436
REMARK UNBOUND:                -0.435
REMARK  Name = 
REMARK  5 active torsions:
REMARK  status: ('A' for Active; 'I' for Inactive)
REMARK    1  A    between atoms: N_1  and  C_2
REMARK    2  A    between atoms: C_2  and  C_3
REMARK    3  A    between atoms: C_3  and  C_4
REMARK    4  A    between atoms: C_7  and  C_8
REMARK    5  A    between atoms: C_8  and  N_9
REMARK                            x       y       z     vdW  Elec       q    Type
REMARK                         _______ _______ _______ _____ _____    ______ ____
ROOT
ATOM      1  C   UNL     1      47.989   5.509  17.837  0.00  0.00    +0.000 A 
ATOM      2  C   UNL     1      48.571   6.340  16.871  0.00  0.00    +0.000 A 
ATOM      3  C   UNL     1      48.392   6.085  15.508  0.00  0.00    +0.000 A 
ATOM      4  C   UNL     1      47.614   4.999  15.083  0.00  0.00    +0.000 A 
ATOM      5  C   UNL     1      47.014   4.182  16.052  0.00  0.00    +0.000 A 
ATOM      6  C   UNL     1      47.194   4.438  17.414  0.00  0.00    +0.000 A 
ENDROOT
BRANCH   1   7
ATOM      7  C   UNL     1      48.231   5.747  19.307  0.00  0.00    +0.000 C 
BRANCH   7   8
ATOM      8  C   UNL     1      49.170   4.713  19.934  0.00  0.00    +0.000 C 
BRANCH   8   9
ATOM      9  N   UNL     1      48.411   3.720  20.697  0.00  0.00    +0.000 NA
ATOM     10  H   UNL     1      47.429   3.766  20.424  0.00  0.00    +0.000 HD
ATOM     11  H   UNL     1      48.441   3.952  21.691  0.00  0.00    +0.000 HD
ENDBRANCH   8   9
ENDBRANCH   7   8
ENDBRANCH   1   7
BRANCH   4  12
ATOM     12  C   UNL     1      47.458   4.679  13.616  0.00  0.00    +0.000 C 
BRANCH  12  13
ATOM     13  N   UNL     1      46.253   5.280  13.062  0.00  0.00    +0.000 N 
ATOM     14  C   UNL     1      46.019   6.633  12.950  0.00  0.00    +0.000 A 
ATOM     15  C   UNL     1      44.785   6.802  12.357  0.00  0.00    +0.000 A 
ATOM     16  C   UNL     1      44.243   5.511  12.123  0.00  0.00    +0.000 A 
ATOM     17  C   UNL     1      43.075   4.996  11.566  0.00  0.00    +0.000 A 
ATOM     18  N   UNL     1      42.887   3.657  11.520  0.00  0.00    +0.000 NA
ATOM     19  C   UNL     1      43.859   2.872  12.030  0.00  0.00    +0.000 A 
ATOM     20  N   UNL     1      45.023   3.246  12.590  0.00  0.00    +0.000 NA
ATOM     21  C   UNL     1      45.163   4.586  12.597  0.00  0.00    +0.000 A 
ENDBRANCH  12  13
ENDBRANCH   4  12
TORSDOF 5
ENDMDL
MODEL 9
REMARK VINA RESULT:    -5.351      3.811      5.922
REMARK INTER + INTRA:          -7.194
REMARK INTER:                  -6.688
REMARK INTRA:                  -0.507
REMARK UNBOUND:                -0.435
REMARK  Name = 
REMARK  5 active torsions:
REMARK  status: ('A' for Active; 'I' for Inactive)
REMARK    1  A    between atoms: N_1  and  C_2
REMARK    2  A    between atoms: C_2  and  C_3
REMARK    3  A    between atoms: C_3  and  C_4
REMARK    4  A    between atoms: C_7  and  C_8
REMARK    5  A    between atoms: C_8  and  N_9
REMARK                            x       y       z     vdW  Elec       q    Type
REMARK                         _______ _______ _______ _____ _____    ______ ____
ROOT
ATOM      1  C   UNL     1      44.828   5.053  12.888  0.00  0.00    +0.000 A 
ATOM      2  C   UNL     1      44.971   6.429  12.665  0.00  0.00    +0.000 A 
ATOM      3  C   UNL     1      46.193   7.066  12.897  0.00  0.00    +0.000 A 
ATOM      4  C   UNL     1      47.303   6.336  13.345  0.00  0.00    +0.000 A 
ATOM      5  C   UNL     1      47.163   4.955  13.546  0.00  0.00    +0.000 A 
ATOM      6  C   UNL     1      45.941   4.320  13.314  0.00  0.00    +0.000 A 
ENDROOT
BRANCH   1   7
ATOM      7  C   UNL     1      43.493   4.375  12.697  0.00  0.00    +0.000 C 
BRANCH   7   8
ATOM      8  C   UNL     1      43.411   3.570  11.397  0.00  0.00    +0.000 C 
BRANCH   8   9
ATOM      9  N   UNL     1      43.047   2.179  11.672  0.00  0.00    +0.000 NA
ATOM     10  H   UNL     1      43.716   1.560  11.213  0.00  0.00    +0.000 HD
ATOM     11  H   UNL     1      42.137   1.973  11.254  0.00  0.00    +0.000 HD
ENDBRANCH   8   9
ENDBRANCH   7   8
ENDBRANCH   1   7
BRANCH   4  12
ATOM     12  C   UNL     1      48.613   7.020  13.652  0.00  0.00    +0.000 C 
BRANCH  12  13
ATOM     13  N   UNL     1      48.613   7.604  14.986  0.00  0.00    +0.000 N 
ATOM     14  C   UNL     1      48.265   8.902  15.286  0.00  0.00    +0.000 A 
ATOM     15  C   UNL     1      48.370   9.064  16.652  0.00  0.00    +0.000 A 
ATOM     16  C   UNL     1      48.819   7.833  17.196  0.00  0.00    +0.000 A 
ATOM     17  C   UNL     1      49.109   7.339  18.465  0.00  0.00    +0.000 A 
ATOM     18  N   UNL     1      49.542   6.065  18.607  0.00  0.00    +0.000 NA
ATOM     19  C   UNL     1      49.676   5.322  17.489  0.00  0.00    +0.000 A 
ATOM     20  N   UNL     1      49.429   5.682  16.217  0.00  0.00    +0.000 NA
ATOM     21  C   UNL     1      48.990   6.952  16.136  0.00  0.00    +0.000 A 
ENDBRANCH  12  13
ENDBRANCH   4  12
TORSDOF 5
ENDMDL
