MODEL 1
REMARK VINA RESULT:    -8.972      0.000      0.000
REMARK INTER + INTRA:         -12.952
REMARK INTER:                 -11.595
REMARK INTRA:                  -1.357
REMARK UNBOUND:                -1.357
REMARK  Name = 
REMARK  6 active torsions:
REMARK  status: ('A' for Active; 'I' for Inactive)
REMARK    1  A    between atoms: C_1  and  C_2
REMARK    2  A    between atoms: C_2  and  C_3
REMARK    3  A    between atoms: C_7  and  C_8
REMARK    4  A    between atoms: C_8  and  N_9
REMARK    5  A    between atoms: N_9  and  C_10
REMARK    6  A    between atoms: C_13  and  C_14
REMARK                            x       y       z     vdW  Elec       q    Type
REMARK                         _______ _______ _______ _____ _____    ______ ____
ROOT
ATOM      1  C   UNL     1      43.790   4.964  11.278  0.00  0.00    +0.000 C 
ATOM      2  C   UNL     1      43.071   6.261  10.971  0.00  0.00    +0.000 C 
ATOM      3  C   UNL     1      42.487   5.339  11.987  0.00  0.00    +0.000 C 
ENDROOT
BRANCH   1   8
ATOM      4  C   UNL     1      47.044   6.321  12.891  0.00  0.00    +0.000 A 
ATOM      5  C   UNL     1      47.481   5.182  13.576  0.00  0.00    +0.000 A 
ATOM      6  C   UNL     1      46.741   3.997  13.545  0.00  0.00    +0.000 A 
ATOM      7  C   UNL     1      45.554   3.925  12.815  0.00  0.00    +0.000 A 
ATOM      8  C   UNL     1      45.079   5.027  12.095  0.00  0.00    +0.000 A 
ATOM      9  C   UNL     1      45.840   6.211  12.160  0.00  0.00    +0.000 A 
BRANCH   4  11
ATOM     10  C   UNL     1      48.505   7.797  14.276  0.00  0.00    +0.000 C 
ATOM     11  C   UNL     1      47.820   7.657  12.892  0.00  0.00    +0.000 C 
ATOM     12  C   UNL     1      48.878   7.632  11.758  0.00  0.00    +0.000 C 
ATOM     13  C   UNL     1      49.575   8.974  11.570  0.00  0.00    +0.000 C 
ATOM     14  O   UNL     1      48.632  10.016  11.340  0.00  0.00    +0.000 OA
ATOM     15  C   UNL     1      47.725  10.178  12.425  0.00  0.00    +0.000 C 
ATOM     16  C   UNL     1      46.921   8.900  12.651  0.00  0.00    +0.000 C 
ENDBRANCH   4  11
ENDBRANCH   1   8
BRANCH   1  17
ATOM     17  N   UNL     1      43.659   3.756  10.451  0.00  0.00    +0.000 N 
ATOM     18  H   UNL     1      43.186   2.981  10.906  0.00  0.00    +0.000 HD
BRANCH  17  19
ATOM     19  C   UNL     1      44.536   3.325   9.438  0.00  0.00    +0.000 A 
ATOM     20  C   UNL     1      44.944   2.003   9.254  0.00  0.00    +0.000 A 
ATOM     21  C   UNL     1      45.929   1.685   8.304  0.00  0.00    +0.000 A 
ATOM     22  C   UNL     1      46.530   2.686   7.529  0.00  0.00    +0.000 A 
ATOM     23  C   UNL     1      46.127   4.011   7.708  0.00  0.00    +0.000 A 
ATOM     24  C   UNL     1      45.151   4.318   8.657  0.00  0.00    +0.000 A 
BRANCH  22  25
ATOM     25  C   UNL     1      47.621   2.322   6.587  0.00  0.00    +0.000 C 
ATOM     26  N   UNL     1      47.753   3.075   5.453  0.00  0.00    +0.000 N 
ATOM     27  O   UNL     1      48.372   1.382   6.807  0.00  0.00    +0.000 OA
ATOM     28  H   UNL     1      47.039   3.708   5.124  0.00  0.00    +0.000 HD
ATOM     29  H   UNL     1      48.464   2.780   4.794  0.00  0.00    +0.000 HD
ENDBRANCH  22  25
ENDBRANCH  17  19
ENDBRANCH   1  17
TORSDOF 5
ENDMDL
MODEL 2
REMARK VINA RESULT:    -7.801      1.258      2.300
REMARK INTER + INTRA:         -11.438
REMARK INTER:                 -10.822
REMARK INTRA:                  -0.617
REMARK UNBOUND:                -1.357
REMARK  Name = 
REMARK  6 active torsions:
REMARK  status: ('A' for Active; 'I' for Inactive)
REMARK    1  A    between atoms: C_1  and  C_2
REMARK    2  A    between atoms: C_2  and  C_3
REMARK    3  A    between atoms: C_7  and  C_8
REMARK    4  A    between atoms: C_8  and  N_9
REMARK    5  A    between atoms: N_9  and  C_10
REMARK    6  A    between atoms: C_13  and  C_14
REMARK                            x       y       z     vdW  Elec       q    Type
REMARK                         _______ _______ _______ _____ _____    ______ ____
ROOT
ATOM      1  C   UNL     1      43.902   5.085  11.646  0.00  0.00    +0.000 C 
ATOM      2  C   UNL     1      43.016   4.691  12.809  0.00  0.00    +0.000 C 
ATOM      3  C   UNL     1      44.345   4.030  12.662  0.00  0.00    +0.000 C 
ENDROOT
BRANCH   1   8
ATOM      4  C   UNL     1      46.630   7.789  12.176  0.00  0.00    +0.000 A 
ATOM      5  C   UNL     1      45.918   8.940  11.817  0.00  0.00    +0.000 A 
ATOM      6  C   UNL     1      44.590   8.860  11.393  0.00  0.00    +0.000 A 
ATOM      7  C   UNL     1      43.942   7.626  11.330  0.00  0.00    +0.000 A 
ATOM      8  C   UNL     1      44.598   6.444  11.693  0.00  0.00    +0.000 A 
ATOM      9  C   UNL     1      45.942   6.558  12.102  0.00  0.00    +0.000 A 
BRANCH   4  11
ATOM     10  C   UNL     1      48.326   6.574  13.546  0.00  0.00    +0.000 C 
ATOM     11  C   UNL     1      48.100   7.818  12.650  0.00  0.00    +0.000 C 
ATOM     12  C   UNL     1      49.035   7.780  11.413  0.00  0.00    +0.000 C 
ATOM     13  C   UNL     1      50.502   7.981  11.773  0.00  0.00    +0.000 C 
ATOM     14  O   UNL     1      50.692   9.193  12.496  0.00  0.00    +0.000 OA
ATOM     15  C   UNL     1      49.966   9.216  13.721  0.00  0.00    +0.000 C 
ATOM     16  C   UNL     1      48.467   9.092  13.460  0.00  0.00    +0.000 C 
ENDBRANCH   4  11
ENDBRANCH   1   8
BRANCH   1  17
ATOM     17  N   UNL     1      43.743   4.537  10.291  0.00  0.00    +0.000 N 
ATOM     18  H   UNL     1      42.815   4.180  10.084  0.00  0.00    +0.000 HD
BRANCH  17  19
ATOM     19  C   UNL     1      44.737   3.927   9.503  0.00  0.00    +0.000 A 
ATOM     20  C   UNL     1      45.572   4.608   8.616  0.00  0.00    +0.000 A 
ATOM     21  C   UNL     1      46.442   3.902   7.768  0.00  0.00    +0.000 A 
ATOM     22  C   UNL     1      46.483   2.501   7.786  0.00  0.00    +0.000 A 
ATOM     23  C   UNL     1      45.650   1.813   8.670  0.00  0.00    +0.000 A 
ATOM     24  C   UNL     1      44.786   2.522   9.506  0.00  0.00    +0.000 A 
BRANCH  22  25
ATOM     25  C   UNL     1      47.360   1.786   6.822  0.00  0.00    +0.000 C 
ATOM     26  N   UNL     1      48.391   2.491   6.263  0.00  0.00    +0.000 N 
ATOM     27  O   UNL     1      47.170   0.613   6.529  0.00  0.00    +0.000 OA
ATOM     28  H   UNL     1      48.456   3.497   6.302  0.00  0.00    +0.000 HD
ATOM     29  H   UNL     1      48.944   2.008   5.567  0.00  0.00    +0.000 HD
ENDBRANCH  22  25
ENDBRANCH  17  19
ENDBRANCH   1  17
TORSDOF 5
ENDMDL
MODEL 3
REMARK VINA RESULT:    -7.005      2.378      3.598
REMARK INTER + INTRA:         -10.410
REMARK INTER:                  -9.503
REMARK INTRA:                  -0.907
REMARK UNBOUND:                -1.357
REMARK  Name = 
REMARK  6 active torsions:
REMARK  status: ('A' for Active; 'I' for Inactive)
REMARK    1  A    between atoms: C_1  and  C_2
REMARK    2  A    between atoms: C_2  and  C_3
REMARK    3  A    between atoms: C_7  and  C_8
REMARK    4  A    between atoms: C_8  and  N_9
REMARK    5  A    between atoms: N_9  and  C_10
REMARK    6  A    between atoms: C_13  and  C_14
REMARK                            x       y       z     vdW  Elec       q    Type
REMARK                         _______ _______ _______ _____ _____    ______ ____
ROOT
ATOM      1  C   UNL     1      44.076   4.909  11.759  0.00  0.00    +0.000 C 
ATOM      2  C   UNL     1      43.068   5.987  11.423  0.00  0.00    +0.000 C 
ATOM      3  C   UNL     1      42.826   5.123  12.614  0.00  0.00    +0.000 C 
ENDROOT
BRANCH   1   8
ATOM      4  C   UNL     1      47.112   5.131  14.160  0.00  0.00    +0.000 A 
ATOM      5  C   UNL     1      47.881   6.101  13.506  0.00  0.00    +0.000 A 
ATOM      6  C   UNL     1      47.452   6.667  12.304  0.00  0.00    +0.000 A 
ATOM      7  C   UNL     1      46.236   6.283  11.737  0.00  0.00    +0.000 A 
ATOM      8  C   UNL     1      45.417   5.331  12.355  0.00  0.00    +0.000 A 
ATOM      9  C   UNL     1      45.887   4.768  13.559  0.00  0.00    +0.000 A 
BRANCH   4  11
ATOM     10  C   UNL     1      46.288   4.412  16.404  0.00  0.00    +0.000 C 
ATOM     11  C   UNL     1      47.539   4.470  15.489  0.00  0.00    +0.000 C 
ATOM     12  C   UNL     1      48.073   3.043  15.200  0.00  0.00    +0.000 C 
ATOM     13  C   UNL     1      48.679   2.377  16.430  0.00  0.00    +0.000 C 
ATOM     14  O   UNL     1      49.709   3.182  16.995  0.00  0.00    +0.000 OA
ATOM     15  C   UNL     1      49.234   4.457  17.415  0.00  0.00    +0.000 C 
ATOM     16  C   UNL     1      48.667   5.237  16.232  0.00  0.00    +0.000 C 
ENDBRANCH   4  11
ENDBRANCH   1   8
BRANCH   1  17
ATOM     17  N   UNL     1      44.097   3.594  11.102  0.00  0.00    +0.000 N 
ATOM     18  H   UNL     1      44.015   2.803  11.734  0.00  0.00    +0.000 HD
BRANCH  17  19
ATOM     19  C   UNL     1      44.759   3.255   9.907  0.00  0.00    +0.000 A 
ATOM     20  C   UNL     1      45.075   1.951   9.519  0.00  0.00    +0.000 A 
ATOM     21  C   UNL     1      45.859   1.716   8.378  0.00  0.00    +0.000 A 
ATOM     22  C   UNL     1      46.350   2.781   7.610  0.00  0.00    +0.000 A 
ATOM     23  C   UNL     1      46.038   4.088   7.992  0.00  0.00    +0.000 A 
ATOM     24  C   UNL     1      45.262   4.313   9.130  0.00  0.00    +0.000 A 
BRANCH  22  25
ATOM     25  C   UNL     1      47.239   2.497   6.453  0.00  0.00    +0.000 C 
ATOM     26  N   UNL     1      47.123   3.305   5.355  0.00  0.00    +0.000 N 
ATOM     27  O   UNL     1      48.040   1.573   6.470  0.00  0.00    +0.000 OA
ATOM     28  H   UNL     1      46.343   3.928   5.208  0.00  0.00    +0.000 HD
ATOM     29  H   UNL     1      47.694   3.064   4.554  0.00  0.00    +0.000 HD
ENDBRANCH  22  25
ENDBRANCH  17  19
ENDBRANCH   1  17
TORSDOF 5
ENDMDL
MODEL 4
REMARK VINA RESULT:    -6.741      5.718      8.406
REMARK INTER + INTRA:         -10.068
REMARK INTER:                  -9.257
REMARK INTRA:                  -0.811
REMARK UNBOUND:                -1.357
REMARK  Name = 
REMARK  6 active torsions:
REMARK  status: ('A' for Active; 'I' for Inactive)
REMARK    1  A    between atoms: C_1  and  C_2
REMARK    2  A    between atoms: C_2  and  C_3
REMARK    3  A    between atoms: C_7  and  C_8
REMARK    4  A    between atoms: C_8  and  N_9
REMARK    5  A    between atoms: N_9  and  C_10
REMARK    6  A    between atoms: C_13  and  C_14
REMARK                            x       y       z     vdW  Elec       q    Type
REMARK                         _______ _______ _______ _____ _____    ______ ____
ROOT
ATOM      1  C   UNL     1      48.137   4.560  16.942  0.00  0.00    +0.000 C 
ATOM      2  C   UNL     1      47.188   3.465  17.381  0.00  0.00    +0.000 C 
ATOM      3  C   UNL     1      47.121   4.790  18.062  0.00  0.00    +0.000 C 
ENDROOT
BRANCH   1   8
ATOM      4  C   UNL     1      46.617   5.361  13.466  0.00  0.00    +0.000 A 
ATOM      5  C   UNL     1      47.379   6.479  13.108  0.00  0.00    +0.000 A 
ATOM      6  C   UNL     1      48.355   6.988  13.968  0.00  0.00    +0.000 A 
ATOM      7  C   UNL     1      48.596   6.380  15.201  0.00  0.00    +0.000 A 
ATOM      8  C   UNL     1      47.878   5.249  15.604  0.00  0.00    +0.000 A 
ATOM      9  C   UNL     1      46.890   4.770  14.720  0.00  0.00    +0.000 A 
BRANCH   4  11
ATOM     10  C   UNL     1      45.674   3.215  12.608  0.00  0.00    +0.000 C 
ATOM     11  C   UNL     1      45.524   4.757  12.556  0.00  0.00    +0.000 C 
ATOM     12  C   UNL     1      44.130   5.189  13.079  0.00  0.00    +0.000 C 
ATOM     13  C   UNL     1      42.996   4.786  12.144  0.00  0.00    +0.000 C 
ATOM     14  O   UNL     1      43.207   5.293  10.830  0.00  0.00    +0.000 OA
ATOM     15  C   UNL     1      44.410   4.804  10.246  0.00  0.00    +0.000 C 
ATOM     16  C   UNL     1      45.621   5.220  11.076  0.00  0.00    +0.000 C 
ENDBRANCH   4  11
ENDBRANCH   1   8
BRANCH   1  17
ATOM     17  N   UNL     1      49.528   4.655  17.408  0.00  0.00    +0.000 N 
ATOM     18  H   UNL     1      49.948   5.575  17.306  0.00  0.00    +0.000 HD
BRANCH  17  19
ATOM     19  C   UNL     1      50.490   3.628  17.416  0.00  0.00    +0.000 A 
ATOM     20  C   UNL     1      50.237   2.305  17.050  0.00  0.00    +0.000 A 
ATOM     21  C   UNL     1      51.221   1.316  17.221  0.00  0.00    +0.000 A 
ATOM     22  C   UNL     1      52.471   1.632  17.770  0.00  0.00    +0.000 A 
ATOM     23  C   UNL     1      52.731   2.954  18.139  0.00  0.00    +0.000 A 
ATOM     24  C   UNL     1      51.746   3.929  17.970  0.00  0.00    +0.000 A 
BRANCH  22  25
ATOM     25  C   UNL     1      53.459   0.547  18.005  0.00  0.00    +0.000 C 
ATOM     26  N   UNL     1      53.000  -0.614  18.565  0.00  0.00    +0.000 N 
ATOM     27  O   UNL     1      54.641   0.681  17.719  0.00  0.00    +0.000 OA
ATOM     28  H   UNL     1      52.099  -0.692  19.013  0.00  0.00    +0.000 HD
ATOM     29  H   UNL     1      53.694  -1.321  18.772  0.00  0.00    +0.000 HD
ENDBRANCH  22  25
ENDBRANCH  17  19
ENDBRANCH   1  17
TORSDOF 5
ENDMDL
MODEL 5
REMARK VINA RESULT:    -6.736      3.601      5.986
REMARK INTER + INTRA:         -10.063
REMARK INTER:                  -8.933
REMARK INTRA:                  -1.130
REMARK UNBOUND:                -1.357
REMARK  Name = 
REMARK  6 active torsions:
REMARK  status: ('A' for Active; 'I' for Inactive)
REMARK    1  A    between atoms: C_1  and  C_2
REMARK    2  A    between atoms: C_2  and  C_3
REMARK    3  A    between atoms: C_7  and  C_8
REMARK    4  A    between atoms: C_8  and  N_9
REMARK    5  A    between atoms: N_9  and  C_10
REMARK    6  A    between atoms: C_13  and  C_14
REMARK                            x       y       z     vdW  Elec       q    Type
REMARK                         _______ _______ _______ _____ _____    ______ ____
ROOT
ATOM      1  C   UNL     1      48.183   7.853  12.952  0.00  0.00    +0.000 C 
ATOM      2  C   UNL     1      49.381   7.526  12.088  0.00  0.00    +0.000 C 
ATOM      3  C   UNL     1      48.901   8.936  12.144  0.00  0.00    +0.000 C 
ENDROOT
BRANCH   1   8
ATOM      4  C   UNL     1      48.822   6.640  16.579  0.00  0.00    +0.000 A 
ATOM      5  C   UNL     1      48.691   7.847  17.276  0.00  0.00    +0.000 A 
ATOM      6  C   UNL     1      48.422   9.041  16.602  0.00  0.00    +0.000 A 
ATOM      7  C   UNL     1      48.264   9.048  15.215  0.00  0.00    +0.000 A 
ATOM      8  C   UNL     1      48.366   7.869  14.469  0.00  0.00    +0.000 A 
ATOM      9  C   UNL     1      48.654   6.685  15.177  0.00  0.00    +0.000 A 
BRANCH   4  11
ATOM     10  C   UNL     1      48.708   5.432  18.760  0.00  0.00    +0.000 C 
ATOM     11  C   UNL     1      49.121   5.293  17.272  0.00  0.00    +0.000 C 
ATOM     12  C   UNL     1      48.305   4.171  16.579  0.00  0.00    +0.000 C 
ATOM     13  C   UNL     1      48.667   2.779  17.082  0.00  0.00    +0.000 C 
ATOM     14  O   UNL     1      50.062   2.528  16.943  0.00  0.00    +0.000 OA
ATOM     15  C   UNL     1      50.856   3.448  17.686  0.00  0.00    +0.000 C 
ATOM     16  C   UNL     1      50.617   4.877  17.205  0.00  0.00    +0.000 C 
ENDBRANCH   4  11
ENDBRANCH   1   8
BRANCH   1  17
ATOM     17  N   UNL     1      46.794   7.646  12.516  0.00  0.00    +0.000 N 
ATOM     18  H   UNL     1      46.112   8.242  12.975  0.00  0.00    +0.000 HD
BRANCH  17  19
ATOM     19  C   UNL     1      46.225   6.448  12.047  0.00  0.00    +0.000 A 
ATOM     20  C   UNL     1      45.914   6.189  10.710  0.00  0.00    +0.000 A 
ATOM     21  C   UNL     1      45.221   5.022  10.350  0.00  0.00    +0.000 A 
ATOM     22  C   UNL     1      44.818   4.096  11.323  0.00  0.00    +0.000 A 
ATOM     23  C   UNL     1      45.125   4.348  12.662  0.00  0.00    +0.000 A 
ATOM     24  C   UNL     1      45.810   5.513  13.011  0.00  0.00    +0.000 A 
BRANCH  22  25
ATOM     25  C   UNL     1      44.021   2.910  10.915  0.00  0.00    +0.000 C 
ATOM     26  N   UNL     1      44.498   2.157   9.877  0.00  0.00    +0.000 N 
ATOM     27  O   UNL     1      42.974   2.615  11.474  0.00  0.00    +0.000 OA
ATOM     28  H   UNL     1      45.224   2.475   9.252  0.00  0.00    +0.000 HD
ATOM     29  H   UNL     1      43.916   1.386   9.573  0.00  0.00    +0.000 HD
ENDBRANCH  22  25
ENDBRANCH  17  19
ENDBRANCH   1  17
TORSDOF 5
ENDMDL
MODEL 6
REMARK VINA RESULT:    -6.316      3.673      7.523
REMARK INTER + INTRA:          -9.520
REMARK INTER:                  -9.020
REMARK INTRA:                  -0.499
REMARK UNBOUND:                -1.357
REMARK  Name = 
REMARK  6 active torsions:
REMARK  status: ('A' for Active; 'I' for Inactive)
REMARK    1  A    between atoms: C_1  and  C_2
REMARK    2  A    between atoms: C_2  and  C_3
REMARK    3  A    between atoms: C_7  and  C_8
REMARK    4  A    between atoms: C_8  and  N_9
REMARK    5  A    between atoms: N_9  and  C_10
REMARK    6  A    between atoms: C_13  and  C_14
REMARK                            x       y       z     vdW  Elec       q    Type
REMARK                         _______ _______ _______ _____ _____    ______ ____
ROOT
ATOM      1  C   UNL     1      48.674   8.007  12.891  0.00  0.00    +0.000 C 
ATOM      2  C   UNL     1      49.740   8.665  12.040  0.00  0.00    +0.000 C 
ATOM      3  C   UNL     1      49.688   7.176  12.101  0.00  0.00    +0.000 C 
ENDROOT
BRANCH   1   8
ATOM      4  C   UNL     1      45.269   6.800  11.485  0.00  0.00    +0.000 A 
ATOM      5  C   UNL     1      44.575   8.014  11.425  0.00  0.00    +0.000 A 
ATOM      6  C   UNL     1      45.173   9.205  11.844  0.00  0.00    +0.000 A 
ATOM      7  C   UNL     1      46.485   9.206  12.321  0.00  0.00    +0.000 A 
ATOM      8  C   UNL     1      47.233   8.025  12.386  0.00  0.00    +0.000 A 
ATOM      9  C   UNL     1      46.595   6.839  11.970  0.00  0.00    +0.000 A 
BRANCH   4  11
ATOM     10  C   UNL     1      43.116   5.629  11.008  0.00  0.00    +0.000 C 
ATOM     11  C   UNL     1      44.656   5.454  11.037  0.00  0.00    +0.000 C 
ATOM     12  C   UNL     1      45.193   5.095   9.627  0.00  0.00    +0.000 C 
ATOM     13  C   UNL     1      44.780   3.699   9.174  0.00  0.00    +0.000 C 
ATOM     14  O   UNL     1      45.181   2.712  10.120  0.00  0.00    +0.000 OA
ATOM     15  C   UNL     1      44.593   2.915  11.400  0.00  0.00    +0.000 C 
ATOM     16  C   UNL     1      45.007   4.267  11.975  0.00  0.00    +0.000 C 
ENDBRANCH   4  11
ENDBRANCH   1   8
BRANCH   1  17
ATOM     17  N   UNL     1      48.801   7.827  14.344  0.00  0.00    +0.000 N 
ATOM     18  H   UNL     1      49.504   8.413  14.784  0.00  0.00    +0.000 HD
BRANCH  17  19
ATOM     19  C   UNL     1      48.554   6.650  15.075  0.00  0.00    +0.000 A 
ATOM     20  C   UNL     1      47.621   5.676  14.715  0.00  0.00    +0.000 A 
ATOM     21  C   UNL     1      47.341   4.602  15.576  0.00  0.00    +0.000 A 
ATOM     22  C   UNL     1      47.983   4.489  16.818  0.00  0.00    +0.000 A 
ATOM     23  C   UNL     1      48.917   5.460  17.184  0.00  0.00    +0.000 A 
ATOM     24  C   UNL     1      49.186   6.526  16.325  0.00  0.00    +0.000 A 
BRANCH  22  25
ATOM     25  C   UNL     1      47.607   3.381  17.734  0.00  0.00    +0.000 C 
ATOM     26  N   UNL     1      48.413   3.157  18.816  0.00  0.00    +0.000 N 
ATOM     27  O   UNL     1      46.620   2.687  17.532  0.00  0.00    +0.000 OA
ATOM     28  H   UNL     1      49.339   3.548  18.906  0.00  0.00    +0.000 HD
ATOM     29  H   UNL     1      48.177   2.363  19.400  0.00  0.00    +0.000 HD
ENDBRANCH  22  25
ENDBRANCH  17  19
ENDBRANCH   1  17
TORSDOF 5
ENDMDL
MODEL 7
REMARK VINA RESULT:    -6.124      3.696      6.013
REMARK INTER + INTRA:          -9.272
REMARK INTER:                  -8.284
REMARK INTRA:                  -0.987
REMARK UNBOUND:                -1.357
REMARK  Name = 
REMARK  6 active torsions:
REMARK  status: ('A' for Active; 'I' for Inactive)
REMARK    1  A    between atoms: C_1  and  C_2
REMARK    2  A    between atoms: C_2  and  C_3
REMARK    3  A    between atoms: C_7  and  C_8
REMARK    4  A    between atoms: C_8  and  N_9
REMARK    5  A    between atoms: N_9  and  C_10
REMARK    6  A    between atoms: C_13  and  C_14
REMARK                            x       y       z     vdW  Elec       q    Type
REMARK                         _______ _______ _______ _____ _____    ______ ____
ROOT
ATOM      1  C   UNL     1      48.272   7.737  12.863  0.00  0.00    +0.000 C 
ATOM      2  C   UNL     1      48.931   7.725  11.500  0.00  0.00    +0.000 C 
ATOM      3  C   UNL     1      48.562   9.036  12.107  0.00  0.00    +0.000 C 
ENDROOT
BRANCH   1   8
ATOM      4  C   UNL     1      49.341   6.460  16.364  0.00  0.00    +0.000 A 
ATOM      5  C   UNL     1      50.683   6.854  16.379  0.00  0.00    +0.000 A 
ATOM      6  C   UNL     1      51.253   7.503  15.281  0.00  0.00    +0.000 A 
ATOM      7  C   UNL     1      50.486   7.782  14.149  0.00  0.00    +0.000 A 
ATOM      8  C   UNL     1      49.133   7.428  14.086  0.00  0.00    +0.000 A 
ATOM      9  C   UNL     1      48.594   6.761  15.204  0.00  0.00    +0.000 A 
BRANCH   4  11
ATOM     10  C   UNL     1      47.685   4.688  16.957  0.00  0.00    +0.000 C 
ATOM     11  C   UNL     1      48.660   5.738  17.548  0.00  0.00    +0.000 C 
ATOM     12  C   UNL     1      49.745   5.049  18.416  0.00  0.00    +0.000 C 
ATOM     13  C   UNL     1      49.186   4.458  19.704  0.00  0.00    +0.000 C 
ATOM     14  O   UNL     1      48.499   5.444  20.468  0.00  0.00    +0.000 OA
ATOM     15  C   UNL     1      47.395   6.005  19.764  0.00  0.00    +0.000 C 
ATOM     16  C   UNL     1      47.864   6.689  18.483  0.00  0.00    +0.000 C 
ENDBRANCH   4  11
ENDBRANCH   1   8
BRANCH   1  17
ATOM     17  N   UNL     1      46.834   7.507  13.065  0.00  0.00    +0.000 N 
ATOM     18  H   UNL     1      46.455   7.915  13.914  0.00  0.00    +0.000 HD
BRANCH  17  19
ATOM     19  C   UNL     1      46.085   6.401  12.623  0.00  0.00    +0.000 A 
ATOM     20  C   UNL     1      45.997   5.183  13.300  0.00  0.00    +0.000 A 
ATOM     21  C   UNL     1      45.339   4.087  12.716  0.00  0.00    +0.000 A 
ATOM     22  C   UNL     1      44.766   4.188  11.441  0.00  0.00    +0.000 A 
ATOM     23  C   UNL     1      44.850   5.403  10.758  0.00  0.00    +0.000 A 
ATOM     24  C   UNL     1      45.510   6.486  11.343  0.00  0.00    +0.000 A 
BRANCH  22  25
ATOM     25  C   UNL     1      44.144   2.988  10.824  0.00  0.00    +0.000 C 
ATOM     26  N   UNL     1      43.388   2.183  11.633  0.00  0.00    +0.000 N 
ATOM     27  O   UNL     1      44.302   2.718   9.642  0.00  0.00    +0.000 OA
ATOM     28  H   UNL     1      43.408   2.239  12.640  0.00  0.00    +0.000 HD
ATOM     29  H   UNL     1      43.019   1.339  11.213  0.00  0.00    +0.000 HD
ENDBRANCH  22  25
ENDBRANCH  17  19
ENDBRANCH   1  17
TORSDOF 5
ENDMDL
MODEL 8
REMARK VINA RESULT:    -6.116      4.028      8.506
REMARK INTER + INTRA:          -9.261
REMARK INTER:                  -7.809
REMARK INTRA:                  -1.452
REMARK UNBOUND:                -1.357
REMARK  Name = 
REMARK  6 active torsions:
REMARK  status: ('A' for Active; 'I' for Inactive)
REMARK    1  A    between atoms: C_1  and  C_2
REMARK    2  A    between atoms: C_2  and  C_3
REMARK    3  A    between atoms: C_7  and  C_8
REMARK    4  A    between atoms: C_8  and  N_9
REMARK    5  A    between atoms: N_9  and  C_10
REMARK    6  A    between atoms: C_13  and  C_14
REMARK                            x       y       z     vdW  Elec       q    Type
REMARK                         _______ _______ _______ _____ _____    ______ ____
ROOT
ATOM      1  C   UNL     1      49.261   7.936  13.393  0.00  0.00    +0.000 C 
ATOM      2  C   UNL     1      49.893   9.263  13.033  0.00  0.00    +0.000 C 
ATOM      3  C   UNL     1      50.184   8.075  12.181  0.00  0.00    +0.000 C 
ENDROOT
BRANCH   1   8
ATOM      4  C   UNL     1      45.866   6.244  12.588  0.00  0.00    +0.000 A 
ATOM      5  C   UNL     1      45.019   7.358  12.599  0.00  0.00    +0.000 A 
ATOM      6  C   UNL     1      45.515   8.634  12.878  0.00  0.00    +0.000 A 
ATOM      7  C   UNL     1      46.872   8.823  13.139  0.00  0.00    +0.000 A 
ATOM      8  C   UNL     1      47.769   7.748  13.124  0.00  0.00    +0.000 A 
ATOM      9  C   UNL     1      47.234   6.472  12.855  0.00  0.00    +0.000 A 
BRANCH   4  11
ATOM     10  C   UNL     1      46.372   3.826  12.947  0.00  0.00    +0.000 C 
ATOM     11  C   UNL     1      45.373   4.811  12.289  0.00  0.00    +0.000 C 
ATOM     12  C   UNL     1      43.952   4.627  12.883  0.00  0.00    +0.000 C 
ATOM     13  C   UNL     1      43.311   3.303  12.487  0.00  0.00    +0.000 C 
ATOM     14  O   UNL     1      43.276   3.151  11.071  0.00  0.00    +0.000 OA
ATOM     15  C   UNL     1      44.576   3.164  10.491  0.00  0.00    +0.000 C 
ATOM     16  C   UNL     1      45.278   4.489  10.772  0.00  0.00    +0.000 C 
ENDBRANCH   4  11
ENDBRANCH   1   8
BRANCH   1  17
ATOM     17  N   UNL     1      49.805   7.036  14.421  0.00  0.00    +0.000 N 
ATOM     18  H   UNL     1      50.212   6.179  14.061  0.00  0.00    +0.000 HD
BRANCH  17  19
ATOM     19  C   UNL     1      49.357   6.898  15.748  0.00  0.00    +0.000 A 
ATOM     20  C   UNL     1      48.832   5.722  16.287  0.00  0.00    +0.000 A 
ATOM     21  C   UNL     1      48.280   5.713  17.579  0.00  0.00    +0.000 A 
ATOM     22  C   UNL     1      48.235   6.883  18.350  0.00  0.00    +0.000 A 
ATOM     23  C   UNL     1      48.758   8.063  17.817  0.00  0.00    +0.000 A 
ATOM     24  C   UNL     1      49.300   8.064  16.531  0.00  0.00    +0.000 A 
BRANCH  22  25
ATOM     25  C   UNL     1      47.577   6.853  19.683  0.00  0.00    +0.000 C 
ATOM     26  N   UNL     1      46.975   5.684  20.062  0.00  0.00    +0.000 N 
ATOM     27  O   UNL     1      47.563   7.833  20.415  0.00  0.00    +0.000 OA
ATOM     28  H   UNL     1      46.772   4.934  19.420  0.00  0.00    +0.000 HD
ATOM     29  H   UNL     1      46.482   5.696  20.947  0.00  0.00    +0.000 HD
ENDBRANCH  22  25
ENDBRANCH  17  19
ENDBRANCH   1  17
TORSDOF 5
ENDMDL
