MODEL 1
REMARK VINA RESULT:    -7.336      0.000      0.000
REMARK INTER + INTRA:         -11.105
REMARK INTER:                  -9.909
REMARK INTRA:                  -1.196
REMARK UNBOUND:                -1.196
REMARK  Name = 
REMARK  6 active torsions:
REMARK  status: ('A' for Active; 'I' for Inactive)
REMARK    1  A    between atoms: C_2  and  C_21
REMARK    2  A    between atoms: N_3  and  C_4
REMARK    3  A    between atoms: C_4  and  C_5
REMARK    4  A    between atoms: N_8  and  C_9
REMARK    5  A    between atoms: C_9  and  C_10
REMARK    6  A    between atoms: C_10  and  C_11
REMARK                            x       y       z     vdW  Elec       q    Type
REMARK                         _______ _______ _______ _____ _____    ______ ____
ROOT
ATOM      1  C   UNL     1      46.310   8.142  13.033  0.00  0.00    +0.000 C 
ENDROOT
BRANCH   1   2
ATOM      2  C   UNL     1      47.488   8.607  12.158  0.00  0.00    +0.000 C 
ATOM      3  C   UNL     1      48.494   7.475  11.910  0.00  0.00    +0.000 C 
ATOM      4  C   UNL     1      49.265   7.101  13.174  0.00  0.00    +0.000 C 
ATOM      5  N   UNL     1      49.969   8.260  13.754  0.00  0.00    +0.000 NA
ATOM      6  C   UNL     1      49.016   9.343  14.065  0.00  0.00    +0.000 C 
ATOM      7  C   UNL     1      48.233   9.777  12.816  0.00  0.00    +0.000 C 
BRANCH   5   8
ATOM      8  C   UNL     1      50.717   7.847  14.969  0.00  0.00    +0.000 C 
BRANCH   8   9
ATOM      9  C   UNL     1      49.798   7.296  16.070  0.00  0.00    +0.000 C 
BRANCH   9  10
ATOM     10  C   UNL     1      50.306   5.993  16.655  0.00  0.00    +0.000 C 
ATOM     11  O   UNL     1      51.492   5.673  16.586  0.00  0.00    +0.000 OA
ATOM     12  N   UNL     1      49.364   5.216  17.322  0.00  0.00    +0.000 N 
ATOM     13  C   UNL     1      49.808   4.030  18.042  0.00  0.00    +0.000 C 
ATOM     14  C   UNL     1      49.232   2.764  17.419  0.00  0.00    +0.000 C 
ATOM     15  C   UNL     1      47.711   2.857  17.306  0.00  0.00    +0.000 C 
ATOM     16  C   UNL     1      47.292   4.132  16.574  0.00  0.00    +0.000 C 
ATOM     17  C   UNL     1      47.912   5.375  17.211  0.00  0.00    +0.000 C 
ENDBRANCH   9  10
ENDBRANCH   8   9
ENDBRANCH   5   8
ENDBRANCH   1   2
BRANCH   1  20
ATOM     18  O   UNL     1      44.214   7.529  11.320  0.00  0.00    +0.000 OA
ATOM     19  C   UNL     1      44.837   6.601  11.849  0.00  0.00    +0.000 C 
ATOM     20  N   UNL     1      45.867   6.804  12.733  0.00  0.00    +0.000 N 
ATOM     21  H   UNL     1      46.516   6.045  12.903  0.00  0.00    +0.000 HD
BRANCH  19  22
ATOM     22  C   UNL     1      44.488   5.212  11.595  0.00  0.00    +0.000 A 
ATOM     23  C   UNL     1      43.748   4.450  12.487  0.00  0.00    +0.000 A 
ATOM     24  S   UNL     1      43.439   2.866  11.910  0.00  0.00    +0.000 S 
ATOM     25  C   UNL     1      44.276   3.168  10.460  0.00  0.00    +0.000 A 
ATOM     26  N   UNL     1      44.390   2.222   9.494  0.00  0.00    +0.000 NA
ATOM     27  C   UNL     1      45.047   2.601   8.448  0.00  0.00    +0.000 A 
ATOM     28  N   UNL     1      45.604   3.844   8.280  0.00  0.00    +0.000 N 
ATOM     29  C   UNL     1      45.573   4.801   9.249  0.00  0.00    +0.000 A 
ATOM     30  O   UNL     1      46.222   5.848   9.116  0.00  0.00    +0.000 OA
ATOM     31  C   UNL     1      44.810   4.443  10.425  0.00  0.00    +0.000 A 
ATOM     32  H   UNL     1      46.145   4.058   7.457  0.00  0.00    +0.000 HD
ENDBRANCH  19  22
ENDBRANCH   1  20
TORSDOF 6
ENDMDL
MODEL 2
REMARK VINA RESULT:    -7.165      2.750      3.913
REMARK INTER + INTRA:         -10.873
REMARK INTER:                  -9.569
REMARK INTRA:                  -1.305
REMARK UNBOUND:                -1.196
REMARK  Name = 
REMARK  6 active torsions:
REMARK  status: ('A' for Active; 'I' for Inactive)
REMARK    1  A    between atoms: C_2  and  C_21
REMARK    2  A    between atoms: N_3  and  C_4
REMARK    3  A    between atoms: C_4  and  C_5
REMARK    4  A    between atoms: N_8  and  C_9
REMARK    5  A    between atoms: C_9  and  C_10
REMARK    6  A    between atoms: C_10  and  C_11
REMARK                            x       y       z     vdW  Elec       q    Type
REMARK                         _______ _______ _______ _____ _____    ______ ____
ROOT
ATOM      1  C   UNL     1      49.325   7.529  15.321  0.00  0.00    +0.000 C 
ENDROOT
BRANCH   1   2
ATOM      2  C   UNL     1      49.445   8.958  15.880  0.00  0.00    +0.000 C 
ATOM      3  C   UNL     1      50.635   9.098  16.838  0.00  0.00    +0.000 C 
ATOM      4  C   UNL     1      50.412   8.345  18.148  0.00  0.00    +0.000 C 
ATOM      5  N   UNL     1      49.182   8.782  18.833  0.00  0.00    +0.000 NA
ATOM      6  C   UNL     1      48.008   8.598  17.958  0.00  0.00    +0.000 C 
ATOM      7  C   UNL     1      48.170   9.362  16.635  0.00  0.00    +0.000 C 
BRANCH   5   8
ATOM      8  C   UNL     1      49.016   8.036  20.107  0.00  0.00    +0.000 C 
BRANCH   8   9
ATOM      9  C   UNL     1      49.323   6.539  19.961  0.00  0.00    +0.000 C 
BRANCH   9  10
ATOM     10  C   UNL     1      48.150   5.754  19.408  0.00  0.00    +0.000 C 
ATOM     11  O   UNL     1      47.046   5.774  19.951  0.00  0.00    +0.000 OA
ATOM     12  N   UNL     1      48.383   5.061  18.223  0.00  0.00    +0.000 N 
ATOM     13  C   UNL     1      47.264   4.413  17.552  0.00  0.00    +0.000 C 
ATOM     14  C   UNL     1      47.440   2.900  17.534  0.00  0.00    +0.000 C 
ATOM     15  C   UNL     1      48.794   2.516  16.939  0.00  0.00    +0.000 C 
ATOM     16  C   UNL     1      49.933   3.246  17.652  0.00  0.00    +0.000 C 
ATOM     17  C   UNL     1      49.705   4.757  17.674  0.00  0.00    +0.000 C 
ENDBRANCH   9  10
ENDBRANCH   8   9
ENDBRANCH   5   8
ENDBRANCH   1   2
BRANCH   1  20
ATOM     18  O   UNL     1      49.086   6.297  12.846  0.00  0.00    +0.000 OA
ATOM     19  C   UNL     1      48.056   6.638  13.439  0.00  0.00    +0.000 C 
ATOM     20  N   UNL     1      48.073   7.280  14.652  0.00  0.00    +0.000 N 
ATOM     21  H   UNL     1      47.232   7.271  15.216  0.00  0.00    +0.000 HD
BRANCH  19  22
ATOM     22  C   UNL     1      46.740   6.411  12.864  0.00  0.00    +0.000 A 
ATOM     23  C   UNL     1      45.971   7.432  12.325  0.00  0.00    +0.000 A 
ATOM     24  S   UNL     1      44.489   6.873  11.670  0.00  0.00    +0.000 S 
ATOM     25  C   UNL     1      44.847   5.263  12.083  0.00  0.00    +0.000 A 
ATOM     26  N   UNL     1      43.993   4.248  11.796  0.00  0.00    +0.000 NA
ATOM     27  C   UNL     1      44.405   3.080  12.163  0.00  0.00    +0.000 A 
ATOM     28  N   UNL     1      45.598   2.834  12.796  0.00  0.00    +0.000 N 
ATOM     29  C   UNL     1      46.455   3.827  13.165  0.00  0.00    +0.000 A 
ATOM     30  O   UNL     1      47.441   3.574  13.871  0.00  0.00    +0.000 OA
ATOM     31  C   UNL     1      46.061   5.151  12.736  0.00  0.00    +0.000 A 
ATOM     32  H   UNL     1      45.837   1.902  13.098  0.00  0.00    +0.000 HD
ENDBRANCH  19  22
ENDBRANCH   1  20
TORSDOF 6
ENDMDL
MODEL 3
REMARK VINA RESULT:    -7.134      3.021      8.332
REMARK INTER + INTRA:         -10.832
REMARK INTER:                  -9.976
REMARK INTRA:                  -0.856
REMARK UNBOUND:                -1.196
REMARK  Name = 
REMARK  6 active torsions:
REMARK  status: ('A' for Active; 'I' for Inactive)
REMARK    1  A    between atoms: C_2  and  C_21
REMARK    2  A    between atoms: N_3  and  C_4
REMARK    3  A    between atoms: C_4  and  C_5
REMARK    4  A    between atoms: N_8  and  C_9
REMARK    5  A    between atoms: C_9  and  C_10
REMARK    6  A    between atoms: C_10  and  C_11
REMARK                            x       y       z     vdW  Elec       q    Type
REMARK                         _______ _______ _______ _____ _____    ______ ____
ROOT
ATOM      1  C   UNL     1      48.544   7.327  15.431  0.00  0.00    +0.000 C 
ENDROOT
BRANCH   1   2
ATOM      2  C   UNL     1      48.724   7.861  13.999  0.00  0.00    +0.000 C 
ATOM      3  C   UNL     1      47.519   8.695  13.545  0.00  0.00    +0.000 C 
ATOM      4  C   UNL     1      46.273   7.839  13.329  0.00  0.00    +0.000 C 
ATOM      5  N   UNL     1      46.510   6.757  12.356  0.00  0.00    +0.000 NA
ATOM      6  C   UNL     1      47.624   5.896  12.797  0.00  0.00    +0.000 C 
ATOM      7  C   UNL     1      48.912   6.707  13.002  0.00  0.00    +0.000 C 
BRANCH   5   8
ATOM      8  C   UNL     1      45.269   5.963  12.165  0.00  0.00    +0.000 C 
BRANCH   8   9
ATOM      9  C   UNL     1      45.071   5.514  10.710  0.00  0.00    +0.000 C 
BRANCH   9  10
ATOM     10  C   UNL     1      45.053   4.006  10.562  0.00  0.00    +0.000 C 
ATOM     11  O   UNL     1      45.003   3.261  11.541  0.00  0.00    +0.000 OA
ATOM     12  N   UNL     1      45.037   3.520   9.258  0.00  0.00    +0.000 N 
ATOM     13  C   UNL     1      44.863   2.090   9.038  0.00  0.00    +0.000 C 
ATOM     14  C   UNL     1      46.104   1.481   8.398  0.00  0.00    +0.000 C 
ATOM     15  C   UNL     1      46.487   2.236   7.126  0.00  0.00    +0.000 C 
ATOM     16  C   UNL     1      46.625   3.734   7.399  0.00  0.00    +0.000 C 
ATOM     17  C   UNL     1      45.373   4.302   8.066  0.00  0.00    +0.000 C 
ENDBRANCH   9  10
ENDBRANCH   8   9
ENDBRANCH   5   8
ENDBRANCH   1   2
BRANCH   1  20
ATOM     18  O   UNL     1      48.546   5.729  17.701  0.00  0.00    +0.000 OA
ATOM     19  C   UNL     1      49.587   5.821  17.041  0.00  0.00    +0.000 C 
ATOM     20  N   UNL     1      49.694   6.609  15.922  0.00  0.00    +0.000 N 
ATOM     21  H   UNL     1      50.448   6.426  15.271  0.00  0.00    +0.000 HD
BRANCH  19  22
ATOM     22  C   UNL     1      50.798   5.119  17.435  0.00  0.00    +0.000 A 
ATOM     23  C   UNL     1      51.924   5.774  17.913  0.00  0.00    +0.000 A 
ATOM     24  S   UNL     1      53.183   4.697  18.351  0.00  0.00    +0.000 S 
ATOM     25  C   UNL     1      52.251   3.341  17.923  0.00  0.00    +0.000 A 
ATOM     26  N   UNL     1      52.730   2.078  18.058  0.00  0.00    +0.000 NA
ATOM     27  C   UNL     1      51.904   1.150  17.699  0.00  0.00    +0.000 A 
ATOM     28  N   UNL     1      50.640   1.373  17.214  0.00  0.00    +0.000 N 
ATOM     29  C   UNL     1      50.143   2.623  16.997  0.00  0.00    +0.000 A 
ATOM     30  O   UNL     1      49.062   2.774  16.412  0.00  0.00    +0.000 OA
ATOM     31  C   UNL     1      51.012   3.698  17.425  0.00  0.00    +0.000 A 
ATOM     32  H   UNL     1      50.065   0.604  16.907  0.00  0.00    +0.000 HD
ENDBRANCH  19  22
ENDBRANCH   1  20
TORSDOF 6
ENDMDL
MODEL 4
REMARK VINA RESULT:    -6.966      2.168      2.556
REMARK INTER + INTRA:         -10.605
REMARK INTER:                  -9.517
REMARK INTRA:                  -1.088
REMARK UNBOUND:                -1.196
REMARK  Name = 
REMARK  6 active torsions:
REMARK  status: ('A' for Active; 'I' for Inactive)
REMARK    1  A    between atoms: C_2  and  C_21
REMARK    2  A    between atoms: N_3  and  C_4
REMARK    3  A    between atoms: C_4  and  C_5
REMARK    4  A    between atoms: N_8  and  C_9
REMARK    5  A    between atoms: C_9  and  C_10
REMARK    6  A    between atoms: C_10  and  C_11
REMARK                            x       y       z     vdW  Elec       q    Type
REMARK                         _______ _______ _______ _____ _____    ______ ____
ROOT
ATOM      1  C   UNL     1      49.344   7.159  12.477  0.00  0.00    +0.000 C 
ENDROOT
BRANCH   1   2
ATOM      2  C   UNL     1      49.621   8.651  12.738  0.00  0.00    +0.000 C 
ATOM      3  C   UNL     1      51.085   8.899  13.123  0.00  0.00    +0.000 C 
ATOM      4  C   UNL     1      51.421   8.345  14.506  0.00  0.00    +0.000 C 
ATOM      5  N   UNL     1      50.542   8.902  15.550  0.00  0.00    +0.000 NA
ATOM      6  C   UNL     1      49.127   8.622  15.242  0.00  0.00    +0.000 C 
ATOM      7  C   UNL     1      48.731   9.185  13.869  0.00  0.00    +0.000 C 
BRANCH   5   8
ATOM      8  C   UNL     1      50.915   8.349  16.878  0.00  0.00    +0.000 C 
BRANCH   8   9
ATOM      9  C   UNL     1      49.875   7.358  17.419  0.00  0.00    +0.000 C 
BRANCH   9  10
ATOM     10  C   UNL     1      50.303   5.914  17.255  0.00  0.00    +0.000 C 
ATOM     11  O   UNL     1      51.346   5.612  16.675  0.00  0.00    +0.000 OA
ATOM     12  N   UNL     1      49.481   4.961  17.848  0.00  0.00    +0.000 N 
ATOM     13  C   UNL     1      49.909   3.569  17.865  0.00  0.00    +0.000 C 
ATOM     14  C   UNL     1      48.971   2.698  17.039  0.00  0.00    +0.000 C 
ATOM     15  C   UNL     1      47.522   2.880  17.488  0.00  0.00    +0.000 C 
ATOM     16  C   UNL     1      47.129   4.358  17.486  0.00  0.00    +0.000 C 
ATOM     17  C   UNL     1      48.109   5.201  18.301  0.00  0.00    +0.000 C 
ENDBRANCH   9  10
ENDBRANCH   8   9
ENDBRANCH   5   8
ENDBRANCH   1   2
BRANCH   1  20
ATOM     18  O   UNL     1      47.419   5.893  14.025  0.00  0.00    +0.000 OA
ATOM     19  C   UNL     1      47.105   6.287  12.895  0.00  0.00    +0.000 C 
ATOM     20  N   UNL     1      47.994   6.896  12.045  0.00  0.00    +0.000 N 
ATOM     21  H   UNL     1      47.629   7.448  11.278  0.00  0.00    +0.000 HD
BRANCH  19  22
ATOM     22  C   UNL     1      45.762   6.094  12.371  0.00  0.00    +0.000 A 
ATOM     23  C   UNL     1      44.991   7.139  11.884  0.00  0.00    +0.000 A 
ATOM     24  S   UNL     1      43.473   6.618  11.281  0.00  0.00    +0.000 S 
ATOM     25  C   UNL     1      43.818   4.994  11.650  0.00  0.00    +0.000 A 
ATOM     26  N   UNL     1      42.934   4.000  11.380  0.00  0.00    +0.000 NA
ATOM     27  C   UNL     1      43.341   2.817  11.708  0.00  0.00    +0.000 A 
ATOM     28  N   UNL     1      44.554   2.539  12.286  0.00  0.00    +0.000 N 
ATOM     29  C   UNL     1      45.443   3.510  12.637  0.00  0.00    +0.000 A 
ATOM     30  O   UNL     1      46.453   3.226  13.296  0.00  0.00    +0.000 OA
ATOM     31  C   UNL     1      45.056   4.849  12.249  0.00  0.00    +0.000 A 
ATOM     32  H   UNL     1      44.788   1.598  12.561  0.00  0.00    +0.000 HD
ENDBRANCH  19  22
ENDBRANCH   1  20
TORSDOF 6
ENDMDL
MODEL 5
REMARK VINA RESULT:    -6.652      3.041      8.634
REMARK INTER + INTRA:         -10.181
REMARK INTER:                  -9.168
REMARK INTRA:                  -1.013
REMARK UNBOUND:                -1.196
REMARK  Name = 
REMARK  6 active torsions:
REMARK  status: ('A' for Active; 'I' for Inactive)
REMARK    1  A    between atoms: C_2  and  C_21
REMARK    2  A    between atoms: N_3  and  C_4
REMARK    3  A    between atoms: C_4  and  C_5
REMARK    4  A    between atoms: N_8  and  C_9
REMARK    5  A    between atoms: C_9  and  C_10
REMARK    6  A    between atoms: C_10  and  C_11
REMARK                            x       y       z     vdW  Elec       q    Type
REMARK                         _______ _______ _______ _____ _____    ______ ____
ROOT
ATOM      1  C   UNL     1      48.172   6.767  13.967  0.00  0.00    +0.000 C 
ENDROOT
BRANCH   1   2
ATOM      2  C   UNL     1      47.654   7.831  12.983  0.00  0.00    +0.000 C 
ATOM      3  C   UNL     1      46.187   8.189  13.251  0.00  0.00    +0.000 C 
ATOM      4  C   UNL     1      45.239   7.047  12.893  0.00  0.00    +0.000 C 
ATOM      5  N   UNL     1      45.388   6.627  11.488  0.00  0.00    +0.000 NA
ATOM      6  C   UNL     1      46.777   6.212  11.215  0.00  0.00    +0.000 C 
ATOM      7  C   UNL     1      47.771   7.340  11.533  0.00  0.00    +0.000 C 
BRANCH   5   8
ATOM      8  C   UNL     1      44.436   5.527  11.181  0.00  0.00    +0.000 C 
BRANCH   8   9
ATOM      9  C   UNL     1      44.644   4.940   9.778  0.00  0.00    +0.000 C 
BRANCH   9  10
ATOM     10  C   UNL     1      44.941   3.454   9.806  0.00  0.00    +0.000 C 
ATOM     11  O   UNL     1      44.950   2.816  10.859  0.00  0.00    +0.000 OA
ATOM     12  N   UNL     1      45.144   2.848   8.569  0.00  0.00    +0.000 N 
ATOM     13  C   UNL     1      45.281   1.399   8.506  0.00  0.00    +0.000 C 
ATOM     14  C   UNL     1      46.673   1.002   8.030  0.00  0.00    +0.000 C 
ATOM     15  C   UNL     1      47.015   1.691   6.710  0.00  0.00    +0.000 C 
ATOM     16  C   UNL     1      46.824   3.204   6.815  0.00  0.00    +0.000 C 
ATOM     17  C   UNL     1      45.427   3.561   7.322  0.00  0.00    +0.000 C 
ENDBRANCH   9  10
ENDBRANCH   8   9
ENDBRANCH   5   8
ENDBRANCH   1   2
BRANCH   1  20
ATOM     18  O   UNL     1      50.265   7.503  15.636  0.00  0.00    +0.000 OA
ATOM     19  C   UNL     1      49.114   7.521  16.087  0.00  0.00    +0.000 C 
ATOM     20  N   UNL     1      48.019   7.145  15.350  0.00  0.00    +0.000 N 
ATOM     21  H   UNL     1      47.102   7.449  15.656  0.00  0.00    +0.000 HD
BRANCH  19  22
ATOM     22  C   UNL     1      48.845   7.910  17.462  0.00  0.00    +0.000 A 
ATOM     23  C   UNL     1      49.050   9.200  17.930  0.00  0.00    +0.000 A 
ATOM     24  S   UNL     1      48.600   9.390  19.573  0.00  0.00    +0.000 S 
ATOM     25  C   UNL     1      48.117   7.764  19.689  0.00  0.00    +0.000 A 
ATOM     26  N   UNL     1      47.614   7.252  20.841  0.00  0.00    +0.000 NA
ATOM     27  C   UNL     1      47.283   6.004  20.774  0.00  0.00    +0.000 A 
ATOM     28  N   UNL     1      47.412   5.219  19.656  0.00  0.00    +0.000 N 
ATOM     29  C   UNL     1      47.974   5.670  18.500  0.00  0.00    +0.000 A 
ATOM     30  O   UNL     1      48.213   4.886  17.571  0.00  0.00    +0.000 OA
ATOM     31  C   UNL     1      48.320   7.075  18.508  0.00  0.00    +0.000 A 
ATOM     32  H   UNL     1      47.179   4.239  19.687  0.00  0.00    +0.000 HD
ENDBRANCH  19  22
ENDBRANCH   1  20
TORSDOF 6
ENDMDL
MODEL 6
REMARK VINA RESULT:    -6.277      2.045      2.472
REMARK INTER + INTRA:          -9.674
REMARK INTER:                  -8.449
REMARK INTRA:                  -1.225
REMARK UNBOUND:                -1.196
REMARK  Name = 
REMARK  6 active torsions:
REMARK  status: ('A' for Active; 'I' for Inactive)
REMARK    1  A    between atoms: C_2  and  C_21
REMARK    2  A    between atoms: N_3  and  C_4
REMARK    3  A    between atoms: C_4  and  C_5
REMARK    4  A    between atoms: N_8  and  C_9
REMARK    5  A    between atoms: C_9  and  C_10
REMARK    6  A    between atoms: C_10  and  C_11
REMARK                            x       y       z     vdW  Elec       q    Type
REMARK                         _______ _______ _______ _____ _____    ______ ____
ROOT
ATOM      1  C   UNL     1      47.942   7.892  11.919  0.00  0.00    +0.000 C 
ENDROOT
BRANCH   1   2
ATOM      2  C   UNL     1      49.313   7.729  12.600  0.00  0.00    +0.000 C 
ATOM      3  C   UNL     1      49.216   6.896  13.885  0.00  0.00    +0.000 C 
ATOM      4  C   UNL     1      48.480   7.638  14.999  0.00  0.00    +0.000 C 
ATOM      5  N   UNL     1      49.109   8.935  15.306  0.00  0.00    +0.000 NA
ATOM      6  C   UNL     1      49.158   9.786  14.102  0.00  0.00    +0.000 C 
ATOM      7  C   UNL     1      49.915   9.095  12.958  0.00  0.00    +0.000 C 
BRANCH   5   8
ATOM      8  C   UNL     1      48.371   9.612  16.404  0.00  0.00    +0.000 C 
BRANCH   8   9
ATOM      9  C   UNL     1      48.946   9.290  17.790  0.00  0.00    +0.000 C 
BRANCH   9  10
ATOM     10  C   UNL     1      47.997   8.468  18.640  0.00  0.00    +0.000 C 
ATOM     11  O   UNL     1      47.029   8.978  19.204  0.00  0.00    +0.000 OA
ATOM     12  N   UNL     1      48.252   7.101  18.693  0.00  0.00    +0.000 N 
ATOM     13  C   UNL     1      47.295   6.229  19.361  0.00  0.00    +0.000 C 
ATOM     14  C   UNL     1      47.913   5.580  20.594  0.00  0.00    +0.000 C 
ATOM     15  C   UNL     1      49.219   4.870  20.237  0.00  0.00    +0.000 C 
ATOM     16  C   UNL     1      50.176   5.814  19.509  0.00  0.00    +0.000 C 
ATOM     17  C   UNL     1      49.510   6.466  18.298  0.00  0.00    +0.000 C 
ENDBRANCH   9  10
ENDBRANCH   8   9
ENDBRANCH   5   8
ENDBRANCH   1   2
BRANCH   1  20
ATOM     18  O   UNL     1      45.171   7.764  12.005  0.00  0.00    +0.000 OA
ATOM     19  C   UNL     1      45.809   6.711  11.890  0.00  0.00    +0.000 C 
ATOM     20  N   UNL     1      47.180   6.669  11.869  0.00  0.00    +0.000 N 
ATOM     21  H   UNL     1      47.633   5.848  11.487  0.00  0.00    +0.000 HD
BRANCH  19  22
ATOM     22  C   UNL     1      45.137   5.424  11.805  0.00  0.00    +0.000 A 
ATOM     23  C   UNL     1      44.486   4.846  12.885  0.00  0.00    +0.000 A 
ATOM     24  S   UNL     1      43.737   3.356  12.489  0.00  0.00    +0.000 S 
ATOM     25  C   UNL     1      44.257   3.457  10.873  0.00  0.00    +0.000 A 
ATOM     26  N   UNL     1      43.950   2.496   9.965  0.00  0.00    +0.000 NA
ATOM     27  C   UNL     1      44.408   2.716   8.776  0.00  0.00    +0.000 A 
ATOM     28  N   UNL     1      45.149   3.812   8.413  0.00  0.00    +0.000 N 
ATOM     29  C   UNL     1      45.540   4.765   9.304  0.00  0.00    +0.000 A 
ATOM     30  O   UNL     1      46.337   5.651   8.965  0.00  0.00    +0.000 OA
ATOM     31  C   UNL     1      45.015   4.591  10.641  0.00  0.00    +0.000 A 
ATOM     32  H   UNL     1      45.516   3.897   7.478  0.00  0.00    +0.000 HD
ENDBRANCH  19  22
ENDBRANCH   1  20
TORSDOF 6
ENDMDL
MODEL 7
REMARK VINA RESULT:    -6.164      1.853      2.484
REMARK INTER + INTRA:          -9.522
REMARK INTER:                  -8.406
REMARK INTRA:                  -1.115
REMARK UNBOUND:                -1.196
REMARK  Name = 
REMARK  6 active torsions:
REMARK  status: ('A' for Active; 'I' for Inactive)
REMARK    1  A    between atoms: C_2  and  C_21
REMARK    2  A    between atoms: N_3  and  C_4
REMARK    3  A    between atoms: C_4  and  C_5
REMARK    4  A    between atoms: N_8  and  C_9
REMARK    5  A    between atoms: C_9  and  C_10
REMARK    6  A    between atoms: C_10  and  C_11
REMARK                            x       y       z     vdW  Elec       q    Type
REMARK                         _______ _______ _______ _____ _____    ______ ____
ROOT
ATOM      1  C   UNL     1      47.191   8.399  12.658  0.00  0.00    +0.000 C 
ENDROOT
BRANCH   1   2
ATOM      2  C   UNL     1      48.672   8.745  12.421  0.00  0.00    +0.000 C 
ATOM      3  C   UNL     1      49.597   7.582  12.805  0.00  0.00    +0.000 C 
ATOM      4  C   UNL     1      49.640   7.354  14.314  0.00  0.00    +0.000 C 
ATOM      5  N   UNL     1      50.055   8.566  15.043  0.00  0.00    +0.000 NA
ATOM      6  C   UNL     1      49.143   9.688  14.745  0.00  0.00    +0.000 C 
ATOM      7  C   UNL     1      49.086   9.977  13.238  0.00  0.00    +0.000 C 
BRANCH   5   8
ATOM      8  C   UNL     1      50.099   8.292  16.503  0.00  0.00    +0.000 C 
BRANCH   8   9
ATOM      9  C   UNL     1      48.706   8.289  17.147  0.00  0.00    +0.000 C 
BRANCH   9  10
ATOM     10  C   UNL     1      48.676   7.554  18.472  0.00  0.00    +0.000 C 
ATOM     11  O   UNL     1      49.037   8.093  19.518  0.00  0.00    +0.000 OA
ATOM     12  N   UNL     1      48.164   6.260  18.441  0.00  0.00    +0.000 N 
ATOM     13  C   UNL     1      47.961   5.550  19.697  0.00  0.00    +0.000 C 
ATOM     14  C   UNL     1      48.869   4.330  19.788  0.00  0.00    +0.000 C 
ATOM     15  C   UNL     1      48.699   3.432  18.563  0.00  0.00    +0.000 C 
ATOM     16  C   UNL     1      48.888   4.228  17.271  0.00  0.00    +0.000 C 
ATOM     17  C   UNL     1      47.982   5.458  17.230  0.00  0.00    +0.000 C 
ENDBRANCH   9  10
ENDBRANCH   8   9
ENDBRANCH   5   8
ENDBRANCH   1   2
BRANCH   1  20
ATOM     18  O   UNL     1      44.755   8.061  11.371  0.00  0.00    +0.000 OA
ATOM     19  C   UNL     1      45.560   7.123  11.371  0.00  0.00    +0.000 C 
ATOM     20  N   UNL     1      46.776   7.183  12.004  0.00  0.00    +0.000 N 
ATOM     21  H   UNL     1      47.496   6.525  11.734  0.00  0.00    +0.000 HD
BRANCH  19  22
ATOM     22  C   UNL     1      45.251   5.860  10.719  0.00  0.00    +0.000 A 
ATOM     23  C   UNL     1      45.666   5.560   9.429  0.00  0.00    +0.000 A 
ATOM     24  S   UNL     1      45.208   3.985   8.933  0.00  0.00    +0.000 S 
ATOM     25  C   UNL     1      44.459   3.670  10.427  0.00  0.00    +0.000 A 
ATOM     26  N   UNL     1      43.862   2.478  10.685  0.00  0.00    +0.000 NA
ATOM     27  C   UNL     1      43.343   2.384  11.866  0.00  0.00    +0.000 A 
ATOM     28  N   UNL     1      43.365   3.377  12.812  0.00  0.00    +0.000 N 
ATOM     29  C   UNL     1      43.892   4.610  12.574  0.00  0.00    +0.000 A 
ATOM     30  O   UNL     1      43.749   5.523  13.400  0.00  0.00    +0.000 OA
ATOM     31  C   UNL     1      44.527   4.754  11.282  0.00  0.00    +0.000 A 
ATOM     32  H   UNL     1      42.898   3.253  13.697  0.00  0.00    +0.000 HD
ENDBRANCH  19  22
ENDBRANCH   1  20
TORSDOF 6
ENDMDL
MODEL 8
REMARK VINA RESULT:    -5.804      2.996      7.119
REMARK INTER + INTRA:          -9.036
REMARK INTER:                  -8.567
REMARK INTRA:                  -0.468
REMARK UNBOUND:                -1.196
REMARK  Name = 
REMARK  6 active torsions:
REMARK  status: ('A' for Active; 'I' for Inactive)
REMARK    1  A    between atoms: C_2  and  C_21
REMARK    2  A    between atoms: N_3  and  C_4
REMARK    3  A    between atoms: C_4  and  C_5
REMARK    4  A    between atoms: N_8  and  C_9
REMARK    5  A    between atoms: C_9  and  C_10
REMARK    6  A    between atoms: C_10  and  C_11
REMARK                            x       y       z     vdW  Elec       q    Type
REMARK                         _______ _______ _______ _____ _____    ______ ____
ROOT
ATOM      1  C   UNL     1      45.415   3.637  12.675  0.00  0.00    +0.000 C 
ENDROOT
BRANCH   1   2
ATOM      2  C   UNL     1      44.446   4.343  11.710  0.00  0.00    +0.000 C 
ATOM      3  C   UNL     1      45.189   5.023  10.552  0.00  0.00    +0.000 C 
ATOM      4  C   UNL     1      45.994   6.235  11.016  0.00  0.00    +0.000 C 
ATOM      5  N   UNL     1      45.147   7.229  11.700  0.00  0.00    +0.000 NA
ATOM      6  C   UNL     1      44.468   6.621  12.861  0.00  0.00    +0.000 C 
ATOM      7  C   UNL     1      43.620   5.410  12.443  0.00  0.00    +0.000 C 
BRANCH   5   8
ATOM      8  C   UNL     1      45.968   8.396  12.118  0.00  0.00    +0.000 C 
BRANCH   8   9
ATOM      9  C   UNL     1      47.453   8.230  11.767  0.00  0.00    +0.000 C 
BRANCH   9  10
ATOM     10  C   UNL     1      48.328   9.280  12.423  0.00  0.00    +0.000 C 
ATOM     11  O   UNL     1      47.868  10.353  12.811  0.00  0.00    +0.000 OA
ATOM     12  N   UNL     1      49.662   8.932  12.610  0.00  0.00    +0.000 N 
ATOM     13  C   UNL     1      50.525   9.826  13.371  0.00  0.00    +0.000 C 
ATOM     14  C   UNL     1      51.630  10.399  12.491  0.00  0.00    +0.000 C 
ATOM     15  C   UNL     1      52.401   9.282  11.789  0.00  0.00    +0.000 C 
ATOM     16  C   UNL     1      51.452   8.352  11.033  0.00  0.00    +0.000 C 
ATOM     17  C   UNL     1      50.343   7.821  11.941  0.00  0.00    +0.000 C 
ENDBRANCH   9  10
ENDBRANCH   8   9
ENDBRANCH   5   8
ENDBRANCH   1   2
BRANCH   1  20
ATOM     18  O   UNL     1      47.494   2.917  14.367  0.00  0.00    +0.000 OA
ATOM     19  C   UNL     1      47.120   4.096  14.357  0.00  0.00    +0.000 C 
ATOM     20  N   UNL     1      46.082   4.542  13.578  0.00  0.00    +0.000 N 
ATOM     21  H   UNL     1      46.011   5.534  13.388  0.00  0.00    +0.000 HD
BRANCH  19  22
ATOM     22  C   UNL     1      47.742   5.096  15.210  0.00  0.00    +0.000 A 
ATOM     23  C   UNL     1      48.380   6.220  14.707  0.00  0.00    +0.000 A 
ATOM     24  S   UNL     1      48.975   7.254  15.938  0.00  0.00    +0.000 S 
ATOM     25  C   UNL     1      48.388   6.229  17.162  0.00  0.00    +0.000 A 
ATOM     26  N   UNL     1      48.549   6.527  18.476  0.00  0.00    +0.000 NA
ATOM     27  C   UNL     1      48.043   5.659  19.289  0.00  0.00    +0.000 A 
ATOM     28  N   UNL     1      47.390   4.515  18.904  0.00  0.00    +0.000 N 
ATOM     29  C   UNL     1      47.263   4.141  17.600  0.00  0.00    +0.000 A 
ATOM     30  O   UNL     1      46.806   3.027  17.309  0.00  0.00    +0.000 OA
ATOM     31  C   UNL     1      47.774   5.102  16.647  0.00  0.00    +0.000 A 
ATOM     32  H   UNL     1      47.060   3.855  19.592  0.00  0.00    +0.000 HD
ENDBRANCH  19  22
ENDBRANCH   1  20
TORSDOF 6
ENDMDL
MODEL 9
REMARK VINA RESULT:    -5.647      2.733      7.393
REMARK INTER + INTRA:          -8.823
REMARK INTER:                  -7.805
REMARK INTRA:                  -1.018
REMARK UNBOUND:                -1.196
REMARK  Name = 
REMARK  6 active torsions:
REMARK  status: ('A' for Active; 'I' for Inactive)
REMARK    1  A    between atoms: C_2  and  C_21
REMARK    2  A    between atoms: N_3  and  C_4
REMARK    3  A    between atoms: C_4  and  C_5
REMARK    4  A    between atoms: N_8  and  C_9
REMARK    5  A    between atoms: C_9  and  C_10
REMARK    6  A    between atoms: C_10  and  C_11
REMARK                            x       y       z     vdW  Elec       q    Type
REMARK                         _______ _______ _______ _____ _____    ______ ____
ROOT
ATOM      1  C   UNL     1      50.609   7.789  14.017  0.00  0.00    +0.000 C 
ENDROOT
BRANCH   1   2
ATOM      2  C   UNL     1      50.705   9.189  13.382  0.00  0.00    +0.000 C 
ATOM      3  C   UNL     1      49.803  10.202  14.099  0.00  0.00    +0.000 C 
ATOM      4  C   UNL     1      48.320   9.927  13.857  0.00  0.00    +0.000 C 
ATOM      5  N   UNL     1      47.990   9.913  12.420  0.00  0.00    +0.000 NA
ATOM      6  C   UNL     1      48.796   8.900  11.712  0.00  0.00    +0.000 C 
ATOM      7  C   UNL     1      50.300   9.149  11.902  0.00  0.00    +0.000 C 
BRANCH   5   8
ATOM      8  C   UNL     1      46.538   9.660  12.233  0.00  0.00    +0.000 C 
BRANCH   8   9
ATOM      9  C   UNL     1      46.090   8.318  12.830  0.00  0.00    +0.000 C 
BRANCH   9  10
ATOM     10  C   UNL     1      45.270   7.492  11.859  0.00  0.00    +0.000 C 
ATOM     11  O   UNL     1      44.339   7.982  11.220  0.00  0.00    +0.000 OA
ATOM     12  N   UNL     1      45.671   6.170  11.693  0.00  0.00    +0.000 N 
ATOM     13  C   UNL     1      45.030   5.361  10.664  0.00  0.00    +0.000 C 
ATOM     14  C   UNL     1      44.250   4.207  11.282  0.00  0.00    +0.000 C 
ATOM     15  C   UNL     1      45.141   3.387  12.215  0.00  0.00    +0.000 C 
ATOM     16  C   UNL     1      45.817   4.282  13.254  0.00  0.00    +0.000 C 
ATOM     17  C   UNL     1      46.563   5.442  12.597  0.00  0.00    +0.000 C 
ENDBRANCH   9  10
ENDBRANCH   8   9
ENDBRANCH   5   8
ENDBRANCH   1   2
BRANCH   1  20
ATOM     18  O   UNL     1      48.595   6.177  15.040  0.00  0.00    +0.000 OA
ATOM     19  C   UNL     1      49.178   6.955  15.805  0.00  0.00    +0.000 C 
ATOM     20  N   UNL     1      50.164   7.812  15.387  0.00  0.00    +0.000 N 
ATOM     21  H   UNL     1      50.793   8.201  16.080  0.00  0.00    +0.000 HD
BRANCH  19  22
ATOM     22  C   UNL     1      48.823   7.040  17.213  0.00  0.00    +0.000 A 
ATOM     23  C   UNL     1      48.307   8.192  17.788  0.00  0.00    +0.000 A 
ATOM     24  S   UNL     1      47.929   7.994  19.448  0.00  0.00    +0.000 S 
ATOM     25  C   UNL     1      48.436   6.370  19.430  0.00  0.00    +0.000 A 
ATOM     26  N   UNL     1      48.372   5.593  20.540  0.00  0.00    +0.000 NA
ATOM     27  C   UNL     1      48.784   4.379  20.369  0.00  0.00    +0.000 A 
ATOM     28  N   UNL     1      49.258   3.873  19.185  0.00  0.00    +0.000 N 
ATOM     29  C   UNL     1      49.404   4.634  18.065  0.00  0.00    +0.000 A 
ATOM     30  O   UNL     1      49.980   4.176  17.068  0.00  0.00    +0.000 OA
ATOM     31  C   UNL     1      48.914   5.989  18.189  0.00  0.00    +0.000 A 
ATOM     32  H   UNL     1      49.609   2.929  19.134  0.00  0.00    +0.000 HD
ENDBRANCH  19  22
ENDBRANCH   1  20
TORSDOF 6
ENDMDL
