MODEL 1
REMARK VINA RESULT:    -8.456      0.000      0.000
REMARK INTER + INTRA:         -14.186
REMARK INTER:                 -12.411
REMARK INTRA:                  -1.775
REMARK UNBOUND:                -1.775
REMARK  Name = 
REMARK  9 active torsions:
REMARK  status: ('A' for Active; 'I' for Inactive)
REMARK    1  A    between atoms: C_1  and  O_2
REMARK    2  A    between atoms: O_2  and  C_3
REMARK    3  A    between atoms: C_10  and  C_11
REMARK    4  A    between atoms: N_13  and  C_14
REMARK    5  A    between atoms: C_14  and  C_15
REMARK    6  A    between atoms: C_18  and  C_19
REMARK    7  A    between atoms: C_19  and  C_20
REMARK    8  A    between atoms: C_20  and  N_21
REMARK    9  A    between atoms: N_21  and  C_22
REMARK                            x       y       z     vdW  Elec       q    Type
REMARK                         _______ _______ _______ _____ _____    ______ ____
ROOT
ATOM      1  C   UNL     1      46.917   8.204  13.150  0.00  0.00    +0.000 C 
ENDROOT
BRANCH   1   2
ATOM      2  C   UNL     1      46.077   7.225  12.374  0.00  0.00    +0.000 A 
ATOM      3  C   UNL     1      44.844   6.812  12.877  0.00  0.00    +0.000 A 
ATOM      4  C   UNL     1      44.115   5.812  12.234  0.00  0.00    +0.000 A 
ATOM      5  C   UNL     1      44.604   5.181  11.076  0.00  0.00    +0.000 A 
ATOM      6  C   UNL     1      45.823   5.628  10.552  0.00  0.00    +0.000 A 
ATOM      7  C   UNL     1      46.552   6.639  11.194  0.00  0.00    +0.000 A 
BRANCH   5   8
ATOM      8  C   UNL     1      43.884   4.025  10.396  0.00  0.00    +0.000 C 
BRANCH   8   9
ATOM      9  C   UNL     1      44.678   2.715  10.423  0.00  0.00    +0.000 C 
BRANCH   9  10
ATOM     10  N   UNL     1      44.539   1.909   9.208  0.00  0.00    +0.000 N 
ATOM     11  H   UNL     1      43.653   2.074   8.734  0.00  0.00    +0.000 HD
BRANCH  10  12
ATOM     12  C   UNL     1      45.620   2.047   8.304  0.00  0.00    +0.000 A 
ATOM     13  C   UNL     1      46.031   3.280   7.780  0.00  0.00    +0.000 A 
ATOM     14  C   UNL     1      47.115   3.364   6.909  0.00  0.00    +0.000 A 
ATOM     15  C   UNL     1      47.802   2.205   6.611  0.00  0.00    +0.000 A 
ATOM     16  N   UNL     1      47.494   1.000   7.129  0.00  0.00    +0.000 NA
ATOM     17  C   UNL     1      46.431   0.957   7.974  0.00  0.00    +0.000 A 
ENDBRANCH  10  12
ENDBRANCH   9  10
ENDBRANCH   8   9
ENDBRANCH   5   8
ENDBRANCH   1   2
BRANCH   1  20
ATOM     18  C   UNL     1      48.582   6.902  14.402  0.00  0.00    +0.000 C 
ATOM     19  O   UNL     1      49.355   6.893  13.447  0.00  0.00    +0.000 OA
ATOM     20  N   UNL     1      47.400   7.592  14.365  0.00  0.00    +0.000 N 
ATOM     21  H   UNL     1      46.739   7.470  15.122  0.00  0.00    +0.000 HD
BRANCH  18  29
ATOM     22  C   UNL     1      47.179   4.251  15.977  0.00  0.00    +0.000 A 
ATOM     23  N   UNL     1      46.777   3.235  16.779  0.00  0.00    +0.000 NA
ATOM     24  C   UNL     1      47.427   2.998  17.926  0.00  0.00    +0.000 A 
ATOM     25  C   UNL     1      48.507   3.728  18.361  0.00  0.00    +0.000 A 
ATOM     26  C   UNL     1      48.922   4.777  17.531  0.00  0.00    +0.000 A 
ATOM     27  S   UNL     1      50.251   5.822  17.837  0.00  0.00    +0.000 S 
ATOM     28  C   UNL     1      50.003   6.668  16.391  0.00  0.00    +0.000 A 
ATOM     29  C   UNL     1      48.909   6.225  15.665  0.00  0.00    +0.000 A 
ATOM     30  C   UNL     1      48.271   5.082  16.326  0.00  0.00    +0.000 A 
BRANCH  22  32
ATOM     31  C   UNL     1      46.910   3.628  13.734  0.00  0.00    +0.000 C 
ATOM     32  O   UNL     1      46.482   4.467  14.803  0.00  0.00    +0.000 OA
ENDBRANCH  22  32
ENDBRANCH  18  29
ENDBRANCH   1  20
TORSDOF 8
ENDMDL
MODEL 2
REMARK VINA RESULT:    -7.660      1.678      1.942
REMARK INTER + INTRA:         -13.017
REMARK INTER:                 -11.773
REMARK INTRA:                  -1.245
REMARK UNBOUND:                -1.775
REMARK  Name = 
REMARK  9 active torsions:
REMARK  status: ('A' for Active; 'I' for Inactive)
REMARK    1  A    between atoms: C_1  and  O_2
REMARK    2  A    between atoms: O_2  and  C_3
REMARK    3  A    between atoms: C_10  and  C_11
REMARK    4  A    between atoms: N_13  and  C_14
REMARK    5  A    between atoms: C_14  and  C_15
REMARK    6  A    between atoms: C_18  and  C_19
REMARK    7  A    between atoms: C_19  and  C_20
REMARK    8  A    between atoms: C_20  and  N_21
REMARK    9  A    between atoms: N_21  and  C_22
REMARK                            x       y       z     vdW  Elec       q    Type
REMARK                         _______ _______ _______ _____ _____    ______ ____
ROOT
ATOM      1  C   UNL     1      47.958   7.205  12.984  0.00  0.00    +0.000 C 
ENDROOT
BRANCH   1   2
ATOM      2  C   UNL     1      46.902   6.202  12.603  0.00  0.00    +0.000 A 
ATOM      3  C   UNL     1      46.645   5.110  13.432  0.00  0.00    +0.000 A 
ATOM      4  C   UNL     1      45.763   4.108  13.031  0.00  0.00    +0.000 A 
ATOM      5  C   UNL     1      45.121   4.156  11.781  0.00  0.00    +0.000 A 
ATOM      6  C   UNL     1      45.350   5.274  10.970  0.00  0.00    +0.000 A 
ATOM      7  C   UNL     1      46.231   6.286  11.377  0.00  0.00    +0.000 A 
BRANCH   5   8
ATOM      8  C   UNL     1      44.222   3.039  11.268  0.00  0.00    +0.000 C 
BRANCH   8   9
ATOM      9  C   UNL     1      44.193   2.937   9.740  0.00  0.00    +0.000 C 
BRANCH   9  10
ATOM     10  N   UNL     1      44.838   1.733   9.211  0.00  0.00    +0.000 N 
ATOM     11  H   UNL     1      44.163   1.050   8.872  0.00  0.00    +0.000 HD
BRANCH  10  12
ATOM     12  C   UNL     1      45.817   1.998   8.222  0.00  0.00    +0.000 A 
ATOM     13  C   UNL     1      46.022   3.267   7.664  0.00  0.00    +0.000 A 
ATOM     14  C   UNL     1      47.013   3.478   6.708  0.00  0.00    +0.000 A 
ATOM     15  C   UNL     1      47.817   2.412   6.358  0.00  0.00    +0.000 A 
ATOM     16  N   UNL     1      47.710   1.185   6.902  0.00  0.00    +0.000 NA
ATOM     17  C   UNL     1      46.732   1.017   7.830  0.00  0.00    +0.000 A 
ENDBRANCH  10  12
ENDBRANCH   9  10
ENDBRANCH   8   9
ENDBRANCH   5   8
ENDBRANCH   1   2
BRANCH   1  20
ATOM     18  C   UNL     1      48.986   7.268  15.213  0.00  0.00    +0.000 C 
ATOM     19  O   UNL     1      50.093   6.989  14.758  0.00  0.00    +0.000 OA
ATOM     20  N   UNL     1      47.904   7.471  14.401  0.00  0.00    +0.000 N 
ATOM     21  H   UNL     1      46.989   7.575  14.823  0.00  0.00    +0.000 HD
BRANCH  18  29
ATOM     22  C   UNL     1      48.665   5.069  17.771  0.00  0.00    +0.000 A 
ATOM     23  N   UNL     1      48.498   4.383  18.927  0.00  0.00    +0.000 NA
ATOM     24  C   UNL     1      48.302   5.049  20.072  0.00  0.00    +0.000 A 
ATOM     25  C   UNL     1      48.259   6.421  20.164  0.00  0.00    +0.000 A 
ATOM     26  C   UNL     1      48.431   7.128  18.968  0.00  0.00    +0.000 A 
ATOM     27  S   UNL     1      48.440   8.839  18.817  0.00  0.00    +0.000 S 
ATOM     28  C   UNL     1      48.718   8.756  17.148  0.00  0.00    +0.000 A 
ATOM     29  C   UNL     1      48.773   7.462  16.655  0.00  0.00    +0.000 A 
ATOM     30  C   UNL     1      48.626   6.483  17.737  0.00  0.00    +0.000 A 
BRANCH  22  32
ATOM     31  C   UNL     1      47.974   3.240  16.479  0.00  0.00    +0.000 C 
ATOM     32  O   UNL     1      48.862   4.346  16.609  0.00  0.00    +0.000 OA
ENDBRANCH  22  32
ENDBRANCH  18  29
ENDBRANCH   1  20
TORSDOF 8
ENDMDL
MODEL 3
REMARK VINA RESULT:    -7.077      2.352      3.637
REMARK INTER + INTRA:         -12.161
REMARK INTER:                 -10.951
REMARK INTRA:                  -1.210
REMARK UNBOUND:                -1.775
REMARK  Name = 
REMARK  9 active torsions:
REMARK  status: ('A' for Active; 'I' for Inactive)
REMARK    1  A    between atoms: C_1  and  O_2
REMARK    2  A    between atoms: O_2  and  C_3
REMARK    3  A    between atoms: C_10  and  C_11
REMARK    4  A    between atoms: N_13  and  C_14
REMARK    5  A    between atoms: C_14  and  C_15
REMARK    6  A    between atoms: C_18  and  C_19
REMARK    7  A    between atoms: C_19  and  C_20
REMARK    8  A    between atoms: C_20  and  N_21
REMARK    9  A    between atoms: N_21  and  C_22
REMARK                            x       y       z     vdW  Elec       q    Type
REMARK                         _______ _______ _______ _____ _____    ______ ____
ROOT
ATOM      1  C   UNL     1      47.569   3.906  15.249  0.00  0.00    +0.000 C 
ENDROOT
BRANCH   1   2
ATOM      2  C   UNL     1      46.772   4.254  14.019  0.00  0.00    +0.000 A 
ATOM      3  C   UNL     1      46.497   5.588  13.721  0.00  0.00    +0.000 A 
ATOM      4  C   UNL     1      45.655   5.918  12.659  0.00  0.00    +0.000 A 
ATOM      5  C   UNL     1      45.048   4.924  11.872  0.00  0.00    +0.000 A 
ATOM      6  C   UNL     1      45.360   3.588  12.150  0.00  0.00    +0.000 A 
ATOM      7  C   UNL     1      46.213   3.256  13.211  0.00  0.00    +0.000 A 
BRANCH   5   8
ATOM      8  C   UNL     1      44.053   5.239  10.763  0.00  0.00    +0.000 C 
BRANCH   8   9
ATOM      9  C   UNL     1      43.829   4.070   9.799  0.00  0.00    +0.000 C 
BRANCH   9  10
ATOM     10  N   UNL     1      44.374   4.290   8.458  0.00  0.00    +0.000 N 
ATOM     11  H   UNL     1      44.794   5.213   8.358  0.00  0.00    +0.000 HD
BRANCH  10  12
ATOM     12  C   UNL     1      45.278   3.284   8.036  0.00  0.00    +0.000 A 
ATOM     13  C   UNL     1      46.256   3.493   7.055  0.00  0.00    +0.000 A 
ATOM     14  C   UNL     1      47.135   2.474   6.691  0.00  0.00    +0.000 A 
ATOM     15  C   UNL     1      47.044   1.268   7.356  0.00  0.00    +0.000 A 
ATOM     16  N   UNL     1      46.167   1.026   8.348  0.00  0.00    +0.000 NA
ATOM     17  C   UNL     1      45.326   2.042   8.675  0.00  0.00    +0.000 A 
ENDBRANCH  10  12
ENDBRANCH   9  10
ENDBRANCH   8   9
ENDBRANCH   5   8
ENDBRANCH   1   2
BRANCH   1  20
ATOM     18  C   UNL     1      48.500   5.232  17.094  0.00  0.00    +0.000 C 
ATOM     19  O   UNL     1      49.588   4.667  17.008  0.00  0.00    +0.000 OA
ATOM     20  N   UNL     1      47.483   4.974  16.216  0.00  0.00    +0.000 N 
ATOM     21  H   UNL     1      46.568   5.368  16.398  0.00  0.00    +0.000 HD
BRANCH  18  29
ATOM     22  C   UNL     1      48.313   8.609  16.880  0.00  0.00    +0.000 A 
ATOM     23  N   UNL     1      48.211   9.951  17.032  0.00  0.00    +0.000 NA
ATOM     24  C   UNL     1      47.974  10.467  18.245  0.00  0.00    +0.000 A 
ATOM     25  C   UNL     1      47.818   9.710  19.383  0.00  0.00    +0.000 A 
ATOM     26  C   UNL     1      47.924   8.323  19.225  0.00  0.00    +0.000 A 
ATOM     27  S   UNL     1      47.750   7.163  20.479  0.00  0.00    +0.000 S 
ATOM     28  C   UNL     1      47.994   5.872  19.410  0.00  0.00    +0.000 A 
ATOM     29  C   UNL     1      48.248   6.268  18.106  0.00  0.00    +0.000 A 
ATOM     30  C   UNL     1      48.186   7.728  17.981  0.00  0.00    +0.000 A 
BRANCH  22  32
ATOM     31  C   UNL     1      47.890   8.840  14.587  0.00  0.00    +0.000 C 
ATOM     32  O   UNL     1      48.561   8.115  15.614  0.00  0.00    +0.000 OA
ENDBRANCH  22  32
ENDBRANCH  18  29
ENDBRANCH   1  20
TORSDOF 8
ENDMDL
MODEL 4
REMARK VINA RESULT:    -6.868      2.633      3.369
REMARK INTER + INTRA:         -11.856
REMARK INTER:                 -10.573
REMARK INTRA:                  -1.283
REMARK UNBOUND:                -1.775
REMARK  Name = 
REMARK  9 active torsions:
REMARK  status: ('A' for Active; 'I' for Inactive)
REMARK    1  A    between atoms: C_1  and  O_2
REMARK    2  A    between atoms: O_2  and  C_3
REMARK    3  A    between atoms: C_10  and  C_11
REMARK    4  A    between atoms: N_13  and  C_14
REMARK    5  A    between atoms: C_14  and  C_15
REMARK    6  A    between atoms: C_18  and  C_19
REMARK    7  A    between atoms: C_19  and  C_20
REMARK    8  A    between atoms: C_20  and  N_21
REMARK    9  A    between atoms: N_21  and  C_22
REMARK                            x       y       z     vdW  Elec       q    Type
REMARK                         _______ _______ _______ _____ _____    ______ ____
ROOT
ATOM      1  C   UNL     1      47.781   4.811  14.961  0.00  0.00    +0.000 C 
ENDROOT
BRANCH   1   2
ATOM      2  C   UNL     1      46.836   4.879  13.790  0.00  0.00    +0.000 A 
ATOM      3  C   UNL     1      46.427   6.117  13.296  0.00  0.00    +0.000 A 
ATOM      4  C   UNL     1      45.455   6.196  12.298  0.00  0.00    +0.000 A 
ATOM      5  C   UNL     1      44.851   5.040  11.775  0.00  0.00    +0.000 A 
ATOM      6  C   UNL     1      45.295   3.798  12.245  0.00  0.00    +0.000 A 
ATOM      7  C   UNL     1      46.277   3.719  13.241  0.00  0.00    +0.000 A 
BRANCH   5   8
ATOM      8  C   UNL     1      43.724   5.087  10.751  0.00  0.00    +0.000 C 
BRANCH   8   9
ATOM      9  C   UNL     1      43.917   4.106   9.591  0.00  0.00    +0.000 C 
BRANCH   9  10
ATOM     10  N   UNL     1      44.973   4.493   8.653  0.00  0.00    +0.000 N 
ATOM     11  H   UNL     1      45.611   5.181   9.050  0.00  0.00    +0.000 HD
BRANCH  10  12
ATOM     12  C   UNL     1      45.695   3.396   8.121  0.00  0.00    +0.000 A 
ATOM     13  C   UNL     1      46.649   3.525   7.103  0.00  0.00    +0.000 A 
ATOM     14  C   UNL     1      47.346   2.415   6.630  0.00  0.00    +0.000 A 
ATOM     15  C   UNL     1      47.104   1.193   7.222  0.00  0.00    +0.000 A 
ATOM     16  N   UNL     1      46.246   1.015   8.245  0.00  0.00    +0.000 NA
ATOM     17  C   UNL     1      45.584   2.119   8.679  0.00  0.00    +0.000 A 
ENDBRANCH  10  12
ENDBRANCH   9  10
ENDBRANCH   8   9
ENDBRANCH   5   8
ENDBRANCH   1   2
BRANCH   1  20
ATOM     18  C   UNL     1      48.889   6.823  15.830  0.00  0.00    +0.000 C 
ATOM     19  O   UNL     1      49.928   6.563  15.228  0.00  0.00    +0.000 OA
ATOM     20  N   UNL     1      47.764   6.057  15.688  0.00  0.00    +0.000 N 
ATOM     21  H   UNL     1      46.972   6.233  16.295  0.00  0.00    +0.000 HD
BRANCH  18  29
ATOM     22  C   UNL     1      47.883   7.200  19.043  0.00  0.00    +0.000 A 
ATOM     23  N   UNL     1      47.511   7.583  20.288  0.00  0.00    +0.000 NA
ATOM     24  C   UNL     1      47.565   8.878  20.628  0.00  0.00    +0.000 A 
ATOM     25  C   UNL     1      47.986   9.876  19.782  0.00  0.00    +0.000 A 
ATOM     26  C   UNL     1      48.370   9.478  18.495  0.00  0.00    +0.000 A 
ATOM     27  S   UNL     1      48.950  10.524  17.262  0.00  0.00    +0.000 S 
ATOM     28  C   UNL     1      49.162   9.238  16.180  0.00  0.00    +0.000 A 
ATOM     29  C   UNL     1      48.773   8.009  16.690  0.00  0.00    +0.000 A 
ATOM     30  C   UNL     1      48.321   8.139  18.079  0.00  0.00    +0.000 A 
BRANCH  22  32
ATOM     31  C   UNL     1      48.922   5.106  19.211  0.00  0.00    +0.000 C 
ATOM     32  O   UNL     1      47.810   5.856  18.729  0.00  0.00    +0.000 OA
ENDBRANCH  22  32
ENDBRANCH  18  29
ENDBRANCH   1  20
TORSDOF 8
ENDMDL
MODEL 5
REMARK VINA RESULT:    -6.847      2.059      2.706
REMARK INTER + INTRA:         -11.824
REMARK INTER:                 -10.489
REMARK INTRA:                  -1.335
REMARK UNBOUND:                -1.775
REMARK  Name = 
REMARK  9 active torsions:
REMARK  status: ('A' for Active; 'I' for Inactive)
REMARK    1  A    between atoms: C_1  and  O_2
REMARK    2  A    between atoms: O_2  and  C_3
REMARK    3  A    between atoms: C_10  and  C_11
REMARK    4  A    between atoms: N_13  and  C_14
REMARK    5  A    between atoms: C_14  and  C_15
REMARK    6  A    between atoms: C_18  and  C_19
REMARK    7  A    between atoms: C_19  and  C_20
REMARK    8  A    between atoms: C_20  and  N_21
REMARK    9  A    between atoms: N_21  and  C_22
REMARK                            x       y       z     vdW  Elec       q    Type
REMARK                         _______ _______ _______ _____ _____    ______ ____
ROOT
ATOM      1  C   UNL     1      48.545   7.386  13.041  0.00  0.00    +0.000 C 
ENDROOT
BRANCH   1   2
ATOM      2  C   UNL     1      47.552   6.298  12.725  0.00  0.00    +0.000 A 
ATOM      3  C   UNL     1      46.610   6.486  11.714  0.00  0.00    +0.000 A 
ATOM      4  C   UNL     1      45.605   5.543  11.497  0.00  0.00    +0.000 A 
ATOM      5  C   UNL     1      45.501   4.391  12.295  0.00  0.00    +0.000 A 
ATOM      6  C   UNL     1      46.473   4.187  13.282  0.00  0.00    +0.000 A 
ATOM      7  C   UNL     1      47.487   5.130  13.494  0.00  0.00    +0.000 A 
BRANCH   5   8
ATOM      8  C   UNL     1      44.368   3.383  12.150  0.00  0.00    +0.000 C 
BRANCH   8   9
ATOM      9  C   UNL     1      43.791   3.318  10.733  0.00  0.00    +0.000 C 
BRANCH   9  10
ATOM     10  N   UNL     1      44.277   2.185   9.943  0.00  0.00    +0.000 N 
ATOM     11  H   UNL     1      43.517   1.633   9.550  0.00  0.00    +0.000 HD
BRANCH  10  12
ATOM     12  C   UNL     1      45.202   2.547   8.933  0.00  0.00    +0.000 A 
ATOM     13  C   UNL     1      46.071   1.633   8.323  0.00  0.00    +0.000 A 
ATOM     14  C   UNL     1      46.948   2.038   7.320  0.00  0.00    +0.000 A 
ATOM     15  C   UNL     1      46.906   3.355   6.910  0.00  0.00    +0.000 A 
ATOM     16  N   UNL     1      46.052   4.266   7.414  0.00  0.00    +0.000 NA
ATOM     17  C   UNL     1      45.213   3.835   8.391  0.00  0.00    +0.000 A 
ENDBRANCH  10  12
ENDBRANCH   9  10
ENDBRANCH   8   9
ENDBRANCH   5   8
ENDBRANCH   1   2
BRANCH   1  20
ATOM     18  C   UNL     1      50.090   7.775  14.909  0.00  0.00    +0.000 C 
ATOM     19  O   UNL     1      49.737   8.948  15.013  0.00  0.00    +0.000 OA
ATOM     20  N   UNL     1      49.497   6.920  14.020  0.00  0.00    +0.000 N 
ATOM     21  H   UNL     1      49.902   6.003  13.880  0.00  0.00    +0.000 HD
BRANCH  18  29
ATOM     22  C   UNL     1      49.984   5.344  17.266  0.00  0.00    +0.000 A 
ATOM     23  N   UNL     1      50.171   4.425  18.244  0.00  0.00    +0.000 NA
ATOM     24  C   UNL     1      51.387   4.267  18.783  0.00  0.00    +0.000 A 
ATOM     25  C   UNL     1      52.495   4.987  18.402  0.00  0.00    +0.000 A 
ATOM     26  C   UNL     1      52.300   5.936  17.391  0.00  0.00    +0.000 A 
ATOM     27  S   UNL     1      53.520   6.946  16.726  0.00  0.00    +0.000 S 
ATOM     28  C   UNL     1      52.430   7.664  15.648  0.00  0.00    +0.000 A 
ATOM     29  C   UNL     1      51.129   7.204  15.778  0.00  0.00    +0.000 A 
ATOM     30  C   UNL     1      51.046   6.156  16.800  0.00  0.00    +0.000 A 
BRANCH  22  32
ATOM     31  C   UNL     1      47.807   4.479  17.190  0.00  0.00    +0.000 C 
ATOM     32  O   UNL     1      48.714   5.480  16.737  0.00  0.00    +0.000 OA
ENDBRANCH  22  32
ENDBRANCH  18  29
ENDBRANCH   1  20
TORSDOF 8
ENDMDL
MODEL 6
REMARK VINA RESULT:    -6.442      2.425      3.582
REMARK INTER + INTRA:         -11.230
REMARK INTER:                 -10.015
REMARK INTRA:                  -1.215
REMARK UNBOUND:                -1.775
REMARK  Name = 
REMARK  9 active torsions:
REMARK  status: ('A' for Active; 'I' for Inactive)
REMARK    1  A    between atoms: C_1  and  O_2
REMARK    2  A    between atoms: O_2  and  C_3
REMARK    3  A    between atoms: C_10  and  C_11
REMARK    4  A    between atoms: N_13  and  C_14
REMARK    5  A    between atoms: C_14  and  C_15
REMARK    6  A    between atoms: C_18  and  C_19
REMARK    7  A    between atoms: C_19  and  C_20
REMARK    8  A    between atoms: C_20  and  N_21
REMARK    9  A    between atoms: N_21  and  C_22
REMARK                            x       y       z     vdW  Elec       q    Type
REMARK                         _______ _______ _______ _____ _____    ______ ____
ROOT
ATOM      1  C   UNL     1      46.224   8.113  13.005  0.00  0.00    +0.000 C 
ENDROOT
BRANCH   1   2
ATOM      2  C   UNL     1      45.740   6.824  12.396  0.00  0.00    +0.000 A 
ATOM      3  C   UNL     1      44.696   6.839  11.471  0.00  0.00    +0.000 A 
ATOM      4  C   UNL     1      44.153   5.645  10.996  0.00  0.00    +0.000 A 
ATOM      5  C   UNL     1      44.625   4.399  11.445  0.00  0.00    +0.000 A 
ATOM      6  C   UNL     1      45.700   4.389  12.342  0.00  0.00    +0.000 A 
ATOM      7  C   UNL     1      46.251   5.589  12.812  0.00  0.00    +0.000 A 
BRANCH   5   8
ATOM      8  C   UNL     1      44.000   3.076  11.021  0.00  0.00    +0.000 C 
BRANCH   8   9
ATOM      9  C   UNL     1      44.270   2.719   9.556  0.00  0.00    +0.000 C 
BRANCH   9  10
ATOM     10  N   UNL     1      45.414   1.825   9.362  0.00  0.00    +0.000 N 
ATOM     11  H   UNL     1      45.160   0.844   9.460  0.00  0.00    +0.000 HD
BRANCH  10  12
ATOM     12  C   UNL     1      46.105   2.040   8.144  0.00  0.00    +0.000 A 
ATOM     13  C   UNL     1      46.065   3.251   7.441  0.00  0.00    +0.000 A 
ATOM     14  C   UNL     1      46.780   3.417   6.256  0.00  0.00    +0.000 A 
ATOM     15  C   UNL     1      47.564   2.370   5.818  0.00  0.00    +0.000 A 
ATOM     16  N   UNL     1      47.692   1.204   6.480  0.00  0.00    +0.000 NA
ATOM     17  C   UNL     1      46.980   1.079   7.630  0.00  0.00    +0.000 A 
ENDBRANCH  10  12
ENDBRANCH   9  10
ENDBRANCH   8   9
ENDBRANCH   5   8
ENDBRANCH   1   2
BRANCH   1  20
ATOM     18  C   UNL     1      48.413   9.222  13.115  0.00  0.00    +0.000 C 
ATOM     19  O   UNL     1      47.898  10.337  13.081  0.00  0.00    +0.000 OA
ATOM     20  N   UNL     1      47.659   8.081  13.162  0.00  0.00    +0.000 N 
ATOM     21  H   UNL     1      48.120   7.185  13.063  0.00  0.00    +0.000 HD
BRANCH  18  29
ATOM     22  C   UNL     1      50.425   7.679  15.362  0.00  0.00    +0.000 A 
ATOM     23  N   UNL     1      51.408   7.143  16.125  0.00  0.00    +0.000 NA
ATOM     24  C   UNL     1      52.686   7.268  15.745  0.00  0.00    +0.000 A 
ATOM     25  C   UNL     1      53.087   7.916  14.601  0.00  0.00    +0.000 A 
ATOM     26  C   UNL     1      52.070   8.469  13.813  0.00  0.00    +0.000 A 
ATOM     27  S   UNL     1      52.303   9.308  12.332  0.00  0.00    +0.000 S 
ATOM     28  C   UNL     1      50.639   9.548  12.130  0.00  0.00    +0.000 A 
ATOM     29  C   UNL     1      49.872   9.049  13.170  0.00  0.00    +0.000 A 
ATOM     30  C   UNL     1      50.715   8.382  14.168  0.00  0.00    +0.000 A 
BRANCH  22  32
ATOM     31  C   UNL     1      48.740   6.172  15.981  0.00  0.00    +0.000 C 
ATOM     32  O   UNL     1      49.119   7.532  15.789  0.00  0.00    +0.000 OA
ENDBRANCH  22  32
ENDBRANCH  18  29
ENDBRANCH   1  20
TORSDOF 8
ENDMDL
MODEL 7
REMARK VINA RESULT:    -6.140      2.502      4.058
REMARK INTER + INTRA:         -10.787
REMARK INTER:                  -9.712
REMARK INTRA:                  -1.075
REMARK UNBOUND:                -1.775
REMARK  Name = 
REMARK  9 active torsions:
REMARK  status: ('A' for Active; 'I' for Inactive)
REMARK    1  A    between atoms: C_1  and  O_2
REMARK    2  A    between atoms: O_2  and  C_3
REMARK    3  A    between atoms: C_10  and  C_11
REMARK    4  A    between atoms: N_13  and  C_14
REMARK    5  A    between atoms: C_14  and  C_15
REMARK    6  A    between atoms: C_18  and  C_19
REMARK    7  A    between atoms: C_19  and  C_20
REMARK    8  A    between atoms: C_20  and  N_21
REMARK    9  A    between atoms: N_21  and  C_22
REMARK                            x       y       z     vdW  Elec       q    Type
REMARK                         _______ _______ _______ _____ _____    ______ ____
ROOT
ATOM      1  C   UNL     1      47.526   5.096  14.836  0.00  0.00    +0.000 C 
ENDROOT
BRANCH   1   2
ATOM      2  C   UNL     1      46.463   4.791  13.813  0.00  0.00    +0.000 A 
ATOM      3  C   UNL     1      46.340   3.500  13.299  0.00  0.00    +0.000 A 
ATOM      4  C   UNL     1      45.448   3.233  12.261  0.00  0.00    +0.000 A 
ATOM      5  C   UNL     1      44.663   4.251  11.692  0.00  0.00    +0.000 A 
ATOM      6  C   UNL     1      44.761   5.536  12.239  0.00  0.00    +0.000 A 
ATOM      7  C   UNL     1      45.651   5.803  13.288  0.00  0.00    +0.000 A 
BRANCH   5   8
ATOM      8  C   UNL     1      43.745   4.020  10.499  0.00  0.00    +0.000 C 
BRANCH   8   9
ATOM      9  C   UNL     1      44.344   4.493   9.172  0.00  0.00    +0.000 C 
BRANCH   9  10
ATOM     10  N   UNL     1      44.157   3.554   8.064  0.00  0.00    +0.000 N 
ATOM     11  H   UNL     1      43.751   3.999   7.243  0.00  0.00    +0.000 HD
BRANCH  10  12
ATOM     12  C   UNL     1      45.331   2.842   7.714  0.00  0.00    +0.000 A 
ATOM     13  C   UNL     1      46.318   3.359   6.865  0.00  0.00    +0.000 A 
ATOM     14  C   UNL     1      47.465   2.625   6.569  0.00  0.00    +0.000 A 
ATOM     15  C   UNL     1      47.623   1.394   7.171  0.00  0.00    +0.000 A 
ATOM     16  N   UNL     1      46.740   0.870   8.043  0.00  0.00    +0.000 NA
ATOM     17  C   UNL     1      45.634   1.613   8.307  0.00  0.00    +0.000 A 
ENDBRANCH  10  12
ENDBRANCH   9  10
ENDBRANCH   8   9
ENDBRANCH   5   8
ENDBRANCH   1   2
BRANCH   1  20
ATOM     18  C   UNL     1      48.706   7.089  14.020  0.00  0.00    +0.000 C 
ATOM     19  O   UNL     1      49.228   6.458  13.104  0.00  0.00    +0.000 OA
ATOM     20  N   UNL     1      47.796   6.513  14.864  0.00  0.00    +0.000 N 
ATOM     21  H   UNL     1      47.487   7.032  15.677  0.00  0.00    +0.000 HD
BRANCH  18  29
ATOM     22  C   UNL     1      49.985   8.796  16.652  0.00  0.00    +0.000 A 
ATOM     23  N   UNL     1      50.455   9.672  17.572  0.00  0.00    +0.000 NA
ATOM     24  C   UNL     1      50.499  10.979  17.283  0.00  0.00    +0.000 A 
ATOM     25  C   UNL     1      50.093  11.514  16.083  0.00  0.00    +0.000 A 
ATOM     26  C   UNL     1      49.608  10.606  15.132  0.00  0.00    +0.000 A 
ATOM     27  S   UNL     1      49.061  11.015  13.556  0.00  0.00    +0.000 S 
ATOM     28  C   UNL     1      48.731   9.397  13.180  0.00  0.00    +0.000 A 
ATOM     29  C   UNL     1      48.980   8.519  14.223  0.00  0.00    +0.000 A 
ATOM     30  C   UNL     1      49.525   9.228  15.385  0.00  0.00    +0.000 A 
BRANCH  22  32
ATOM     31  C   UNL     1      51.182   6.783  16.731  0.00  0.00    +0.000 C 
ATOM     32  O   UNL     1      49.953   7.456  16.988  0.00  0.00    +0.000 OA
ENDBRANCH  22  32
ENDBRANCH  18  29
ENDBRANCH   1  20
TORSDOF 8
ENDMDL
MODEL 8
REMARK VINA RESULT:    -5.689      3.468      7.708
REMARK INTER + INTRA:         -10.125
REMARK INTER:                  -8.555
REMARK INTRA:                  -1.570
REMARK UNBOUND:                -1.775
REMARK  Name = 
REMARK  9 active torsions:
REMARK  status: ('A' for Active; 'I' for Inactive)
REMARK    1  A    between atoms: C_1  and  O_2
REMARK    2  A    between atoms: O_2  and  C_3
REMARK    3  A    between atoms: C_10  and  C_11
REMARK    4  A    between atoms: N_13  and  C_14
REMARK    5  A    between atoms: C_14  and  C_15
REMARK    6  A    between atoms: C_18  and  C_19
REMARK    7  A    between atoms: C_19  and  C_20
REMARK    8  A    between atoms: C_20  and  N_21
REMARK    9  A    between atoms: N_21  and  C_22
REMARK                            x       y       z     vdW  Elec       q    Type
REMARK                         _______ _______ _______ _____ _____    ______ ____
ROOT
ATOM      1  C   UNL     1      48.067   8.911  14.464  0.00  0.00    +0.000 C 
ENDROOT
BRANCH   1   2
ATOM      2  C   UNL     1      48.706   8.235  15.649  0.00  0.00    +0.000 A 
ATOM      3  C   UNL     1      48.360   8.625  16.943  0.00  0.00    +0.000 A 
ATOM      4  C   UNL     1      49.035   8.099  18.045  0.00  0.00    +0.000 A 
ATOM      5  C   UNL     1      50.088   7.181  17.887  0.00  0.00    +0.000 A 
ATOM      6  C   UNL     1      50.404   6.763  16.589  0.00  0.00    +0.000 A 
ATOM      7  C   UNL     1      49.720   7.285  15.482  0.00  0.00    +0.000 A 
BRANCH   5   8
ATOM      8  C   UNL     1      50.909   6.654  19.057  0.00  0.00    +0.000 C 
BRANCH   8   9
ATOM      9  C   UNL     1      51.749   5.423  18.702  0.00  0.00    +0.000 C 
BRANCH   9  10
ATOM     10  N   UNL     1      51.249   4.174  19.281  0.00  0.00    +0.000 N 
ATOM     11  H   UNL     1      50.833   4.312  20.200  0.00  0.00    +0.000 HD
BRANCH  10  12
ATOM     12  C   UNL     1      50.360   3.468  18.434  0.00  0.00    +0.000 A 
ATOM     13  C   UNL     1      48.968   3.618  18.486  0.00  0.00    +0.000 A 
ATOM     14  C   UNL     1      48.138   2.914  17.616  0.00  0.00    +0.000 A 
ATOM     15  C   UNL     1      48.727   2.100  16.670  0.00  0.00    +0.000 A 
ATOM     16  N   UNL     1      50.059   1.961  16.530  0.00  0.00    +0.000 NA
ATOM     17  C   UNL     1      50.836   2.661  17.397  0.00  0.00    +0.000 A 
ENDBRANCH  10  12
ENDBRANCH   9  10
ENDBRANCH   8   9
ENDBRANCH   5   8
ENDBRANCH   1   2
BRANCH   1  20
ATOM     18  C   UNL     1      46.825   7.921  12.591  0.00  0.00    +0.000 C 
ATOM     19  O   UNL     1      47.640   8.340  11.772  0.00  0.00    +0.000 OA
ATOM     20  N   UNL     1      47.004   8.089  13.937  0.00  0.00    +0.000 N 
ATOM     21  H   UNL     1      46.250   7.840  14.565  0.00  0.00    +0.000 HD
BRANCH  18  29
ATOM     22  C   UNL     1      46.017   4.646  12.902  0.00  0.00    +0.000 A 
ATOM     23  N   UNL     1      45.499   3.394  12.902  0.00  0.00    +0.000 NA
ATOM     24  C   UNL     1      44.301   3.171  12.345  0.00  0.00    +0.000 A 
ATOM     25  C   UNL     1      43.533   4.149  11.760  0.00  0.00    +0.000 A 
ATOM     26  C   UNL     1      44.069   5.443  11.760  0.00  0.00    +0.000 A 
ATOM     27  S   UNL     1      43.305   6.838  11.112  0.00  0.00    +0.000 S 
ATOM     28  C   UNL     1      44.594   7.837  11.567  0.00  0.00    +0.000 A 
ATOM     29  C   UNL     1      45.639   7.159  12.175  0.00  0.00    +0.000 A 
ATOM     30  C   UNL     1      45.326   5.733  12.315  0.00  0.00    +0.000 A 
BRANCH  22  32
ATOM     31  C   UNL     1      47.232   4.736  14.903  0.00  0.00    +0.000 C 
ATOM     32  O   UNL     1      47.256   4.836  13.483  0.00  0.00    +0.000 OA
ENDBRANCH  22  32
ENDBRANCH  18  29
ENDBRANCH   1  20
TORSDOF 8
ENDMDL
