MODEL 1
REMARK VINA RESULT:    -8.250      0.000      0.000
REMARK INTER + INTRA:         -13.854
REMARK INTER:                 -12.590
REMARK INTRA:                  -1.263
REMARK UNBOUND:                -1.263
REMARK  Name = 
REMARK  10 active torsions:
REMARK  status: ('A' for Active; 'I' for Inactive)
REMARK    1  A    between atoms: C_1  and  C_2
REMARK    2  A    between atoms: C_2  and  O_3
REMARK    3  A    between atoms: O_3  and  C_4
REMARK    4  A    between atoms: C_6  and  C_7
REMARK    5  A    between atoms: C_7  and  N_8
REMARK    6  A    between atoms: C_9  and  C_11
REMARK    7  A    between atoms: C_23  and  C_24
REMARK    8  A    between atoms: C_24  and  N_25
REMARK    9  A    between atoms: N_25  and  C_26
REMARK   10  A    between atoms: C_26  and  C_27
REMARK                            x       y       z     vdW  Elec       q    Type
REMARK                         _______ _______ _______ _____ _____    ______ ____
ROOT
ATOM      1  C   UNL     1      45.244   5.140  11.638  0.00  0.00    +0.000 A 
ATOM      2  C   UNL     1      46.271   5.902  12.196  0.00  0.00    +0.000 A 
ATOM      3  C   UNL     1      47.077   5.388  13.210  0.00  0.00    +0.000 A 
ATOM      4  C   UNL     1      46.849   4.080  13.604  0.00  0.00    +0.000 A 
ATOM      5  N   UNL     1      45.879   3.296  13.084  0.00  0.00    +0.000 NA
ATOM      6  C   UNL     1      45.081   3.832  12.110  0.00  0.00    +0.000 A 
ENDROOT
BRANCH   1   7
ATOM      7  O   UNL     1      44.393   5.605  10.668  0.00  0.00    +0.000 OA
BRANCH   7   9
ATOM      8  C   UNL     1      42.273   5.859  11.785  0.00  0.00    +0.000 C 
ATOM      9  C   UNL     1      43.426   6.566  11.104  0.00  0.00    +0.000 C 
ENDBRANCH   7   9
ENDBRANCH   1   7
BRANCH   3  10
ATOM     10  C   UNL     1      48.152   6.237  13.815  0.00  0.00    +0.000 C 
BRANCH  10  11
ATOM     11  N   UNL     1      47.957   6.411  15.231  0.00  0.00    +0.000 N 
ATOM     12  C   UNL     1      48.990   6.437  16.134  0.00  0.00    +0.000 C 
ATOM     13  O   UNL     1      50.161   6.299  15.798  0.00  0.00    +0.000 OA
ATOM     14  H   UNL     1      47.005   6.327  15.568  0.00  0.00    +0.000 HD
BRANCH  12  15
ATOM     15  C   UNL     1      48.615   6.714  17.529  0.00  0.00    +0.000 A 
ATOM     16  C   UNL     1      48.279   8.008  17.904  0.00  0.00    +0.000 A 
ATOM     17  S   UNL     1      47.827   8.151  19.543  0.00  0.00    +0.000 S 
ATOM     18  C   UNL     1      48.116   6.497  19.824  0.00  0.00    +0.000 A 
ATOM     19  N   UNL     1      47.947   5.958  21.060  0.00  0.00    +0.000 NA
ATOM     20  C   UNL     1      48.231   4.701  21.139  0.00  0.00    +0.000 A 
ATOM     21  N   UNL     1      48.653   3.931  20.087  0.00  0.00    +0.000 N 
ATOM     22  C   UNL     1      48.777   4.417  18.810  0.00  0.00    +0.000 A 
ATOM     23  O   UNL     1      49.048   3.676  17.869  0.00  0.00    +0.000 OA
ATOM     24  C   UNL     1      48.516   5.837  18.675  0.00  0.00    +0.000 A 
ATOM     25  H   UNL     1      48.833   2.942  20.210  0.00  0.00    +0.000 HD
ENDBRANCH  12  15
ENDBRANCH  10  11
ENDBRANCH   3  10
BRANCH   6  26
ATOM     26  C   UNL     1      44.008   2.909  11.561  0.00  0.00    +0.000 C 
BRANCH  26  27
ATOM     27  N   UNL     1      43.920   2.880  10.091  0.00  0.00    +0.000 NA
ATOM     28  H   UNL     1      44.455   3.681   9.746  0.00  0.00    +0.000 HD
BRANCH  27  29
ATOM     29  C   UNL     1      44.536   1.673   9.520  0.00  0.00    +0.000 C 
BRANCH  29  30
ATOM     30  C   UNL     1      45.576   2.039   8.475  0.00  0.00    +0.000 A 
ATOM     31  C   UNL     1      45.677   3.357   8.031  0.00  0.00    +0.000 A 
ATOM     32  C   UNL     1      46.687   3.693   7.135  0.00  0.00    +0.000 A 
ATOM     33  C   UNL     1      47.565   2.708   6.702  0.00  0.00    +0.000 A 
ATOM     34  C   UNL     1      47.390   1.420   7.181  0.00  0.00    +0.000 A 
ATOM     35  N   UNL     1      46.420   1.063   8.050  0.00  0.00    +0.000 NA
ENDBRANCH  29  30
ENDBRANCH  27  29
ENDBRANCH  26  27
ENDBRANCH   6  26
TORSDOF 9
ENDMDL
MODEL 2
REMARK VINA RESULT:    -8.016      1.418      2.164
REMARK INTER + INTRA:         -13.497
REMARK INTER:                 -12.151
REMARK INTRA:                  -1.346
REMARK UNBOUND:                -1.263
REMARK  Name = 
REMARK  10 active torsions:
REMARK  status: ('A' for Active; 'I' for Inactive)
REMARK    1  A    between atoms: C_1  and  C_2
REMARK    2  A    between atoms: C_2  and  O_3
REMARK    3  A    between atoms: O_3  and  C_4
REMARK    4  A    between atoms: C_6  and  C_7
REMARK    5  A    between atoms: C_7  and  N_8
REMARK    6  A    between atoms: C_9  and  C_11
REMARK    7  A    between atoms: C_23  and  C_24
REMARK    8  A    between atoms: C_24  and  N_25
REMARK    9  A    between atoms: N_25  and  C_26
REMARK   10  A    between atoms: C_26  and  C_27
REMARK                            x       y       z     vdW  Elec       q    Type
REMARK                         _______ _______ _______ _____ _____    ______ ____
ROOT
ATOM      1  C   UNL     1      45.525   5.277  11.860  0.00  0.00    +0.000 A 
ATOM      2  C   UNL     1      46.514   6.010  12.518  0.00  0.00    +0.000 A 
ATOM      3  C   UNL     1      47.264   5.443  13.547  0.00  0.00    +0.000 A 
ATOM      4  C   UNL     1      47.019   4.115  13.856  0.00  0.00    +0.000 A 
ATOM      5  N   UNL     1      46.085   3.358  13.238  0.00  0.00    +0.000 NA
ATOM      6  C   UNL     1      45.342   3.945  12.250  0.00  0.00    +0.000 A 
ENDROOT
BRANCH   1   7
ATOM      7  O   UNL     1      44.730   5.793  10.869  0.00  0.00    +0.000 OA
BRANCH   7   9
ATOM      8  C   UNL     1      42.455   5.973  11.643  0.00  0.00    +0.000 C 
ATOM      9  C   UNL     1      43.727   6.719  11.301  0.00  0.00    +0.000 C 
ENDBRANCH   7   9
ENDBRANCH   1   7
BRANCH   3  10
ATOM     10  C   UNL     1      48.297   6.259  14.259  0.00  0.00    +0.000 C 
BRANCH  10  11
ATOM     11  N   UNL     1      47.970   6.434  15.650  0.00  0.00    +0.000 N 
ATOM     12  C   UNL     1      48.766   5.981  16.671  0.00  0.00    +0.000 C 
ATOM     13  O   UNL     1      49.815   5.378  16.471  0.00  0.00    +0.000 OA
ATOM     14  H   UNL     1      47.027   6.743  15.855  0.00  0.00    +0.000 HD
BRANCH  12  15
ATOM     15  C   UNL     1      48.323   6.326  18.031  0.00  0.00    +0.000 A 
ATOM     16  C   UNL     1      48.202   5.326  18.988  0.00  0.00    +0.000 A 
ATOM     17  S   UNL     1      47.723   5.899  20.521  0.00  0.00    +0.000 S 
ATOM     18  C   UNL     1      47.608   7.498  19.949  0.00  0.00    +0.000 A 
ATOM     19  N   UNL     1      47.208   8.506  20.768  0.00  0.00    +0.000 NA
ATOM     20  C   UNL     1      47.135   9.662  20.197  0.00  0.00    +0.000 A 
ATOM     21  N   UNL     1      47.444   9.903  18.884  0.00  0.00    +0.000 N 
ATOM     22  C   UNL     1      47.911   8.928  18.038  0.00  0.00    +0.000 A 
ATOM     23  O   UNL     1      48.286   9.199  16.899  0.00  0.00    +0.000 OA
ATOM     24  C   UNL     1      47.966   7.600  18.616  0.00  0.00    +0.000 A 
ATOM     25  H   UNL     1      47.392  10.839  18.503  0.00  0.00    +0.000 HD
ENDBRANCH  12  15
ENDBRANCH  10  11
ENDBRANCH   3  10
BRANCH   6  26
ATOM     26  C   UNL     1      44.308   3.051  11.590  0.00  0.00    +0.000 C 
BRANCH  26  27
ATOM     27  N   UNL     1      44.252   3.160  10.123  0.00  0.00    +0.000 NA
ATOM     28  H   UNL     1      44.978   3.827   9.847  0.00  0.00    +0.000 HD
BRANCH  27  29
ATOM     29  C   UNL     1      44.564   1.886   9.458  0.00  0.00    +0.000 C 
BRANCH  29  30
ATOM     30  C   UNL     1      45.634   2.077   8.397  0.00  0.00    +0.000 A 
ATOM     31  C   UNL     1      45.838   3.339   7.837  0.00  0.00    +0.000 A 
ATOM     32  C   UNL     1      46.875   3.516   6.928  0.00  0.00    +0.000 A 
ATOM     33  C   UNL     1      47.679   2.433   6.596  0.00  0.00    +0.000 A 
ATOM     34  C   UNL     1      47.405   1.210   7.186  0.00  0.00    +0.000 A 
ATOM     35  N   UNL     1      46.405   1.007   8.072  0.00  0.00    +0.000 NA
ENDBRANCH  29  30
ENDBRANCH  27  29
ENDBRANCH  26  27
ENDBRANCH   6  26
TORSDOF 9
ENDMDL
MODEL 3
REMARK VINA RESULT:    -7.894      2.049      2.974
REMARK INTER + INTRA:         -13.311
REMARK INTER:                 -11.797
REMARK INTRA:                  -1.514
REMARK UNBOUND:                -1.263
REMARK  Name = 
REMARK  10 active torsions:
REMARK  status: ('A' for Active; 'I' for Inactive)
REMARK    1  A    between atoms: C_1  and  C_2
REMARK    2  A    between atoms: C_2  and  O_3
REMARK    3  A    between atoms: O_3  and  C_4
REMARK    4  A    between atoms: C_6  and  C_7
REMARK    5  A    between atoms: C_7  and  N_8
REMARK    6  A    between atoms: C_9  and  C_11
REMARK    7  A    between atoms: C_23  and  C_24
REMARK    8  A    between atoms: C_24  and  N_25
REMARK    9  A    between atoms: N_25  and  C_26
REMARK   10  A    between atoms: C_26  and  C_27
REMARK                            x       y       z     vdW  Elec       q    Type
REMARK                         _______ _______ _______ _____ _____    ______ ____
ROOT
ATOM      1  C   UNL     1      45.452   5.133  12.922  0.00  0.00    +0.000 A 
ATOM      2  C   UNL     1      45.973   6.370  13.304  0.00  0.00    +0.000 A 
ATOM      3  C   UNL     1      45.685   7.526  12.580  0.00  0.00    +0.000 A 
ATOM      4  C   UNL     1      44.829   7.403  11.499  0.00  0.00    +0.000 A 
ATOM      5  N   UNL     1      44.286   6.232  11.097  0.00  0.00    +0.000 NA
ATOM      6  C   UNL     1      44.605   5.106  11.807  0.00  0.00    +0.000 A 
ENDROOT
BRANCH   1   7
ATOM      7  O   UNL     1      45.731   3.958  13.570  0.00  0.00    +0.000 OA
BRANCH   7   9
ATOM      8  C   UNL     1      47.248   3.717  15.427  0.00  0.00    +0.000 C 
ATOM      9  C   UNL     1      47.105   3.757  13.921  0.00  0.00    +0.000 C 
ENDBRANCH   7   9
ENDBRANCH   1   7
BRANCH   3  10
ATOM     10  C   UNL     1      46.282   8.836  12.992  0.00  0.00    +0.000 C 
BRANCH  10  11
ATOM     11  N   UNL     1      46.871   8.763  14.304  0.00  0.00    +0.000 N 
ATOM     12  C   UNL     1      48.173   9.106  14.563  0.00  0.00    +0.000 C 
ATOM     13  O   UNL     1      48.940   9.490  13.686  0.00  0.00    +0.000 OA
ATOM     14  H   UNL     1      46.339   8.265  15.008  0.00  0.00    +0.000 HD
BRANCH  12  15
ATOM     15  C   UNL     1      48.581   9.056  15.975  0.00  0.00    +0.000 A 
ATOM     16  C   UNL     1      48.329  10.144  16.801  0.00  0.00    +0.000 A 
ATOM     17  S   UNL     1      48.823   9.908  18.416  0.00  0.00    +0.000 S 
ATOM     18  C   UNL     1      49.440   8.363  18.059  0.00  0.00    +0.000 A 
ATOM     19  N   UNL     1      50.044   7.612  19.019  0.00  0.00    +0.000 NA
ATOM     20  C   UNL     1      50.494   6.475  18.604  0.00  0.00    +0.000 A 
ATOM     21  N   UNL     1      50.379   6.014  17.320  0.00  0.00    +0.000 N 
ATOM     22  C   UNL     1      49.723   6.709  16.334  0.00  0.00    +0.000 A 
ATOM     23  O   UNL     1      49.540   6.219  15.223  0.00  0.00    +0.000 OA
ATOM     24  C   UNL     1      49.240   8.016  16.735  0.00  0.00    +0.000 A 
ATOM     25  H   UNL     1      50.730   5.100  17.065  0.00  0.00    +0.000 HD
ENDBRANCH  12  15
ENDBRANCH  10  11
ENDBRANCH   3  10
BRANCH   6  26
ATOM     26  C   UNL     1      43.969   3.819  11.314  0.00  0.00    +0.000 C 
BRANCH  26  27
ATOM     27  N   UNL     1      44.926   2.811  10.828  0.00  0.00    +0.000 NA
ATOM     28  H   UNL     1      44.991   2.091  11.553  0.00  0.00    +0.000 HD
BRANCH  27  29
ATOM     29  C   UNL     1      44.459   2.145   9.602  0.00  0.00    +0.000 C 
BRANCH  29  30
ATOM     30  C   UNL     1      45.511   2.225   8.509  0.00  0.00    +0.000 A 
ATOM     31  C   UNL     1      45.750   3.439   7.865  0.00  0.00    +0.000 A 
ATOM     32  C   UNL     1      46.772   3.516   6.924  0.00  0.00    +0.000 A 
ATOM     33  C   UNL     1      47.524   2.382   6.646  0.00  0.00    +0.000 A 
ATOM     34  C   UNL     1      47.217   1.212   7.320  0.00  0.00    +0.000 A 
ATOM     35  N   UNL     1      46.232   1.106   8.238  0.00  0.00    +0.000 NA
ENDBRANCH  29  30
ENDBRANCH  27  29
ENDBRANCH  26  27
ENDBRANCH   6  26
TORSDOF 9
ENDMDL
MODEL 4
REMARK VINA RESULT:    -7.724      1.748      2.049
REMARK INTER + INTRA:         -13.051
REMARK INTER:                 -12.025
REMARK INTRA:                  -1.026
REMARK UNBOUND:                -1.263
REMARK  Name = 
REMARK  10 active torsions:
REMARK  status: ('A' for Active; 'I' for Inactive)
REMARK    1  A    between atoms: C_1  and  C_2
REMARK    2  A    between atoms: C_2  and  O_3
REMARK    3  A    between atoms: O_3  and  C_4
REMARK    4  A    between atoms: C_6  and  C_7
REMARK    5  A    between atoms: C_7  and  N_8
REMARK    6  A    between atoms: C_9  and  C_11
REMARK    7  A    between atoms: C_23  and  C_24
REMARK    8  A    between atoms: C_24  and  N_25
REMARK    9  A    between atoms: N_25  and  C_26
REMARK   10  A    between atoms: C_26  and  C_27
REMARK                            x       y       z     vdW  Elec       q    Type
REMARK                         _______ _______ _______ _____ _____    ______ ____
ROOT
ATOM      1  C   UNL     1      45.150   5.332  12.365  0.00  0.00    +0.000 A 
ATOM      2  C   UNL     1      45.756   6.253  13.221  0.00  0.00    +0.000 A 
ATOM      3  C   UNL     1      46.729   7.135  12.756  0.00  0.00    +0.000 A 
ATOM      4  C   UNL     1      47.034   7.091  11.405  0.00  0.00    +0.000 A 
ATOM      5  N   UNL     1      46.466   6.231  10.533  0.00  0.00    +0.000 NA
ATOM      6  C   UNL     1      45.533   5.355  11.018  0.00  0.00    +0.000 A 
ENDROOT
BRANCH   1   7
ATOM      7  O   UNL     1      44.217   4.414  12.774  0.00  0.00    +0.000 OA
BRANCH   7   9
ATOM      8  C   UNL     1      42.256   5.536  11.934  0.00  0.00    +0.000 C 
ATOM      9  C   UNL     1      42.945   4.953  13.150  0.00  0.00    +0.000 C 
ENDBRANCH   7   9
ENDBRANCH   1   7
BRANCH   3  10
ATOM     10  C   UNL     1      47.388   8.092  13.701  0.00  0.00    +0.000 C 
BRANCH  10  11
ATOM     11  N   UNL     1      47.802   7.438  14.915  0.00  0.00    +0.000 N 
ATOM     12  C   UNL     1      49.066   6.940  15.105  0.00  0.00    +0.000 C 
ATOM     13  O   UNL     1      49.936   7.003  14.243  0.00  0.00    +0.000 OA
ATOM     14  H   UNL     1      47.067   7.188  15.565  0.00  0.00    +0.000 HD
BRANCH  12  15
ATOM     15  C   UNL     1      49.342   6.385  16.440  0.00  0.00    +0.000 A 
ATOM     16  C   UNL     1      50.304   6.982  17.245  0.00  0.00    +0.000 A 
ATOM     17  S   UNL     1      50.469   6.245  18.774  0.00  0.00    +0.000 S 
ATOM     18  C   UNL     1      49.299   5.069  18.396  0.00  0.00    +0.000 A 
ATOM     19  N   UNL     1      48.979   4.090  19.284  0.00  0.00    +0.000 NA
ATOM     20  C   UNL     1      48.100   3.247  18.856  0.00  0.00    +0.000 A 
ATOM     21  N   UNL     1      47.500   3.304  17.626  0.00  0.00    +0.000 N 
ATOM     22  C   UNL     1      47.746   4.308  16.723  0.00  0.00    +0.000 A 
ATOM     23  O   UNL     1      47.110   4.393  15.676  0.00  0.00    +0.000 OA
ATOM     24  C   UNL     1      48.763   5.256  17.134  0.00  0.00    +0.000 A 
ATOM     25  H   UNL     1      46.797   2.626  17.362  0.00  0.00    +0.000 HD
ENDBRANCH  12  15
ENDBRANCH  10  11
ENDBRANCH   3  10
BRANCH   6  26
ATOM     26  C   UNL     1      44.926   4.411   9.996  0.00  0.00    +0.000 C 
BRANCH  26  27
ATOM     27  N   UNL     1      44.993   2.986  10.364  0.00  0.00    +0.000 NA
ATOM     28  H   UNL     1      44.310   2.841  11.113  0.00  0.00    +0.000 HD
BRANCH  27  29
ATOM     29  C   UNL     1      44.603   2.106   9.252  0.00  0.00    +0.000 C 
BRANCH  29  30
ATOM     30  C   UNL     1      45.656   2.117   8.158  0.00  0.00    +0.000 A 
ATOM     31  C   UNL     1      45.751   3.212   7.298  0.00  0.00    +0.000 A 
ATOM     32  C   UNL     1      46.772   3.244   6.355  0.00  0.00    +0.000 A 
ATOM     33  C   UNL     1      47.669   2.186   6.289  0.00  0.00    +0.000 A 
ATOM     34  C   UNL     1      47.501   1.131   7.170  0.00  0.00    +0.000 A 
ATOM     35  N   UNL     1      46.520   1.070   8.096  0.00  0.00    +0.000 NA
ENDBRANCH  29  30
ENDBRANCH  27  29
ENDBRANCH  26  27
ENDBRANCH   6  26
TORSDOF 9
ENDMDL
MODEL 5
REMARK VINA RESULT:    -7.560      2.432      2.942
REMARK INTER + INTRA:         -12.801
REMARK INTER:                 -11.766
REMARK INTRA:                  -1.035
REMARK UNBOUND:                -1.263
REMARK  Name = 
REMARK  10 active torsions:
REMARK  status: ('A' for Active; 'I' for Inactive)
REMARK    1  A    between atoms: C_1  and  C_2
REMARK    2  A    between atoms: C_2  and  O_3
REMARK    3  A    between atoms: O_3  and  C_4
REMARK    4  A    between atoms: C_6  and  C_7
REMARK    5  A    between atoms: C_7  and  N_8
REMARK    6  A    between atoms: C_9  and  C_11
REMARK    7  A    between atoms: C_23  and  C_24
REMARK    8  A    between atoms: C_24  and  N_25
REMARK    9  A    between atoms: N_25  and  C_26
REMARK   10  A    between atoms: C_26  and  C_27
REMARK                            x       y       z     vdW  Elec       q    Type
REMARK                         _______ _______ _______ _____ _____    ______ ____
ROOT
ATOM      1  C   UNL     1      46.002   5.539  12.321  0.00  0.00    +0.000 A 
ATOM      2  C   UNL     1      46.815   6.319  13.144  0.00  0.00    +0.000 A 
ATOM      3  C   UNL     1      47.393   5.787  14.296  0.00  0.00    +0.000 A 
ATOM      4  C   UNL     1      47.164   4.447  14.562  0.00  0.00    +0.000 A 
ATOM      5  N   UNL     1      46.398   3.646  13.789  0.00  0.00    +0.000 NA
ATOM      6  C   UNL     1      45.818   4.198  12.679  0.00  0.00    +0.000 A 
ENDROOT
BRANCH   1   7
ATOM      7  O   UNL     1      45.376   6.017  11.198  0.00  0.00    +0.000 OA
BRANCH   7   9
ATOM      8  C   UNL     1      43.000   6.372  11.395  0.00  0.00    +0.000 C 
ATOM      9  C   UNL     1      44.371   7.012  11.428  0.00  0.00    +0.000 C 
ENDBRANCH   7   9
ENDBRANCH   1   7
BRANCH   3  10
ATOM     10  C   UNL     1      48.236   6.653  15.180  0.00  0.00    +0.000 C 
BRANCH  10  11
ATOM     11  N   UNL     1      49.359   5.930  15.717  0.00  0.00    +0.000 N 
ATOM     12  C   UNL     1      49.742   6.006  17.032  0.00  0.00    +0.000 C 
ATOM     13  O   UNL     1      49.159   6.711  17.848  0.00  0.00    +0.000 OA
ATOM     14  H   UNL     1      49.981   5.500  15.042  0.00  0.00    +0.000 HD
BRANCH  12  15
ATOM     15  C   UNL     1      50.856   5.130  17.427  0.00  0.00    +0.000 A 
ATOM     16  C   UNL     1      52.038   5.691  17.892  0.00  0.00    +0.000 A 
ATOM     17  S   UNL     1      53.210   4.539  18.349  0.00  0.00    +0.000 S 
ATOM     18  C   UNL     1      52.199   3.248  17.894  0.00  0.00    +0.000 A 
ATOM     19  N   UNL     1      52.618   1.959  18.002  0.00  0.00    +0.000 NA
ATOM     20  C   UNL     1      51.764   1.083  17.592  0.00  0.00    +0.000 A 
ATOM     21  N   UNL     1      50.521   1.378  17.099  0.00  0.00    +0.000 N 
ATOM     22  C   UNL     1      50.032   2.659  17.029  0.00  0.00    +0.000 A 
ATOM     23  O   UNL     1      48.873   2.881  16.688  0.00  0.00    +0.000 OA
ATOM     24  C   UNL     1      50.970   3.688  17.433  0.00  0.00    +0.000 A 
ATOM     25  H   UNL     1      49.886   0.641  16.819  0.00  0.00    +0.000 HD
ENDBRANCH  12  15
ENDBRANCH  10  11
ENDBRANCH   3  10
BRANCH   6  26
ATOM     26  C   UNL     1      44.969   3.255  11.847  0.00  0.00    +0.000 C 
BRANCH  26  27
ATOM     27  N   UNL     1      44.908   3.589  10.413  0.00  0.00    +0.000 NA
ATOM     28  H   UNL     1      45.813   3.999  10.166  0.00  0.00    +0.000 HD
BRANCH  27  29
ATOM     29  C   UNL     1      44.733   2.396   9.571  0.00  0.00    +0.000 C 
BRANCH  29  30
ATOM     30  C   UNL     1      45.704   2.412   8.402  0.00  0.00    +0.000 A 
ATOM     31  C   UNL     1      46.423   1.259   8.084  0.00  0.00    +0.000 A 
ATOM     32  C   UNL     1      47.246   1.264   6.962  0.00  0.00    +0.000 A 
ATOM     33  C   UNL     1      47.335   2.416   6.191  0.00  0.00    +0.000 A 
ATOM     34  C   UNL     1      46.598   3.522   6.581  0.00  0.00    +0.000 A 
ATOM     35  N   UNL     1      45.791   3.548   7.664  0.00  0.00    +0.000 NA
ENDBRANCH  29  30
ENDBRANCH  27  29
ENDBRANCH  26  27
ENDBRANCH   6  26
TORSDOF 9
ENDMDL
MODEL 6
REMARK VINA RESULT:    -7.524      4.113      5.980
REMARK INTER + INTRA:         -12.746
REMARK INTER:                 -11.234
REMARK INTRA:                  -1.512
REMARK UNBOUND:                -1.263
REMARK  Name = 
REMARK  10 active torsions:
REMARK  status: ('A' for Active; 'I' for Inactive)
REMARK    1  A    between atoms: C_1  and  C_2
REMARK    2  A    between atoms: C_2  and  O_3
REMARK    3  A    between atoms: O_3  and  C_4
REMARK    4  A    between atoms: C_6  and  C_7
REMARK    5  A    between atoms: C_7  and  N_8
REMARK    6  A    between atoms: C_9  and  C_11
REMARK    7  A    between atoms: C_23  and  C_24
REMARK    8  A    between atoms: C_24  and  N_25
REMARK    9  A    between atoms: N_25  and  C_26
REMARK   10  A    between atoms: C_26  and  C_27
REMARK                            x       y       z     vdW  Elec       q    Type
REMARK                         _______ _______ _______ _____ _____    ______ ____
ROOT
ATOM      1  C   UNL     1      46.026   5.372  12.958  0.00  0.00    +0.000 A 
ATOM      2  C   UNL     1      46.373   6.719  13.071  0.00  0.00    +0.000 A 
ATOM      3  C   UNL     1      45.660   7.704  12.391  0.00  0.00    +0.000 A 
ATOM      4  C   UNL     1      44.570   7.297  11.639  0.00  0.00    +0.000 A 
ATOM      5  N   UNL     1      44.184   6.009  11.510  0.00  0.00    +0.000 NA
ATOM      6  C   UNL     1      44.917   5.056  12.164  0.00  0.00    +0.000 A 
ENDROOT
BRANCH   1   7
ATOM      7  O   UNL     1      46.714   4.356  13.571  0.00  0.00    +0.000 OA
BRANCH   7   9
ATOM      8  C   UNL     1      47.655   3.319  15.532  0.00  0.00    +0.000 C 
ATOM      9  C   UNL     1      47.028   4.569  14.951  0.00  0.00    +0.000 C 
ENDBRANCH   7   9
ENDBRANCH   1   7
BRANCH   3  10
ATOM     10  C   UNL     1      46.071   9.140  12.503  0.00  0.00    +0.000 C 
BRANCH  10  11
ATOM     11  N   UNL     1      47.334   9.383  11.858  0.00  0.00    +0.000 N 
ATOM     12  C   UNL     1      48.338  10.125  12.427  0.00  0.00    +0.000 C 
ATOM     13  O   UNL     1      48.225  10.650  13.529  0.00  0.00    +0.000 OA
ATOM     14  H   UNL     1      47.392   9.141  10.876  0.00  0.00    +0.000 HD
BRANCH  12  15
ATOM     15  C   UNL     1      49.595  10.195  11.665  0.00  0.00    +0.000 A 
ATOM     16  C   UNL     1      50.052  11.424  11.207  0.00  0.00    +0.000 A 
ATOM     17  S   UNL     1      51.542  11.336  10.383  0.00  0.00    +0.000 S 
ATOM     18  C   UNL     1      51.606   9.646  10.563  0.00  0.00    +0.000 A 
ATOM     19  N   UNL     1      52.635   8.925  10.044  0.00  0.00    +0.000 NA
ATOM     20  C   UNL     1      52.542   7.650  10.227  0.00  0.00    +0.000 A 
ATOM     21  N   UNL     1      51.519   7.033  10.896  0.00  0.00    +0.000 N 
ATOM     22  C   UNL     1      50.492   7.724  11.490  0.00  0.00    +0.000 A 
ATOM     23  O   UNL     1      49.652   7.151  12.178  0.00  0.00    +0.000 OA
ATOM     24  C   UNL     1      50.523   9.157  11.274  0.00  0.00    +0.000 A 
ATOM     25  H   UNL     1      51.518   6.029  11.029  0.00  0.00    +0.000 HD
ENDBRANCH  12  15
ENDBRANCH  10  11
ENDBRANCH   3  10
BRANCH   6  26
ATOM     26  C   UNL     1      44.441   3.626  11.985  0.00  0.00    +0.000 C 
BRANCH  26  27
ATOM     27  N   UNL     1      45.204   2.846  10.996  0.00  0.00    +0.000 NA
ATOM     28  H   UNL     1      45.330   1.910  11.390  0.00  0.00    +0.000 HD
BRANCH  27  29
ATOM     29  C   UNL     1      44.472   2.684   9.730  0.00  0.00    +0.000 C 
BRANCH  29  30
ATOM     30  C   UNL     1      45.434   2.534   8.564  0.00  0.00    +0.000 A 
ATOM     31  C   UNL     1      45.666   3.615   7.713  0.00  0.00    +0.000 A 
ATOM     32  C   UNL     1      46.611   3.488   6.700  0.00  0.00    +0.000 A 
ATOM     33  C   UNL     1      47.295   2.288   6.558  0.00  0.00    +0.000 A 
ATOM     34  C   UNL     1      47.000   1.258   7.436  0.00  0.00    +0.000 A 
ATOM     35  N   UNL     1      46.088   1.351   8.429  0.00  0.00    +0.000 NA
ENDBRANCH  29  30
ENDBRANCH  27  29
ENDBRANCH  26  27
ENDBRANCH   6  26
TORSDOF 9
ENDMDL
MODEL 7
REMARK VINA RESULT:    -7.453      2.721      3.627
REMARK INTER + INTRA:         -12.638
REMARK INTER:                 -11.024
REMARK INTRA:                  -1.614
REMARK UNBOUND:                -1.263
REMARK  Name = 
REMARK  10 active torsions:
REMARK  status: ('A' for Active; 'I' for Inactive)
REMARK    1  A    between atoms: C_1  and  C_2
REMARK    2  A    between atoms: C_2  and  O_3
REMARK    3  A    between atoms: O_3  and  C_4
REMARK    4  A    between atoms: C_6  and  C_7
REMARK    5  A    between atoms: C_7  and  N_8
REMARK    6  A    between atoms: C_9  and  C_11
REMARK    7  A    between atoms: C_23  and  C_24
REMARK    8  A    between atoms: C_24  and  N_25
REMARK    9  A    between atoms: N_25  and  C_26
REMARK   10  A    between atoms: C_26  and  C_27
REMARK                            x       y       z     vdW  Elec       q    Type
REMARK                         _______ _______ _______ _____ _____    ______ ____
ROOT
ATOM      1  C   UNL     1      46.600   4.901  13.551  0.00  0.00    +0.000 A 
ATOM      2  C   UNL     1      47.618   5.849  13.669  0.00  0.00    +0.000 A 
ATOM      3  C   UNL     1      47.759   6.872  12.734  0.00  0.00    +0.000 A 
ATOM      4  C   UNL     1      46.825   6.936  11.713  0.00  0.00    +0.000 A 
ATOM      5  N   UNL     1      45.813   6.053  11.563  0.00  0.00    +0.000 NA
ATOM      6  C   UNL     1      45.711   5.040  12.478  0.00  0.00    +0.000 A 
ENDROOT
BRANCH   1   7
ATOM      7  O   UNL     1      46.435   3.850  14.416  0.00  0.00    +0.000 OA
BRANCH   7   9
ATOM      8  C   UNL     1      47.040   3.705  16.745  0.00  0.00    +0.000 C 
ATOM      9  C   UNL     1      47.525   3.613  15.314  0.00  0.00    +0.000 C 
ENDBRANCH   7   9
ENDBRANCH   1   7
BRANCH   3  10
ATOM     10  C   UNL     1      48.879   7.858  12.866  0.00  0.00    +0.000 C 
BRANCH  10  11
ATOM     11  N   UNL     1      49.947   7.343  13.681  0.00  0.00    +0.000 N 
ATOM     12  C   UNL     1      50.759   8.140  14.447  0.00  0.00    +0.000 C 
ATOM     13  O   UNL     1      50.640   9.360  14.483  0.00  0.00    +0.000 OA
ATOM     14  H   UNL     1      50.205   6.375  13.525  0.00  0.00    +0.000 HD
BRANCH  12  15
ATOM     15  C   UNL     1      51.741   7.437  15.287  0.00  0.00    +0.000 A 
ATOM     16  C   UNL     1      53.098   7.631  15.065  0.00  0.00    +0.000 A 
ATOM     17  S   UNL     1      54.099   6.779  16.152  0.00  0.00    +0.000 S 
ATOM     18  C   UNL     1      52.756   6.079  16.926  0.00  0.00    +0.000 A 
ATOM     19  N   UNL     1      52.919   5.201  17.951  0.00  0.00    +0.000 NA
ATOM     20  C   UNL     1      51.818   4.722  18.426  0.00  0.00    +0.000 A 
ATOM     21  N   UNL     1      50.567   5.055  17.978  0.00  0.00    +0.000 N 
ATOM     22  C   UNL     1      50.352   5.982  16.989  0.00  0.00    +0.000 A 
ATOM     23  O   UNL     1      49.217   6.341  16.688  0.00  0.00    +0.000 OA
ATOM     24  C   UNL     1      51.559   6.516  16.387  0.00  0.00    +0.000 A 
ATOM     25  H   UNL     1      49.741   4.664  18.412  0.00  0.00    +0.000 HD
ENDBRANCH  12  15
ENDBRANCH  10  11
ENDBRANCH   3  10
BRANCH   6  26
ATOM     26  C   UNL     1      44.557   4.077  12.263  0.00  0.00    +0.000 C 
BRANCH  26  27
ATOM     27  N   UNL     1      44.901   2.875  11.484  0.00  0.00    +0.000 NA
ATOM     28  H   UNL     1      44.594   2.068  12.033  0.00  0.00    +0.000 HD
BRANCH  27  29
ATOM     29  C   UNL     1      44.182   2.820  10.201  0.00  0.00    +0.000 C 
BRANCH  29  30
ATOM     30  C   UNL     1      45.154   2.701   9.040  0.00  0.00    +0.000 A 
ATOM     31  C   UNL     1      45.524   3.841   8.327  0.00  0.00    +0.000 A 
ATOM     32  C   UNL     1      46.477   3.730   7.320  0.00  0.00    +0.000 A 
ATOM     33  C   UNL     1      47.033   2.487   7.047  0.00  0.00    +0.000 A 
ATOM     34  C   UNL     1      46.605   1.401   7.793  0.00  0.00    +0.000 A 
ATOM     35  N   UNL     1      45.682   1.477   8.776  0.00  0.00    +0.000 NA
ENDBRANCH  29  30
ENDBRANCH  27  29
ENDBRANCH  26  27
ENDBRANCH   6  26
TORSDOF 9
ENDMDL
MODEL 8
REMARK VINA RESULT:    -7.207      3.501      4.889
REMARK INTER + INTRA:         -12.262
REMARK INTER:                 -11.027
REMARK INTRA:                  -1.235
REMARK UNBOUND:                -1.263
REMARK  Name = 
REMARK  10 active torsions:
REMARK  status: ('A' for Active; 'I' for Inactive)
REMARK    1  A    between atoms: C_1  and  C_2
REMARK    2  A    between atoms: C_2  and  O_3
REMARK    3  A    between atoms: O_3  and  C_4
REMARK    4  A    between atoms: C_6  and  C_7
REMARK    5  A    between atoms: C_7  and  N_8
REMARK    6  A    between atoms: C_9  and  C_11
REMARK    7  A    between atoms: C_23  and  C_24
REMARK    8  A    between atoms: C_24  and  N_25
REMARK    9  A    between atoms: N_25  and  C_26
REMARK   10  A    between atoms: C_26  and  C_27
REMARK                            x       y       z     vdW  Elec       q    Type
REMARK                         _______ _______ _______ _____ _____    ______ ____
ROOT
ATOM      1  C   UNL     1      45.528   4.886  12.932  0.00  0.00    +0.000 A 
ATOM      2  C   UNL     1      45.754   6.224  13.256  0.00  0.00    +0.000 A 
ATOM      3  C   UNL     1      45.255   7.251  12.457  0.00  0.00    +0.000 A 
ATOM      4  C   UNL     1      44.491   6.890  11.359  0.00  0.00    +0.000 A 
ATOM      5  N   UNL     1      44.230   5.611  11.011  0.00  0.00    +0.000 NA
ATOM      6  C   UNL     1      44.755   4.619  11.795  0.00  0.00    +0.000 A 
ENDROOT
BRANCH   1   7
ATOM      7  O   UNL     1      46.026   3.833  13.656  0.00  0.00    +0.000 OA
BRANCH   7   9
ATOM      8  C   UNL     1      47.152   4.114  15.768  0.00  0.00    +0.000 C 
ATOM      9  C   UNL     1      47.304   4.052  14.264  0.00  0.00    +0.000 C 
ENDBRANCH   7   9
ENDBRANCH   1   7
BRANCH   3  10
ATOM     10  C   UNL     1      45.538   8.679  12.809  0.00  0.00    +0.000 C 
BRANCH  10  11
ATOM     11  N   UNL     1      46.848   8.835  13.384  0.00  0.00    +0.000 N 
ATOM     12  C   UNL     1      47.827   9.615  12.823  0.00  0.00    +0.000 C 
ATOM     13  O   UNL     1      47.659  10.229  11.775  0.00  0.00    +0.000 OA
ATOM     14  H   UNL     1      47.091   8.194  14.130  0.00  0.00    +0.000 HD
BRANCH  12  15
ATOM     15  C   UNL     1      49.075   9.731  13.593  0.00  0.00    +0.000 A 
ATOM     16  C   UNL     1      49.094  10.486  14.759  0.00  0.00    +0.000 A 
ATOM     17  S   UNL     1      50.603  10.481  15.554  0.00  0.00    +0.000 S 
ATOM     18  C   UNL     1      51.301   9.513  14.341  0.00  0.00    +0.000 A 
ATOM     19  N   UNL     1      52.612   9.158  14.398  0.00  0.00    +0.000 NA
ATOM     20  C   UNL     1      53.019   8.450  13.398  0.00  0.00    +0.000 A 
ATOM     21  N   UNL     1      52.227   8.050  12.354  0.00  0.00    +0.000 N 
ATOM     22  C   UNL     1      50.885   8.332  12.286  0.00  0.00    +0.000 A 
ATOM     23  O   UNL     1      50.180   7.864  11.396  0.00  0.00    +0.000 OA
ATOM     24  C   UNL     1      50.387   9.167  13.361  0.00  0.00    +0.000 A 
ATOM     25  H   UNL     1      52.601   7.471  11.613  0.00  0.00    +0.000 HD
ENDBRANCH  12  15
ENDBRANCH  10  11
ENDBRANCH   3  10
BRANCH   6  26
ATOM     26  C   UNL     1      44.432   3.201  11.360  0.00  0.00    +0.000 C 
BRANCH  26  27
ATOM     27  N   UNL     1      44.009   3.073   9.955  0.00  0.00    +0.000 NA
ATOM     28  H   UNL     1      44.466   3.829   9.438  0.00  0.00    +0.000 HD
BRANCH  27  29
ATOM     29  C   UNL     1      44.456   1.808   9.352  0.00  0.00    +0.000 C 
BRANCH  29  30
ATOM     30  C   UNL     1      45.565   2.052   8.343  0.00  0.00    +0.000 A 
ATOM     31  C   UNL     1      45.720   3.316   7.775  0.00  0.00    +0.000 A 
ATOM     32  C   UNL     1      46.790   3.546   6.916  0.00  0.00    +0.000 A 
ATOM     33  C   UNL     1      47.674   2.510   6.642  0.00  0.00    +0.000 A 
ATOM     34  C   UNL     1      47.446   1.281   7.238  0.00  0.00    +0.000 A 
ATOM     35  N   UNL     1      46.416   1.027   8.075  0.00  0.00    +0.000 NA
ENDBRANCH  29  30
ENDBRANCH  27  29
ENDBRANCH  26  27
ENDBRANCH   6  26
TORSDOF 9
ENDMDL
MODEL 9
REMARK VINA RESULT:    -7.192      1.839      3.113
REMARK INTER + INTRA:         -12.239
REMARK INTER:                 -10.901
REMARK INTRA:                  -1.338
REMARK UNBOUND:                -1.263
REMARK  Name = 
REMARK  10 active torsions:
REMARK  status: ('A' for Active; 'I' for Inactive)
REMARK    1  A    between atoms: C_1  and  C_2
REMARK    2  A    between atoms: C_2  and  O_3
REMARK    3  A    between atoms: O_3  and  C_4
REMARK    4  A    between atoms: C_6  and  C_7
REMARK    5  A    between atoms: C_7  and  N_8
REMARK    6  A    between atoms: C_9  and  C_11
REMARK    7  A    between atoms: C_23  and  C_24
REMARK    8  A    between atoms: C_24  and  N_25
REMARK    9  A    between atoms: N_25  and  C_26
REMARK   10  A    between atoms: C_26  and  C_27
REMARK                            x       y       z     vdW  Elec       q    Type
REMARK                         _______ _______ _______ _____ _____    ______ ____
ROOT
ATOM      1  C   UNL     1      45.619   5.879  12.932  0.00  0.00    +0.000 A 
ATOM      2  C   UNL     1      46.386   5.552  14.051  0.00  0.00    +0.000 A 
ATOM      3  C   UNL     1      46.784   4.237  14.290  0.00  0.00    +0.000 A 
ATOM      4  C   UNL     1      46.429   3.284  13.350  0.00  0.00    +0.000 A 
ATOM      5  N   UNL     1      45.702   3.552  12.243  0.00  0.00    +0.000 NA
ATOM      6  C   UNL     1      45.298   4.845  12.045  0.00  0.00    +0.000 A 
ENDROOT
BRANCH   1   7
ATOM      7  O   UNL     1      45.165   7.145  12.666  0.00  0.00    +0.000 OA
BRANCH   7   9
ATOM      8  C   UNL     1      47.270   8.049  11.918  0.00  0.00    +0.000 C 
ATOM      9  C   UNL     1      46.112   8.198  12.880  0.00  0.00    +0.000 C 
ENDBRANCH   7   9
ENDBRANCH   1   7
BRANCH   3  10
ATOM     10  C   UNL     1      47.579   3.906  15.515  0.00  0.00    +0.000 C 
BRANCH  10  11
ATOM     11  N   UNL     1      47.618   5.010  16.437  0.00  0.00    +0.000 N 
ATOM     12  C   UNL     1      48.761   5.410  17.083  0.00  0.00    +0.000 C 
ATOM     13  O   UNL     1      49.837   4.842  16.928  0.00  0.00    +0.000 OA
ATOM     14  H   UNL     1      46.723   5.373  16.743  0.00  0.00    +0.000 HD
BRANCH  12  15
ATOM     15  C   UNL     1      48.638   6.613  17.920  0.00  0.00    +0.000 A 
ATOM     16  C   UNL     1      48.636   6.488  19.304  0.00  0.00    +0.000 A 
ATOM     17  S   UNL     1      48.531   7.979  20.125  0.00  0.00    +0.000 S 
ATOM     18  C   UNL     1      48.431   8.842  18.662  0.00  0.00    +0.000 A 
ATOM     19  N   UNL     1      48.291  10.194  18.656  0.00  0.00    +0.000 NA
ATOM     20  C   UNL     1      48.196  10.717  17.479  0.00  0.00    +0.000 A 
ATOM     21  N   UNL     1      48.246  10.010  16.307  0.00  0.00    +0.000 N 
ATOM     22  C   UNL     1      48.449   8.652  16.263  0.00  0.00    +0.000 A 
ATOM     23  O   UNL     1      48.601   8.065  15.195  0.00  0.00    +0.000 OA
ATOM     24  C   UNL     1      48.513   8.008  17.560  0.00  0.00    +0.000 A 
ATOM     25  H   UNL     1      48.194  10.483  15.414  0.00  0.00    +0.000 HD
ENDBRANCH  12  15
ENDBRANCH  10  11
ENDBRANCH   3  10
BRANCH   6  26
ATOM     26  C   UNL     1      44.485   5.091  10.787  0.00  0.00    +0.000 C 
BRANCH  26  27
ATOM     27  N   UNL     1      44.209   3.883   9.991  0.00  0.00    +0.000 NA
ATOM     28  H   UNL     1      43.223   3.649  10.139  0.00  0.00    +0.000 HD
BRANCH  27  29
ATOM     29  C   UNL     1      44.382   4.116   8.548  0.00  0.00    +0.000 C 
BRANCH  29  30
ATOM     30  C   UNL     1      45.508   3.260   7.994  0.00  0.00    +0.000 A 
ATOM     31  C   UNL     1      45.691   1.962   8.470  0.00  0.00    +0.000 A 
ATOM     32  C   UNL     1      46.673   1.163   7.894  0.00  0.00    +0.000 A 
ATOM     33  C   UNL     1      47.450   1.678   6.865  0.00  0.00    +0.000 A 
ATOM     34  C   UNL     1      47.214   2.981   6.457  0.00  0.00    +0.000 A 
ATOM     35  N   UNL     1      46.268   3.781   6.996  0.00  0.00    +0.000 NA
ENDBRANCH  29  30
ENDBRANCH  27  29
ENDBRANCH  26  27
ENDBRANCH   6  26
TORSDOF 9
ENDMDL
