MODEL 1
REMARK VINA RESULT:    -7.173      0.000      0.000
REMARK INTER + INTRA:          -9.164
REMARK INTER:                  -8.640
REMARK INTRA:                  -0.523
REMARK UNBOUND:                -0.523
REMARK  Name = 
REMARK  4 active torsions:
REMARK  status: ('A' for Active; 'I' for Inactive)
REMARK    1  A    between atoms: N_1  and  C_2
REMARK    2  A    between atoms: C_2  and  C_3
REMARK    3  A    between atoms: N_7  and  C_8
REMARK    4  A    between atoms: C_8  and  C_9
REMARK                            x       y       z     vdW  Elec       q    Type
REMARK                         _______ _______ _______ _____ _____    ______ ____
ROOT
ATOM      1  C   UNL     1      46.912   2.367   7.229  0.00  0.00    +0.000 A 
ATOM      2  C   UNL     1      46.306   1.465   8.081  0.00  0.00    +0.000 A 
ATOM      3  N   UNL     1      45.315   1.783   8.936  0.00  0.00    +0.000 NA
ATOM      4  C   UNL     1      44.892   3.049   8.932  0.00  0.00    +0.000 A 
ATOM      5  N   UNL     1      43.846   3.353   9.770  0.00  0.00    +0.000 N 
ATOM      6  N   UNL     1      45.421   4.006   8.143  0.00  0.00    +0.000 NA
ATOM      7  C   UNL     1      46.420   3.644   7.325  0.00  0.00    +0.000 A 
ATOM      8  H   UNL     1      43.740   2.599  10.443  0.00  0.00    +0.000 HD
ENDROOT
BRANCH   1   9
ATOM      9  C   UNL     1      48.002   1.999   6.283  0.00  0.00    +0.000 C 
BRANCH   9  10
ATOM     10  N   UNL     1      48.067   2.924   5.159  0.00  0.00    +0.000 NA
ATOM     11  H   UNL     1      47.462   3.722   5.341  0.00  0.00    +0.000 HD
ATOM     12  H   UNL     1      47.698   2.470   4.323  0.00  0.00    +0.000 HD
ENDBRANCH   9  10
ENDBRANCH   1   9
BRANCH   5  13
ATOM     13  C   UNL     1      43.796   4.709  10.292  0.00  0.00    +0.000 C 
BRANCH  13  14
ATOM     14  C   UNL     1      43.462   4.688  11.797  0.00  0.00    +0.000 C 
ATOM     15  C   UNL     1      44.250   5.760  12.571  0.00  0.00    +0.000 C 
ATOM     16  C   UNL     1      45.726   5.387  12.725  0.00  0.00    +0.000 C 
ATOM     17  C   UNL     1      45.897   3.966  13.260  0.00  0.00    +0.000 C 
ATOM     18  N   UNL     1      45.165   2.990  12.455  0.00  0.00    +0.000 NA
ATOM     19  C   UNL     1      43.735   3.308  12.413  0.00  0.00    +0.000 C 
ATOM     20  H   UNL     1      45.288   2.060  12.854  0.00  0.00    +0.000 HD
ENDBRANCH  13  14
ENDBRANCH   5  13
TORSDOF 4
ENDMDL
MODEL 2
REMARK VINA RESULT:    -5.867      2.168      2.637
REMARK INTER + INTRA:          -7.591
REMARK INTER:                  -7.350
REMARK INTRA:                  -0.241
REMARK UNBOUND:                -0.523
REMARK  Name = 
REMARK  4 active torsions:
REMARK  status: ('A' for Active; 'I' for Inactive)
REMARK    1  A    between atoms: N_1  and  C_2
REMARK    2  A    between atoms: C_2  and  C_3
REMARK    3  A    between atoms: N_7  and  C_8
REMARK    4  A    between atoms: C_8  and  C_9
REMARK                            x       y       z     vdW  Elec       q    Type
REMARK                         _______ _______ _______ _____ _____    ______ ____
ROOT
ATOM      1  C   UNL     1      46.504   2.497   7.447  0.00  0.00    +0.000 A 
ATOM      2  C   UNL     1      45.647   2.055   8.436  0.00  0.00    +0.000 A 
ATOM      3  N   UNL     1      45.049   2.863   9.333  0.00  0.00    +0.000 NA
ATOM      4  C   UNL     1      45.296   4.170   9.232  0.00  0.00    +0.000 A 
ATOM      5  N   UNL     1      44.641   4.992  10.118  0.00  0.00    +0.000 N 
ATOM      6  N   UNL     1      46.121   4.701   8.307  0.00  0.00    +0.000 NA
ATOM      7  C   UNL     1      46.709   3.854   7.450  0.00  0.00    +0.000 A 
ATOM      8  H   UNL     1      44.267   4.423  10.872  0.00  0.00    +0.000 HD
ENDROOT
BRANCH   1   9
ATOM      9  C   UNL     1      47.152   1.593   6.457  0.00  0.00    +0.000 C 
BRANCH   9  10
ATOM     10  N   UNL     1      48.530   1.987   6.197  0.00  0.00    +0.000 NA
ATOM     11  H   UNL     1      48.540   2.821   5.615  0.00  0.00    +0.000 HD
ATOM     12  H   UNL     1      48.998   1.257   5.659  0.00  0.00    +0.000 HD
ENDBRANCH   9  10
ENDBRANCH   1   9
BRANCH   5  13
ATOM     13  C   UNL     1      45.319   6.220  10.498  0.00  0.00    +0.000 C 
BRANCH  13  14
ATOM     14  C   UNL     1      45.713   6.171  11.988  0.00  0.00    +0.000 C 
ATOM     15  C   UNL     1      44.984   7.253  12.806  0.00  0.00    +0.000 C 
ATOM     16  C   UNL     1      45.543   8.651  12.534  0.00  0.00    +0.000 C 
ATOM     17  C   UNL     1      47.066   8.684  12.655  0.00  0.00    +0.000 C 
ATOM     18  N   UNL     1      47.700   7.666  11.819  0.00  0.00    +0.000 NA
ATOM     19  C   UNL     1      47.229   6.324  12.174  0.00  0.00    +0.000 C 
ATOM     20  H   UNL     1      48.712   7.707  11.943  0.00  0.00    +0.000 HD
ENDBRANCH  13  14
ENDBRANCH   5  13
TORSDOF 4
ENDMDL
MODEL 3
REMARK VINA RESULT:    -5.858      4.206      7.937
REMARK INTER + INTRA:          -7.580
REMARK INTER:                  -7.108
REMARK INTRA:                  -0.472
REMARK UNBOUND:                -0.523
REMARK  Name = 
REMARK  4 active torsions:
REMARK  status: ('A' for Active; 'I' for Inactive)
REMARK    1  A    between atoms: N_1  and  C_2
REMARK    2  A    between atoms: C_2  and  C_3
REMARK    3  A    between atoms: N_7  and  C_8
REMARK    4  A    between atoms: C_8  and  C_9
REMARK                            x       y       z     vdW  Elec       q    Type
REMARK                         _______ _______ _______ _____ _____    ______ ____
ROOT
ATOM      1  C   UNL     1      48.447   4.387  18.135  0.00  0.00    +0.000 A 
ATOM      2  C   UNL     1      47.391   3.525  17.916  0.00  0.00    +0.000 A 
ATOM      3  N   UNL     1      46.737   3.416  16.743  0.00  0.00    +0.000 NA
ATOM      4  C   UNL     1      47.162   4.182  15.737  0.00  0.00    +0.000 A 
ATOM      5  N   UNL     1      46.523   4.027  14.530  0.00  0.00    +0.000 N 
ATOM      6  N   UNL     1      48.180   5.060  15.850  0.00  0.00    +0.000 NA
ATOM      7  C   UNL     1      48.785   5.147  17.044  0.00  0.00    +0.000 A 
ATOM      8  H   UNL     1      45.655   3.523  14.686  0.00  0.00    +0.000 HD
ENDROOT
BRANCH   1   9
ATOM      9  C   UNL     1      49.166   4.492  19.436  0.00  0.00    +0.000 C 
BRANCH   9  10
ATOM     10  N   UNL     1      48.494   3.728  20.479  0.00  0.00    +0.000 NA
ATOM     11  H   UNL     1      48.771   4.084  21.391  0.00  0.00    +0.000 HD
ATOM     12  H   UNL     1      48.807   2.757  20.444  0.00  0.00    +0.000 HD
ENDBRANCH   9  10
ENDBRANCH   1   9
BRANCH   5  13
ATOM     13  C   UNL     1      46.456   5.196  13.668  0.00  0.00    +0.000 C 
BRANCH  13  14
ATOM     14  C   UNL     1      45.982   4.791  12.258  0.00  0.00    +0.000 C 
ATOM     15  C   UNL     1      45.092   5.874  11.622  0.00  0.00    +0.000 C 
ATOM     16  C   UNL     1      43.701   5.919  12.258  0.00  0.00    +0.000 C 
ATOM     17  C   UNL     1      43.063   4.532  12.320  0.00  0.00    +0.000 C 
ATOM     18  N   UNL     1      43.935   3.561  12.977  0.00  0.00    +0.000 NA
ATOM     19  C   UNL     1      45.222   3.456  12.284  0.00  0.00    +0.000 C 
ATOM     20  H   UNL     1      43.484   2.647  12.980  0.00  0.00    +0.000 HD
ENDBRANCH  13  14
ENDBRANCH   5  13
TORSDOF 4
ENDMDL
MODEL 4
REMARK VINA RESULT:    -5.660      2.623      6.172
REMARK INTER + INTRA:          -7.342
REMARK INTER:                  -6.986
REMARK INTRA:                  -0.356
REMARK UNBOUND:                -0.523
REMARK  Name = 
REMARK  4 active torsions:
REMARK  status: ('A' for Active; 'I' for Inactive)
REMARK    1  A    between atoms: N_1  and  C_2
REMARK    2  A    between atoms: C_2  and  C_3
REMARK    3  A    between atoms: N_7  and  C_8
REMARK    4  A    between atoms: C_8  and  C_9
REMARK                            x       y       z     vdW  Elec       q    Type
REMARK                         _______ _______ _______ _____ _____    ______ ____
ROOT
ATOM      1  C   UNL     1      47.107   7.222  13.384  0.00  0.00    +0.000 A 
ATOM      2  C   UNL     1      45.903   7.609  12.828  0.00  0.00    +0.000 A 
ATOM      3  N   UNL     1      45.021   6.756  12.270  0.00  0.00    +0.000 NA
ATOM      4  C   UNL     1      45.338   5.460  12.284  0.00  0.00    +0.000 A 
ATOM      5  N   UNL     1      44.410   4.593  11.760  0.00  0.00    +0.000 N 
ATOM      6  N   UNL     1      46.490   4.982  12.796  0.00  0.00    +0.000 NA
ATOM      7  C   UNL     1      47.345   5.873  13.320  0.00  0.00    +0.000 A 
ATOM      8  H   UNL     1      43.737   5.127  11.217  0.00  0.00    +0.000 HD
ENDROOT
BRANCH   1   9
ATOM      9  C   UNL     1      48.069   8.176  14.004  0.00  0.00    +0.000 C 
BRANCH   9  10
ATOM     10  N   UNL     1      47.419   9.018  14.999  0.00  0.00    +0.000 NA
ATOM     11  H   UNL     1      46.714   9.596  14.546  0.00  0.00    +0.000 HD
ATOM     12  H   UNL     1      48.103   9.661  15.399  0.00  0.00    +0.000 HD
ENDBRANCH   9  10
ENDBRANCH   1   9
BRANCH   5  13
ATOM     13  C   UNL     1      44.919   3.373  11.155  0.00  0.00    +0.000 C 
BRANCH  13  14
ATOM     14  C   UNL     1      44.192   3.094   9.825  0.00  0.00    +0.000 C 
ATOM     15  C   UNL     1      44.821   1.911   9.067  0.00  0.00    +0.000 C 
ATOM     16  C   UNL     1      46.168   2.280   8.444  0.00  0.00    +0.000 C 
ATOM     17  C   UNL     1      46.082   3.574   7.636  0.00  0.00    +0.000 C 
ATOM     18  N   UNL     1      45.523   4.670   8.424  0.00  0.00    +0.000 NA
ATOM     19  C   UNL     1      44.184   4.334   8.919  0.00  0.00    +0.000 C 
ATOM     20  H   UNL     1      45.463   5.508   7.846  0.00  0.00    +0.000 HD
ENDBRANCH  13  14
ENDBRANCH   5  13
TORSDOF 4
ENDMDL
MODEL 5
REMARK VINA RESULT:    -5.520      3.797      7.628
REMARK INTER + INTRA:          -7.173
REMARK INTER:                  -6.928
REMARK INTRA:                  -0.245
REMARK UNBOUND:                -0.523
REMARK  Name = 
REMARK  4 active torsions:
REMARK  status: ('A' for Active; 'I' for Inactive)
REMARK    1  A    between atoms: N_1  and  C_2
REMARK    2  A    between atoms: C_2  and  C_3
REMARK    3  A    between atoms: N_7  and  C_8
REMARK    4  A    between atoms: C_8  and  C_9
REMARK                            x       y       z     vdW  Elec       q    Type
REMARK                         _______ _______ _______ _____ _____    ______ ____
ROOT
ATOM      1  C   UNL     1      48.518   4.309  17.409  0.00  0.00    +0.000 A 
ATOM      2  C   UNL     1      48.941   5.355  16.613  0.00  0.00    +0.000 A 
ATOM      3  N   UNL     1      48.343   5.716  15.461  0.00  0.00    +0.000 NA
ATOM      4  C   UNL     1      47.265   5.021  15.093  0.00  0.00    +0.000 A 
ATOM      5  N   UNL     1      46.630   5.429  13.944  0.00  0.00    +0.000 N 
ATOM      6  N   UNL     1      46.776   3.980  15.797  0.00  0.00    +0.000 NA
ATOM      7  C   UNL     1      47.419   3.646  16.925  0.00  0.00    +0.000 A 
ATOM      8  H   UNL     1      47.254   6.046  13.431  0.00  0.00    +0.000 HD
ENDROOT
BRANCH   1   9
ATOM      9  C   UNL     1      49.186   3.927  18.685  0.00  0.00    +0.000 C 
BRANCH   9  10
ATOM     10  N   UNL     1      48.321   3.093  19.510  0.00  0.00    +0.000 NA
ATOM     11  H   UNL     1      48.076   2.248  18.998  0.00  0.00    +0.000 HD
ATOM     12  H   UNL     1      47.443   3.584  19.686  0.00  0.00    +0.000 HD
ENDBRANCH   9  10
ENDBRANCH   1   9
BRANCH   5  13
ATOM     13  C   UNL     1      45.945   4.404  13.174  0.00  0.00    +0.000 C 
BRANCH  13  14
ATOM     14  C   UNL     1      44.474   4.804  12.945  0.00  0.00    +0.000 C 
ATOM     15  C   UNL     1      43.625   3.612  12.467  0.00  0.00    +0.000 C 
ATOM     16  C   UNL     1      43.924   3.245  11.012  0.00  0.00    +0.000 C 
ATOM     17  C   UNL     1      43.870   4.468  10.097  0.00  0.00    +0.000 C 
ATOM     18  N   UNL     1      44.732   5.545  10.579  0.00  0.00    +0.000 NA
ATOM     19  C   UNL     1      44.355   5.955  11.935  0.00  0.00    +0.000 C 
ATOM     20  H   UNL     1      44.653   6.348   9.955  0.00  0.00    +0.000 HD
ENDBRANCH  13  14
ENDBRANCH   5  13
TORSDOF 4
ENDMDL
MODEL 6
REMARK VINA RESULT:    -5.480      3.987      6.381
REMARK INTER + INTRA:          -7.125
REMARK INTER:                  -6.656
REMARK INTRA:                  -0.468
REMARK UNBOUND:                -0.523
REMARK  Name = 
REMARK  4 active torsions:
REMARK  status: ('A' for Active; 'I' for Inactive)
REMARK    1  A    between atoms: N_1  and  C_2
REMARK    2  A    between atoms: C_2  and  C_3
REMARK    3  A    between atoms: N_7  and  C_8
REMARK    4  A    between atoms: C_8  and  C_9
REMARK                            x       y       z     vdW  Elec       q    Type
REMARK                         _______ _______ _______ _____ _____    ______ ____
ROOT
ATOM      1  C   UNL     1      44.989   4.292  11.716  0.00  0.00    +0.000 A 
ATOM      2  C   UNL     1      45.240   5.580  12.148  0.00  0.00    +0.000 A 
ATOM      3  N   UNL     1      45.963   5.880  13.244  0.00  0.00    +0.000 NA
ATOM      4  C   UNL     1      46.477   4.858  13.931  0.00  0.00    +0.000 A 
ATOM      5  N   UNL     1      47.257   5.175  15.018  0.00  0.00    +0.000 N 
ATOM      6  N   UNL     1      46.286   3.566  13.596  0.00  0.00    +0.000 NA
ATOM      7  C   UNL     1      45.541   3.318  12.509  0.00  0.00    +0.000 A 
ATOM      8  H   UNL     1      47.096   6.149  15.259  0.00  0.00    +0.000 HD
ENDROOT
BRANCH   1   9
ATOM      9  C   UNL     1      44.194   3.975  10.497  0.00  0.00    +0.000 C 
BRANCH   9  10
ATOM     10  N   UNL     1      43.445   5.135  10.032  0.00  0.00    +0.000 NA
ATOM     11  H   UNL     1      43.951   5.984  10.275  0.00  0.00    +0.000 HD
ATOM     12  H   UNL     1      42.552   5.183  10.524  0.00  0.00    +0.000 HD
ENDBRANCH   9  10
ENDBRANCH   1   9
BRANCH   5  13
ATOM     13  C   UNL     1      47.270   4.223  16.116  0.00  0.00    +0.000 C 
BRANCH  13  14
ATOM     14  C   UNL     1      48.492   4.472  17.023  0.00  0.00    +0.000 C 
ATOM     15  C   UNL     1      48.124   4.379  18.515  0.00  0.00    +0.000 C 
ATOM     16  C   UNL     1      47.321   5.594  18.983  0.00  0.00    +0.000 C 
ATOM     17  C   UNL     1      47.991   6.906  18.578  0.00  0.00    +0.000 C 
ATOM     18  N   UNL     1      48.270   6.952  17.144  0.00  0.00    +0.000 NA
ATOM     19  C   UNL     1      49.132   5.839  16.738  0.00  0.00    +0.000 C 
ATOM     20  H   UNL     1      48.734   7.832  16.916  0.00  0.00    +0.000 HD
ENDBRANCH  13  14
ENDBRANCH   5  13
TORSDOF 4
ENDMDL
MODEL 7
REMARK VINA RESULT:    -5.354      2.281      3.433
REMARK INTER + INTRA:          -6.973
REMARK INTER:                  -6.919
REMARK INTRA:                  -0.053
REMARK UNBOUND:                -0.523
REMARK  Name = 
REMARK  4 active torsions:
REMARK  status: ('A' for Active; 'I' for Inactive)
REMARK    1  A    between atoms: N_1  and  C_2
REMARK    2  A    between atoms: C_2  and  C_3
REMARK    3  A    between atoms: N_7  and  C_8
REMARK    4  A    between atoms: C_8  and  C_9
REMARK                            x       y       z     vdW  Elec       q    Type
REMARK                         _______ _______ _______ _____ _____    ______ ____
ROOT
ATOM      1  C   UNL     1      45.270   3.824   8.695  0.00  0.00    +0.000 A 
ATOM      2  C   UNL     1      44.676   2.945   9.578  0.00  0.00    +0.000 A 
ATOM      3  N   UNL     1      44.460   3.215  10.881  0.00  0.00    +0.000 NA
ATOM      4  C   UNL     1      44.832   4.419  11.321  0.00  0.00    +0.000 A 
ATOM      5  N   UNL     1      44.560   4.706  12.637  0.00  0.00    +0.000 N 
ATOM      6  N   UNL     1      45.425   5.345  10.540  0.00  0.00    +0.000 NA
ATOM      7  C   UNL     1      45.638   5.020   9.257  0.00  0.00    +0.000 A 
ATOM      8  H   UNL     1      44.343   3.838  13.120  0.00  0.00    +0.000 HD
ENDROOT
BRANCH   1   9
ATOM      9  C   UNL     1      45.496   3.514   7.255  0.00  0.00    +0.000 C 
BRANCH   9  10
ATOM     10  N   UNL     1      46.746   4.090   6.776  0.00  0.00    +0.000 NA
ATOM     11  H   UNL     1      46.723   4.150   5.760  0.00  0.00    +0.000 HD
ATOM     12  H   UNL     1      47.519   3.466   7.008  0.00  0.00    +0.000 HD
ENDBRANCH   9  10
ENDBRANCH   1   9
BRANCH   5  13
ATOM     13  C   UNL     1      45.467   5.620  13.311  0.00  0.00    +0.000 C 
BRANCH  13  14
ATOM     14  C   UNL     1      46.909   5.077  13.256  0.00  0.00    +0.000 C 
ATOM     15  C   UNL     1      47.097   3.863  14.184  0.00  0.00    +0.000 C 
ATOM     16  C   UNL     1      47.130   4.270  15.659  0.00  0.00    +0.000 C 
ATOM     17  C   UNL     1      48.111   5.415  15.907  0.00  0.00    +0.000 C 
ATOM     18  N   UNL     1      47.851   6.554  15.029  0.00  0.00    +0.000 NA
ATOM     19  C   UNL     1      47.932   6.162  13.619  0.00  0.00    +0.000 C 
ATOM     20  H   UNL     1      48.536   7.286  15.211  0.00  0.00    +0.000 HD
ENDBRANCH  13  14
ENDBRANCH   5  13
TORSDOF 4
ENDMDL
MODEL 8
REMARK VINA RESULT:    -5.293      3.353      5.629
REMARK INTER + INTRA:          -6.900
REMARK INTER:                  -6.369
REMARK INTRA:                  -0.531
REMARK UNBOUND:                -0.523
REMARK  Name = 
REMARK  4 active torsions:
REMARK  status: ('A' for Active; 'I' for Inactive)
REMARK    1  A    between atoms: N_1  and  C_2
REMARK    2  A    between atoms: C_2  and  C_3
REMARK    3  A    between atoms: N_7  and  C_8
REMARK    4  A    between atoms: C_8  and  C_9
REMARK                            x       y       z     vdW  Elec       q    Type
REMARK                         _______ _______ _______ _____ _____    ______ ____
ROOT
ATOM      1  C   UNL     1      48.621   7.785  12.214  0.00  0.00    +0.000 A 
ATOM      2  C   UNL     1      47.423   8.435  11.993  0.00  0.00    +0.000 A 
ATOM      3  N   UNL     1      46.217   7.920  12.302  0.00  0.00    +0.000 NA
ATOM      4  C   UNL     1      46.200   6.714  12.873  0.00  0.00    +0.000 A 
ATOM      5  N   UNL     1      44.969   6.219  13.233  0.00  0.00    +0.000 N 
ATOM      6  N   UNL     1      47.313   5.996  13.126  0.00  0.00    +0.000 NA
ATOM      7  C   UNL     1      48.488   6.543  12.780  0.00  0.00    +0.000 A 
ATOM      8  H   UNL     1      44.251   6.762  12.762  0.00  0.00    +0.000 HD
ENDROOT
BRANCH   1   9
ATOM      9  C   UNL     1      49.948   8.371  11.874  0.00  0.00    +0.000 C 
BRANCH   9  10
ATOM     10  N   UNL     1      50.891   7.344  11.452  0.00  0.00    +0.000 NA
ATOM     11  H   UNL     1      50.509   6.840  10.655  0.00  0.00    +0.000 HD
ATOM     12  H   UNL     1      51.003   6.657  12.198  0.00  0.00    +0.000 HD
ENDBRANCH   9  10
ENDBRANCH   1   9
BRANCH   5  13
ATOM     13  C   UNL     1      44.813   4.773  13.214  0.00  0.00    +0.000 C 
BRANCH  13  14
ATOM     14  C   UNL     1      43.472   4.391  12.557  0.00  0.00    +0.000 C 
ATOM     15  C   UNL     1      43.526   2.989  11.924  0.00  0.00    +0.000 C 
ATOM     16  C   UNL     1      44.351   2.974  10.635  0.00  0.00    +0.000 C 
ATOM     17  C   UNL     1      43.924   4.085   9.678  0.00  0.00    +0.000 C 
ATOM     18  N   UNL     1      43.939   5.396  10.324  0.00  0.00    +0.000 NA
ATOM     19  C   UNL     1      43.055   5.417  11.494  0.00  0.00    +0.000 C 
ATOM     20  H   UNL     1      43.629   6.106   9.661  0.00  0.00    +0.000 HD
ENDBRANCH  13  14
ENDBRANCH   5  13
TORSDOF 4
ENDMDL
MODEL 9
REMARK VINA RESULT:    -5.173      3.047      4.756
REMARK INTER + INTRA:          -6.755
REMARK INTER:                  -6.256
REMARK INTRA:                  -0.499
REMARK UNBOUND:                -0.523
REMARK  Name = 
REMARK  4 active torsions:
REMARK  status: ('A' for Active; 'I' for Inactive)
REMARK    1  A    between atoms: N_1  and  C_2
REMARK    2  A    between atoms: C_2  and  C_3
REMARK    3  A    between atoms: N_7  and  C_8
REMARK    4  A    between atoms: C_8  and  C_9
REMARK                            x       y       z     vdW  Elec       q    Type
REMARK                         _______ _______ _______ _____ _____    ______ ____
ROOT
ATOM      1  C   UNL     1      44.779   3.515  10.534  0.00  0.00    +0.000 A 
ATOM      2  C   UNL     1      45.225   3.262  11.816  0.00  0.00    +0.000 A 
ATOM      3  N   UNL     1      45.539   4.222  12.709  0.00  0.00    +0.000 NA
ATOM      4  C   UNL     1      45.383   5.488  12.319  0.00  0.00    +0.000 A 
ATOM      5  N   UNL     1      45.655   6.460  13.252  0.00  0.00    +0.000 N 
ATOM      6  N   UNL     1      44.959   5.840  11.088  0.00  0.00    +0.000 NA
ATOM      7  C   UNL     1      44.680   4.849  10.229  0.00  0.00    +0.000 A 
ATOM      8  H   UNL     1      46.178   6.039  14.015  0.00  0.00    +0.000 HD
ENDROOT
BRANCH   1   9
ATOM      9  C   UNL     1      44.429   2.443   9.560  0.00  0.00    +0.000 C 
BRANCH   9  10
ATOM     10  N   UNL     1      45.612   1.716   9.120  0.00  0.00    +0.000 NA
ATOM     11  H   UNL     1      46.335   2.379   8.848  0.00  0.00    +0.000 HD
ATOM     12  H   UNL     1      45.388   1.178   8.282  0.00  0.00    +0.000 HD
ENDBRANCH   9  10
ENDBRANCH   1   9
BRANCH   5  13
ATOM     13  C   UNL     1      46.141   7.735  12.751  0.00  0.00    +0.000 C 
BRANCH  13  14
ATOM     14  C   UNL     1      47.340   8.215  13.591  0.00  0.00    +0.000 C 
ATOM     15  C   UNL     1      48.199   9.239  12.827  0.00  0.00    +0.000 C 
ATOM     16  C   UNL     1      49.026   8.581  11.721  0.00  0.00    +0.000 C 
ATOM     17  C   UNL     1      49.798   7.368  12.239  0.00  0.00    +0.000 C 
ATOM     18  N   UNL     1      48.921   6.412  12.911  0.00  0.00    +0.000 NA
ATOM     19  C   UNL     1      48.221   7.039  14.036  0.00  0.00    +0.000 C 
ATOM     20  H   UNL     1      49.474   5.629  13.259  0.00  0.00    +0.000 HD
ENDBRANCH  13  14
ENDBRANCH   5  13
TORSDOF 4
ENDMDL
