MODEL 1
REMARK VINA RESULT:    -7.312      0.000      0.000
REMARK INTER + INTRA:         -11.871
REMARK INTER:                 -10.732
REMARK INTRA:                  -1.139
REMARK UNBOUND:                -1.139
REMARK  Name = 
REMARK  9 active torsions:
REMARK  status: ('A' for Active; 'I' for Inactive)
REMARK    1  A    between atoms: N_1  and  C_2
REMARK    2  A    between atoms: C_2  and  C_3
REMARK    3  A    between atoms: C_7  and  C_8
REMARK    4  A    between atoms: C_8  and  C_9
REMARK    5  A    between atoms: C_9  and  N_10
REMARK    6  A    between atoms: N_10  and  C_11
REMARK    7  A    between atoms: C_14  and  C_15
REMARK    8  A    between atoms: C_19  and  C_20
REMARK    9  A    between atoms: C_20  and  O_21
REMARK                            x       y       z     vdW  Elec       q    Type
REMARK                         _______ _______ _______ _____ _____    ______ ____
ROOT
ATOM      1  N   UNL     1      44.019   3.632  12.777  0.00  0.00    +0.000 N 
ATOM      2  H   UNL     1      43.963   3.260  13.720  0.00  0.00    +0.000 HD
ENDROOT
BRANCH   1   3
ATOM      3  C   UNL     1      44.721   4.861  12.823  0.00  0.00    +0.000 A 
ATOM      4  N   UNL     1      45.891   4.903  13.502  0.00  0.00    +0.000 NA
ATOM      5  C   UNL     1      46.575   6.066  13.584  0.00  0.00    +0.000 A 
ATOM      6  C   UNL     1      46.164   7.235  12.975  0.00  0.00    +0.000 A 
ATOM      7  C   UNL     1      44.978   7.194  12.253  0.00  0.00    +0.000 A 
ATOM      8  C   UNL     1      44.221   6.007  12.178  0.00  0.00    +0.000 A 
BRANCH   6   9
ATOM      9  C   UNL     1      46.969   8.463  13.148  0.00  0.00    +0.000 C 
ATOM     10  N   UNL     1      47.205   8.886  14.422  0.00  0.00    +0.000 N 
ATOM     11  O   UNL     1      47.396   9.082  12.180  0.00  0.00    +0.000 OA
ATOM     12  H   UNL     1      46.716   8.525  15.229  0.00  0.00    +0.000 HD
ATOM     13  H   UNL     1      47.711   9.758  14.530  0.00  0.00    +0.000 HD
ENDBRANCH   6   9
BRANCH   8  14
ATOM     14  C   UNL     1      42.970   5.995  11.340  0.00  0.00    +0.000 C 
BRANCH  14  15
ATOM     15  O   UNL     1      41.906   5.309  12.008  0.00  0.00    +0.000 OA
ATOM     16  H   UNL     1      41.875   4.409  11.642  0.00  0.00    +0.000 HD
ENDBRANCH  14  15
ENDBRANCH   8  14
ENDBRANCH   1   3
BRANCH   1  17
ATOM     17  C   UNL     1      44.664   2.660  11.868  0.00  0.00    +0.000 C 
BRANCH  17  18
ATOM     18  C   UNL     1      44.009   2.627  10.480  0.00  0.00    +0.000 C 
BRANCH  18  23
ATOM     19  C   UNL     1      46.572   2.259   7.656  0.00  0.00    +0.000 A 
ATOM     20  C   UNL     1      46.750   3.596   7.281  0.00  0.00    +0.000 A 
ATOM     21  C   UNL     1      46.090   4.617   7.965  0.00  0.00    +0.000 A 
ATOM     22  C   UNL     1      45.231   4.314   9.023  0.00  0.00    +0.000 A 
ATOM     23  C   UNL     1      45.021   2.982   9.408  0.00  0.00    +0.000 A 
ATOM     24  C   UNL     1      45.702   1.964   8.720  0.00  0.00    +0.000 A 
BRANCH  19  25
ATOM     25  C   UNL     1      47.256   1.150   6.896  0.00  0.00    +0.000 C 
BRANCH  25  26
ATOM     26  N   UNL     1      48.318   1.655   6.032  0.00  0.00    +0.000 NA
ATOM     27  H   UNL     1      49.101   1.006   6.055  0.00  0.00    +0.000 HD
ATOM     28  H   UNL     1      48.660   2.534   6.418  0.00  0.00    +0.000 HD
ENDBRANCH  25  26
ENDBRANCH  19  25
ENDBRANCH  18  23
ENDBRANCH  17  18
ENDBRANCH   1  17
TORSDOF 9
ENDMDL
MODEL 2
REMARK VINA RESULT:    -7.252      1.653      2.074
REMARK INTER + INTRA:         -11.783
REMARK INTER:                 -10.830
REMARK INTRA:                  -0.954
REMARK UNBOUND:                -1.139
REMARK  Name = 
REMARK  9 active torsions:
REMARK  status: ('A' for Active; 'I' for Inactive)
REMARK    1  A    between atoms: N_1  and  C_2
REMARK    2  A    between atoms: C_2  and  C_3
REMARK    3  A    between atoms: C_7  and  C_8
REMARK    4  A    between atoms: C_8  and  C_9
REMARK    5  A    between atoms: C_9  and  N_10
REMARK    6  A    between atoms: N_10  and  C_11
REMARK    7  A    between atoms: C_14  and  C_15
REMARK    8  A    between atoms: C_19  and  C_20
REMARK    9  A    between atoms: C_20  and  O_21
REMARK                            x       y       z     vdW  Elec       q    Type
REMARK                         _______ _______ _______ _____ _____    ______ ____
ROOT
ATOM      1  N   UNL     1      43.735   4.011  12.501  0.00  0.00    +0.000 N 
ATOM      2  H   UNL     1      44.085   3.154  12.919  0.00  0.00    +0.000 HD
ENDROOT
BRANCH   1   3
ATOM      3  C   UNL     1      44.713   5.022  12.669  0.00  0.00    +0.000 A 
ATOM      4  N   UNL     1      44.340   6.309  12.476  0.00  0.00    +0.000 NA
ATOM      5  C   UNL     1      45.255   7.295  12.607  0.00  0.00    +0.000 A 
ATOM      6  C   UNL     1      46.569   7.072  12.969  0.00  0.00    +0.000 A 
ATOM      7  C   UNL     1      46.953   5.756  13.195  0.00  0.00    +0.000 A 
ATOM      8  C   UNL     1      46.034   4.700  13.032  0.00  0.00    +0.000 A 
BRANCH   6   9
ATOM      9  C   UNL     1      47.500   8.217  13.058  0.00  0.00    +0.000 C 
ATOM     10  N   UNL     1      47.042   9.355  13.655  0.00  0.00    +0.000 N 
ATOM     11  O   UNL     1      48.635   8.149  12.601  0.00  0.00    +0.000 OA
ATOM     12  H   UNL     1      46.069   9.521  13.865  0.00  0.00    +0.000 HD
ATOM     13  H   UNL     1      47.668  10.153  13.663  0.00  0.00    +0.000 HD
ENDBRANCH   6   9
BRANCH   8  14
ATOM     14  C   UNL     1      46.480   3.295  13.341  0.00  0.00    +0.000 C 
BRANCH  14  15
ATOM     15  O   UNL     1      47.513   3.287  14.332  0.00  0.00    +0.000 OA
ATOM     16  H   UNL     1      47.393   2.479  14.858  0.00  0.00    +0.000 HD
ENDBRANCH  14  15
ENDBRANCH   8  14
ENDBRANCH   1   3
BRANCH   1  17
ATOM     17  C   UNL     1      43.397   3.800  11.077  0.00  0.00    +0.000 C 
BRANCH  17  18
ATOM     18  C   UNL     1      44.072   2.552  10.491  0.00  0.00    +0.000 C 
BRANCH  18  23
ATOM     19  C   UNL     1      46.564   2.279   7.593  0.00  0.00    +0.000 A 
ATOM     20  C   UNL     1      46.720   3.627   7.247  0.00  0.00    +0.000 A 
ATOM     21  C   UNL     1      46.069   4.624   7.972  0.00  0.00    +0.000 A 
ATOM     22  C   UNL     1      45.240   4.287   9.044  0.00  0.00    +0.000 A 
ATOM     23  C   UNL     1      45.053   2.944   9.402  0.00  0.00    +0.000 A 
ATOM     24  C   UNL     1      45.725   1.950   8.671  0.00  0.00    +0.000 A 
BRANCH  19  25
ATOM     25  C   UNL     1      47.239   1.195   6.788  0.00  0.00    +0.000 C 
BRANCH  25  26
ATOM     26  N   UNL     1      48.353   1.714   6.001  0.00  0.00    +0.000 NA
ATOM     27  H   UNL     1      49.159   1.836   6.609  0.00  0.00    +0.000 HD
ATOM     28  H   UNL     1      48.104   2.641   5.660  0.00  0.00    +0.000 HD
ENDBRANCH  25  26
ENDBRANCH  19  25
ENDBRANCH  18  23
ENDBRANCH  17  18
ENDBRANCH   1  17
TORSDOF 9
ENDMDL
MODEL 3
REMARK VINA RESULT:    -7.246      2.776      6.607
REMARK INTER + INTRA:         -11.774
REMARK INTER:                 -11.302
REMARK INTRA:                  -0.472
REMARK UNBOUND:                -1.139
REMARK  Name = 
REMARK  9 active torsions:
REMARK  status: ('A' for Active; 'I' for Inactive)
REMARK    1  A    between atoms: N_1  and  C_2
REMARK    2  A    between atoms: C_2  and  C_3
REMARK    3  A    between atoms: C_7  and  C_8
REMARK    4  A    between atoms: C_8  and  C_9
REMARK    5  A    between atoms: C_9  and  N_10
REMARK    6  A    between atoms: N_10  and  C_11
REMARK    7  A    between atoms: C_14  and  C_15
REMARK    8  A    between atoms: C_19  and  C_20
REMARK    9  A    between atoms: C_20  and  O_21
REMARK                            x       y       z     vdW  Elec       q    Type
REMARK                         _______ _______ _______ _____ _____    ______ ____
ROOT
ATOM      1  N   UNL     1      43.893   5.139   9.752  0.00  0.00    +0.000 N 
ATOM      2  H   UNL     1      43.790   5.863   9.048  0.00  0.00    +0.000 HD
ENDROOT
BRANCH   1   3
ATOM      3  C   UNL     1      44.667   4.088   9.201  0.00  0.00    +0.000 A 
ATOM      4  N   UNL     1      45.472   4.371   8.151  0.00  0.00    +0.000 NA
ATOM      5  C   UNL     1      46.206   3.385   7.588  0.00  0.00    +0.000 A 
ATOM      6  C   UNL     1      46.214   2.084   8.049  0.00  0.00    +0.000 A 
ATOM      7  C   UNL     1      45.411   1.790   9.143  0.00  0.00    +0.000 A 
ATOM      8  C   UNL     1      44.604   2.786   9.732  0.00  0.00    +0.000 A 
BRANCH   6   9
ATOM      9  C   UNL     1      47.031   1.072   7.346  0.00  0.00    +0.000 C 
ATOM     10  N   UNL     1      46.787  -0.240   7.628  0.00  0.00    +0.000 N 
ATOM     11  O   UNL     1      47.902   1.402   6.549  0.00  0.00    +0.000 OA
ATOM     12  H   UNL     1      46.225  -0.547   8.408  0.00  0.00    +0.000 HD
ATOM     13  H   UNL     1      47.387  -0.925   7.183  0.00  0.00    +0.000 HD
ENDBRANCH   6   9
BRANCH   8  14
ATOM     14  C   UNL     1      43.791   2.435  10.950  0.00  0.00    +0.000 C 
BRANCH  14  15
ATOM     15  O   UNL     1      44.592   2.474  12.135  0.00  0.00    +0.000 OA
ATOM     16  H   UNL     1      45.325   1.849  12.002  0.00  0.00    +0.000 HD
ENDBRANCH  14  15
ENDBRANCH   8  14
ENDBRANCH   1   3
BRANCH   1  17
ATOM     17  C   UNL     1      44.502   5.686  10.983  0.00  0.00    +0.000 C 
BRANCH  17  18
ATOM     18  C   UNL     1      45.840   6.388  10.717  0.00  0.00    +0.000 C 
BRANCH  18  23
ATOM     19  C   UNL     1      47.302   5.515  14.149  0.00  0.00    +0.000 A 
ATOM     20  C   UNL     1      48.286   6.504  14.280  0.00  0.00    +0.000 A 
ATOM     21  C   UNL     1      48.446   7.477  13.294  0.00  0.00    +0.000 A 
ATOM     22  C   UNL     1      47.636   7.468  12.157  0.00  0.00    +0.000 A 
ATOM     23  C   UNL     1      46.654   6.480  11.993  0.00  0.00    +0.000 A 
ATOM     24  C   UNL     1      46.494   5.512  12.999  0.00  0.00    +0.000 A 
BRANCH  19  25
ATOM     25  C   UNL     1      47.150   4.440  15.196  0.00  0.00    +0.000 C 
BRANCH  25  26
ATOM     26  N   UNL     1      47.536   3.127  14.690  0.00  0.00    +0.000 NA
ATOM     27  H   UNL     1      46.849   2.821  14.005  0.00  0.00    +0.000 HD
ATOM     28  H   UNL     1      47.496   2.459  15.458  0.00  0.00    +0.000 HD
ENDBRANCH  25  26
ENDBRANCH  19  25
ENDBRANCH  18  23
ENDBRANCH  17  18
ENDBRANCH   1  17
TORSDOF 9
ENDMDL
MODEL 4
REMARK VINA RESULT:    -7.089      2.104      2.926
REMARK INTER + INTRA:         -11.544
REMARK INTER:                 -10.905
REMARK INTRA:                  -0.639
REMARK UNBOUND:                -1.139
REMARK  Name = 
REMARK  9 active torsions:
REMARK  status: ('A' for Active; 'I' for Inactive)
REMARK    1  A    between atoms: N_1  and  C_2
REMARK    2  A    between atoms: C_2  and  C_3
REMARK    3  A    between atoms: C_7  and  C_8
REMARK    4  A    between atoms: C_8  and  C_9
REMARK    5  A    between atoms: C_9  and  N_10
REMARK    6  A    between atoms: N_10  and  C_11
REMARK    7  A    between atoms: C_14  and  C_15
REMARK    8  A    between atoms: C_19  and  C_20
REMARK    9  A    between atoms: C_20  and  O_21
REMARK                            x       y       z     vdW  Elec       q    Type
REMARK                         _______ _______ _______ _____ _____    ______ ____
ROOT
ATOM      1  N   UNL     1      45.078   6.246  10.872  0.00  0.00    +0.000 N 
ATOM      2  H   UNL     1      44.070   6.152  10.952  0.00  0.00    +0.000 HD
ENDROOT
BRANCH   1   3
ATOM      3  C   UNL     1      45.664   5.807  12.084  0.00  0.00    +0.000 A 
ATOM      4  N   UNL     1      46.913   6.237  12.382  0.00  0.00    +0.000 NA
ATOM      5  C   UNL     1      47.509   5.819  13.521  0.00  0.00    +0.000 A 
ATOM      6  C   UNL     1      46.898   4.990  14.440  0.00  0.00    +0.000 A 
ATOM      7  C   UNL     1      45.605   4.566  14.156  0.00  0.00    +0.000 A 
ATOM      8  C   UNL     1      44.968   4.953  12.959  0.00  0.00    +0.000 A 
BRANCH   6   9
ATOM      9  C   UNL     1      47.646   4.566  15.643  0.00  0.00    +0.000 C 
ATOM     10  N   UNL     1      47.155   3.506  16.347  0.00  0.00    +0.000 N 
ATOM     11  O   UNL     1      48.660   5.154  15.999  0.00  0.00    +0.000 OA
ATOM     12  H   UNL     1      46.232   3.122  16.207  0.00  0.00    +0.000 HD
ATOM     13  H   UNL     1      47.643   3.256  17.200  0.00  0.00    +0.000 HD
ENDBRANCH   6   9
BRANCH   8  14
ATOM     14  C   UNL     1      43.548   4.514  12.718  0.00  0.00    +0.000 C 
BRANCH  14  15
ATOM     15  O   UNL     1      42.619   5.384  13.374  0.00  0.00    +0.000 OA
ATOM     16  H   UNL     1      42.315   6.026  12.710  0.00  0.00    +0.000 HD
ENDBRANCH  14  15
ENDBRANCH   8  14
ENDBRANCH   1   3
BRANCH   1  17
ATOM     17  C   UNL     1      45.585   5.488   9.707  0.00  0.00    +0.000 C 
BRANCH  17  18
ATOM     18  C   UNL     1      44.528   4.547   9.112  0.00  0.00    +0.000 C 
BRANCH  18  23
ATOM     19  C   UNL     1      46.610   2.516   6.618  0.00  0.00    +0.000 A 
ATOM     20  C   UNL     1      46.608   1.257   7.232  0.00  0.00    +0.000 A 
ATOM     21  C   UNL     1      45.900   1.047   8.415  0.00  0.00    +0.000 A 
ATOM     22  C   UNL     1      45.196   2.096   9.009  0.00  0.00    +0.000 A 
ATOM     23  C   UNL     1      45.194   3.371   8.424  0.00  0.00    +0.000 A 
ATOM     24  C   UNL     1      45.901   3.566   7.226  0.00  0.00    +0.000 A 
BRANCH  19  25
ATOM     25  C   UNL     1      47.404   2.755   5.357  0.00  0.00    +0.000 C 
BRANCH  25  26
ATOM     26  N   UNL     1      48.537   1.842   5.244  0.00  0.00    +0.000 NA
ATOM     27  H   UNL     1      49.368   2.375   5.000  0.00  0.00    +0.000 HD
ATOM     28  H   UNL     1      48.363   1.205   4.468  0.00  0.00    +0.000 HD
ENDBRANCH  25  26
ENDBRANCH  19  25
ENDBRANCH  18  23
ENDBRANCH  17  18
ENDBRANCH   1  17
TORSDOF 9
ENDMDL
MODEL 5
REMARK VINA RESULT:    -6.981      2.864      6.801
REMARK INTER + INTRA:         -11.386
REMARK INTER:                 -10.573
REMARK INTRA:                  -0.813
REMARK UNBOUND:                -1.139
REMARK  Name = 
REMARK  9 active torsions:
REMARK  status: ('A' for Active; 'I' for Inactive)
REMARK    1  A    between atoms: N_1  and  C_2
REMARK    2  A    between atoms: C_2  and  C_3
REMARK    3  A    between atoms: C_7  and  C_8
REMARK    4  A    between atoms: C_8  and  C_9
REMARK    5  A    between atoms: C_9  and  N_10
REMARK    6  A    between atoms: N_10  and  C_11
REMARK    7  A    between atoms: C_14  and  C_15
REMARK    8  A    between atoms: C_19  and  C_20
REMARK    9  A    between atoms: C_20  and  O_21
REMARK                            x       y       z     vdW  Elec       q    Type
REMARK                         _______ _______ _______ _____ _____    ______ ____
ROOT
ATOM      1  N   UNL     1      44.104   5.146  10.061  0.00  0.00    +0.000 N 
ATOM      2  H   UNL     1      43.470   5.626   9.429  0.00  0.00    +0.000 HD
ENDROOT
BRANCH   1   3
ATOM      3  C   UNL     1      44.898   4.252   9.301  0.00  0.00    +0.000 A 
ATOM      4  N   UNL     1      45.756   4.774   8.394  0.00  0.00    +0.000 NA
ATOM      5  C   UNL     1      46.512   3.947   7.638  0.00  0.00    +0.000 A 
ATOM      6  C   UNL     1      46.490   2.572   7.758  0.00  0.00    +0.000 A 
ATOM      7  C   UNL     1      45.632   2.029   8.706  0.00  0.00    +0.000 A 
ATOM      8  C   UNL     1      44.802   2.861   9.486  0.00  0.00    +0.000 A 
BRANCH   6   9
ATOM      9  C   UNL     1      47.336   1.753   6.863  0.00  0.00    +0.000 C 
ATOM     10  N   UNL     1      48.366   2.379   6.224  0.00  0.00    +0.000 N 
ATOM     11  O   UNL     1      47.111   0.560   6.695  0.00  0.00    +0.000 OA
ATOM     12  H   UNL     1      48.467   3.382   6.180  0.00  0.00    +0.000 HD
ATOM     13  H   UNL     1      48.906   1.823   5.571  0.00  0.00    +0.000 HD
ENDBRANCH   6   9
BRANCH   8  14
ATOM     14  C   UNL     1      43.928   2.232  10.538  0.00  0.00    +0.000 C 
BRANCH  14  15
ATOM     15  O   UNL     1      44.397   2.542  11.854  0.00  0.00    +0.000 OA
ATOM     16  H   UNL     1      43.612   2.706  12.404  0.00  0.00    +0.000 HD
ENDBRANCH  14  15
ENDBRANCH   8  14
ENDBRANCH   1   3
BRANCH   1  17
ATOM     17  C   UNL     1      44.928   6.115  10.813  0.00  0.00    +0.000 C 
BRANCH  17  18
ATOM     18  C   UNL     1      45.695   5.462  11.972  0.00  0.00    +0.000 C 
BRANCH  18  23
ATOM     19  C   UNL     1      48.572   6.947  14.021  0.00  0.00    +0.000 A 
ATOM     20  C   UNL     1      49.236   7.698  13.044  0.00  0.00    +0.000 A 
ATOM     21  C   UNL     1      48.735   7.769  11.744  0.00  0.00    +0.000 A 
ATOM     22  C   UNL     1      47.572   7.078  11.399  0.00  0.00    +0.000 A 
ATOM     23  C   UNL     1      46.896   6.306  12.354  0.00  0.00    +0.000 A 
ATOM     24  C   UNL     1      47.403   6.253  13.663  0.00  0.00    +0.000 A 
BRANCH  19  25
ATOM     25  C   UNL     1      49.130   6.839  15.419  0.00  0.00    +0.000 C 
BRANCH  25  26
ATOM     26  N   UNL     1      50.580   6.678  15.417  0.00  0.00    +0.000 NA
ATOM     27  H   UNL     1      51.008   7.541  15.088  0.00  0.00    +0.000 HD
ATOM     28  H   UNL     1      50.825   5.958  14.740  0.00  0.00    +0.000 HD
ENDBRANCH  25  26
ENDBRANCH  19  25
ENDBRANCH  18  23
ENDBRANCH  17  18
ENDBRANCH   1  17
TORSDOF 9
ENDMDL
MODEL 6
REMARK VINA RESULT:    -6.469      2.724      6.522
REMARK INTER + INTRA:         -10.633
REMARK INTER:                 -10.438
REMARK INTRA:                  -0.195
REMARK UNBOUND:                -1.139
REMARK  Name = 
REMARK  9 active torsions:
REMARK  status: ('A' for Active; 'I' for Inactive)
REMARK    1  A    between atoms: N_1  and  C_2
REMARK    2  A    between atoms: C_2  and  C_3
REMARK    3  A    between atoms: C_7  and  C_8
REMARK    4  A    between atoms: C_8  and  C_9
REMARK    5  A    between atoms: C_9  and  N_10
REMARK    6  A    between atoms: N_10  and  C_11
REMARK    7  A    between atoms: C_14  and  C_15
REMARK    8  A    between atoms: C_19  and  C_20
REMARK    9  A    between atoms: C_20  and  O_21
REMARK                            x       y       z     vdW  Elec       q    Type
REMARK                         _______ _______ _______ _____ _____    ______ ____
ROOT
ATOM      1  N   UNL     1      43.647   5.488  10.284  0.00  0.00    +0.000 N 
ATOM      2  H   UNL     1      43.551   6.237   9.605  0.00  0.00    +0.000 HD
ENDROOT
BRANCH   1   3
ATOM      3  C   UNL     1      44.369   4.429   9.680  0.00  0.00    +0.000 A 
ATOM      4  N   UNL     1      45.175   4.722   8.634  0.00  0.00    +0.000 NA
ATOM      5  C   UNL     1      45.861   3.731   8.022  0.00  0.00    +0.000 A 
ATOM      6  C   UNL     1      45.818   2.412   8.427  0.00  0.00    +0.000 A 
ATOM      7  C   UNL     1      45.013   2.107   9.518  0.00  0.00    +0.000 A 
ATOM      8  C   UNL     1      44.256   3.110  10.157  0.00  0.00    +0.000 A 
BRANCH   6   9
ATOM      9  C   UNL     1      46.583   1.397   7.673  0.00  0.00    +0.000 C 
ATOM     10  N   UNL     1      47.366   1.835   6.646  0.00  0.00    +0.000 N 
ATOM     11  O   UNL     1      46.507   0.206   7.954  0.00  0.00    +0.000 OA
ATOM     12  H   UNL     1      47.309   2.765   6.259  0.00  0.00    +0.000 HD
ATOM     13  H   UNL     1      47.845   1.127   6.100  0.00  0.00    +0.000 HD
ENDBRANCH   6   9
BRANCH   8  14
ATOM     14  C   UNL     1      43.440   2.743  11.368  0.00  0.00    +0.000 C 
BRANCH  14  15
ATOM     15  O   UNL     1      44.279   2.511  12.505  0.00  0.00    +0.000 OA
ATOM     16  H   UNL     1      43.980   1.680  12.912  0.00  0.00    +0.000 HD
ENDBRANCH  14  15
ENDBRANCH   8  14
ENDBRANCH   1   3
BRANCH   1  17
ATOM     17  C   UNL     1      44.305   5.975  11.515  0.00  0.00    +0.000 C 
BRANCH  17  18
ATOM     18  C   UNL     1      45.825   5.761  11.494  0.00  0.00    +0.000 C 
BRANCH  18  23
ATOM     19  C   UNL     1      48.631   8.342  11.871  0.00  0.00    +0.000 A 
ATOM     20  C   UNL     1      47.895   9.495  12.175  0.00  0.00    +0.000 A 
ATOM     21  C   UNL     1      46.508   9.434  12.307  0.00  0.00    +0.000 A 
ATOM     22  C   UNL     1      45.836   8.224  12.124  0.00  0.00    +0.000 A 
ATOM     23  C   UNL     1      46.547   7.058  11.804  0.00  0.00    +0.000 A 
ATOM     24  C   UNL     1      47.945   7.130  11.686  0.00  0.00    +0.000 A 
BRANCH  19  25
ATOM     25  C   UNL     1      50.128   8.411  11.692  0.00  0.00    +0.000 C 
BRANCH  25  26
ATOM     26  N   UNL     1      50.841   7.875  12.847  0.00  0.00    +0.000 NA
ATOM     27  H   UNL     1      51.758   8.312  12.901  0.00  0.00    +0.000 HD
ATOM     28  H   UNL     1      51.003   6.881  12.695  0.00  0.00    +0.000 HD
ENDBRANCH  25  26
ENDBRANCH  19  25
ENDBRANCH  18  23
ENDBRANCH  17  18
ENDBRANCH   1  17
TORSDOF 9
ENDMDL
MODEL 7
REMARK VINA RESULT:    -6.110      3.139      4.696
REMARK INTER + INTRA:         -10.108
REMARK INTER:                  -9.340
REMARK INTRA:                  -0.768
REMARK UNBOUND:                -1.139
REMARK  Name = 
REMARK  9 active torsions:
REMARK  status: ('A' for Active; 'I' for Inactive)
REMARK    1  A    between atoms: N_1  and  C_2
REMARK    2  A    between atoms: C_2  and  C_3
REMARK    3  A    between atoms: C_7  and  C_8
REMARK    4  A    between atoms: C_8  and  C_9
REMARK    5  A    between atoms: C_9  and  N_10
REMARK    6  A    between atoms: N_10  and  C_11
REMARK    7  A    between atoms: C_14  and  C_15
REMARK    8  A    between atoms: C_19  and  C_20
REMARK    9  A    between atoms: C_20  and  O_21
REMARK                            x       y       z     vdW  Elec       q    Type
REMARK                         _______ _______ _______ _____ _____    ______ ____
ROOT
ATOM      1  N   UNL     1      47.022   5.677  12.873  0.00  0.00    +0.000 N 
ATOM      2  H   UNL     1      47.631   6.409  12.519  0.00  0.00    +0.000 HD
ENDROOT
BRANCH   1   3
ATOM      3  C   UNL     1      47.390   5.401  14.213  0.00  0.00    +0.000 A 
ATOM      4  N   UNL     1      46.816   4.341  14.827  0.00  0.00    +0.000 NA
ATOM      5  C   UNL     1      47.129   4.064  16.112  0.00  0.00    +0.000 A 
ATOM      6  C   UNL     1      48.046   4.789  16.846  0.00  0.00    +0.000 A 
ATOM      7  C   UNL     1      48.661   5.863  16.214  0.00  0.00    +0.000 A 
ATOM      8  C   UNL     1      48.331   6.202  14.886  0.00  0.00    +0.000 A 
BRANCH   6   9
ATOM      9  C   UNL     1      48.299   4.422  18.255  0.00  0.00    +0.000 C 
ATOM     10  N   UNL     1      48.952   3.248  18.493  0.00  0.00    +0.000 N 
ATOM     11  O   UNL     1      47.925   5.141  19.175  0.00  0.00    +0.000 OA
ATOM     12  H   UNL     1      49.101   2.541  17.788  0.00  0.00    +0.000 HD
ATOM     13  H   UNL     1      49.073   2.978  19.462  0.00  0.00    +0.000 HD
ENDBRANCH   6   9
BRANCH   8  14
ATOM     14  C   UNL     1      49.062   7.340  14.224  0.00  0.00    +0.000 C 
BRANCH  14  15
ATOM     15  O   UNL     1      49.811   6.885  13.093  0.00  0.00    +0.000 OA
ATOM     16  H   UNL     1      50.311   7.649  12.758  0.00  0.00    +0.000 HD
ENDBRANCH  14  15
ENDBRANCH   8  14
ENDBRANCH   1   3
BRANCH   1  17
ATOM     17  C   UNL     1      45.602   6.076  12.761  0.00  0.00    +0.000 C 
BRANCH  17  18
ATOM     18  C   UNL     1      45.181   6.351  11.311  0.00  0.00    +0.000 C 
BRANCH  18  23
ATOM     19  C   UNL     1      45.262   3.583   8.664  0.00  0.00    +0.000 A 
ATOM     20  C   UNL     1      44.534   2.575   9.309  0.00  0.00    +0.000 A 
ATOM     21  C   UNL     1      43.975   2.800  10.567  0.00  0.00    +0.000 A 
ATOM     22  C   UNL     1      44.149   4.030  11.204  0.00  0.00    +0.000 A 
ATOM     23  C   UNL     1      44.888   5.051  10.589  0.00  0.00    +0.000 A 
ATOM     24  C   UNL     1      45.435   4.816   9.316  0.00  0.00    +0.000 A 
BRANCH  19  25
ATOM     25  C   UNL     1      45.898   3.331   7.319  0.00  0.00    +0.000 C 
BRANCH  25  26
ATOM     26  N   UNL     1      46.919   4.324   7.003  0.00  0.00    +0.000 NA
ATOM     27  H   UNL     1      46.980   4.426   5.993  0.00  0.00    +0.000 HD
ATOM     28  H   UNL     1      47.823   3.970   7.313  0.00  0.00    +0.000 HD
ENDBRANCH  25  26
ENDBRANCH  19  25
ENDBRANCH  18  23
ENDBRANCH  17  18
ENDBRANCH   1  17
TORSDOF 9
ENDMDL
MODEL 8
REMARK VINA RESULT:    -6.044      4.429      7.643
REMARK INTER + INTRA:         -10.010
REMARK INTER:                  -9.301
REMARK INTRA:                  -0.709
REMARK UNBOUND:                -1.139
REMARK  Name = 
REMARK  9 active torsions:
REMARK  status: ('A' for Active; 'I' for Inactive)
REMARK    1  A    between atoms: N_1  and  C_2
REMARK    2  A    between atoms: C_2  and  C_3
REMARK    3  A    between atoms: C_7  and  C_8
REMARK    4  A    between atoms: C_8  and  C_9
REMARK    5  A    between atoms: C_9  and  N_10
REMARK    6  A    between atoms: N_10  and  C_11
REMARK    7  A    between atoms: C_14  and  C_15
REMARK    8  A    between atoms: C_19  and  C_20
REMARK    9  A    between atoms: C_20  and  O_21
REMARK                            x       y       z     vdW  Elec       q    Type
REMARK                         _______ _______ _______ _____ _____    ______ ____
ROOT
ATOM      1  N   UNL     1      47.353   5.206  14.827  0.00  0.00    +0.000 N 
ATOM      2  H   UNL     1      48.332   5.260  14.561  0.00  0.00    +0.000 HD
ENDROOT
BRANCH   1   3
ATOM      3  C   UNL     1      46.591   4.920  13.667  0.00  0.00    +0.000 A 
ATOM      4  N   UNL     1      45.965   3.723  13.595  0.00  0.00    +0.000 NA
ATOM      5  C   UNL     1      45.248   3.410  12.492  0.00  0.00    +0.000 A 
ATOM      6  C   UNL     1      45.080   4.269  11.425  0.00  0.00    +0.000 A 
ATOM      7  C   UNL     1      45.697   5.511  11.503  0.00  0.00    +0.000 A 
ATOM      8  C   UNL     1      46.482   5.856  12.622  0.00  0.00    +0.000 A 
BRANCH   6   9
ATOM      9  C   UNL     1      44.299   3.822  10.251  0.00  0.00    +0.000 C 
ATOM     10  N   UNL     1      44.196   4.684   9.199  0.00  0.00    +0.000 N 
ATOM     11  O   UNL     1      43.756   2.723  10.232  0.00  0.00    +0.000 OA
ATOM     12  H   UNL     1      44.456   5.658   9.249  0.00  0.00    +0.000 HD
ATOM     13  H   UNL     1      43.614   4.392   8.422  0.00  0.00    +0.000 HD
ENDBRANCH   6   9
BRANCH   8  14
ATOM     14  C   UNL     1      47.087   7.233  12.688  0.00  0.00    +0.000 C 
BRANCH  14  15
ATOM     15  O   UNL     1      46.794   7.867  13.938  0.00  0.00    +0.000 OA
ATOM     16  H   UNL     1      46.213   8.622  13.743  0.00  0.00    +0.000 HD
ENDBRANCH  14  15
ENDBRANCH   8  14
ENDBRANCH   1   3
BRANCH   1  17
ATOM     17  C   UNL     1      47.152   4.193  15.885  0.00  0.00    +0.000 C 
BRANCH  17  18
ATOM     18  C   UNL     1      47.560   4.702  17.274  0.00  0.00    +0.000 C 
BRANCH  18  23
ATOM     19  C   UNL     1      50.829   2.710  17.419  0.00  0.00    +0.000 A 
ATOM     20  C   UNL     1      51.708   3.675  17.925  0.00  0.00    +0.000 A 
ATOM     21  C   UNL     1      51.244   4.946  18.266  0.00  0.00    +0.000 A 
ATOM     22  C   UNL     1      49.898   5.273  18.092  0.00  0.00    +0.000 A 
ATOM     23  C   UNL     1      48.999   4.331  17.572  0.00  0.00    +0.000 A 
ATOM     24  C   UNL     1      49.477   3.050  17.245  0.00  0.00    +0.000 A 
BRANCH  19  25
ATOM     25  C   UNL     1      51.334   1.346  17.016  0.00  0.00    +0.000 C 
BRANCH  25  26
ATOM     26  N   UNL     1      51.469   0.454  18.163  0.00  0.00    +0.000 NA
ATOM     27  H   UNL     1      52.455   0.249  18.309  0.00  0.00    +0.000 HD
ATOM     28  H   UNL     1      51.020  -0.433  17.938  0.00  0.00    +0.000 HD
ENDBRANCH  25  26
ENDBRANCH  19  25
ENDBRANCH  18  23
ENDBRANCH  17  18
ENDBRANCH   1  17
TORSDOF 9
ENDMDL
MODEL 9
REMARK VINA RESULT:    -5.986      4.572      7.034
REMARK INTER + INTRA:          -9.924
REMARK INTER:                  -9.277
REMARK INTRA:                  -0.648
REMARK UNBOUND:                -1.139
REMARK  Name = 
REMARK  9 active torsions:
REMARK  status: ('A' for Active; 'I' for Inactive)
REMARK    1  A    between atoms: N_1  and  C_2
REMARK    2  A    between atoms: C_2  and  C_3
REMARK    3  A    between atoms: C_7  and  C_8
REMARK    4  A    between atoms: C_8  and  C_9
REMARK    5  A    between atoms: C_9  and  N_10
REMARK    6  A    between atoms: N_10  and  C_11
REMARK    7  A    between atoms: C_14  and  C_15
REMARK    8  A    between atoms: C_19  and  C_20
REMARK    9  A    between atoms: C_20  and  O_21
REMARK                            x       y       z     vdW  Elec       q    Type
REMARK                         _______ _______ _______ _____ _____    ______ ____
ROOT
ATOM      1  N   UNL     1      46.926   4.048  14.327  0.00  0.00    +0.000 N 
ATOM      2  H   UNL     1      46.333   3.228  14.240  0.00  0.00    +0.000 HD
ENDROOT
BRANCH   1   3
ATOM      3  C   UNL     1      46.321   5.113  13.615  0.00  0.00    +0.000 A 
ATOM      4  N   UNL     1      46.962   6.304  13.584  0.00  0.00    +0.000 NA
ATOM      5  C   UNL     1      46.400   7.347  12.932  0.00  0.00    +0.000 A 
ATOM      6  C   UNL     1      45.203   7.263  12.251  0.00  0.00    +0.000 A 
ATOM      7  C   UNL     1      44.552   6.036  12.255  0.00  0.00    +0.000 A 
ATOM      8  C   UNL     1      45.091   4.938  12.955  0.00  0.00    +0.000 A 
BRANCH   6   9
ATOM      9  C   UNL     1      44.658   8.470  11.593  0.00  0.00    +0.000 C 
ATOM     10  N   UNL     1      43.422   8.373  11.025  0.00  0.00    +0.000 N 
ATOM     11  O   UNL     1      45.300   9.514  11.550  0.00  0.00    +0.000 OA
ATOM     12  H   UNL     1      42.949   7.495  10.866  0.00  0.00    +0.000 HD
ATOM     13  H   UNL     1      43.079   9.188  10.529  0.00  0.00    +0.000 HD
ENDBRANCH   6   9
BRANCH   8  14
ATOM     14  C   UNL     1      44.379   3.613  12.887  0.00  0.00    +0.000 C 
BRANCH  14  15
ATOM     15  O   UNL     1      45.278   2.560  12.523  0.00  0.00    +0.000 OA
ATOM     16  H   UNL     1      45.172   1.856  13.185  0.00  0.00    +0.000 HD
ENDBRANCH  14  15
ENDBRANCH   8  14
ENDBRANCH   1   3
BRANCH   1  17
ATOM     17  C   UNL     1      47.148   4.388  15.748  0.00  0.00    +0.000 C 
BRANCH  17  18
ATOM     18  C   UNL     1      47.574   3.174  16.585  0.00  0.00    +0.000 C 
BRANCH  18  23
ATOM     19  C   UNL     1      51.219   2.390  17.471  0.00  0.00    +0.000 A 
ATOM     20  C   UNL     1      51.694   3.667  17.799  0.00  0.00    +0.000 A 
ATOM     21  C   UNL     1      50.837   4.766  17.785  0.00  0.00    +0.000 A 
ATOM     22  C   UNL     1      49.496   4.609  17.429  0.00  0.00    +0.000 A 
ATOM     23  C   UNL     1      48.998   3.345  17.080  0.00  0.00    +0.000 A 
ATOM     24  C   UNL     1      49.869   2.243  17.110  0.00  0.00    +0.000 A 
BRANCH  19  25
ATOM     25  C   UNL     1      52.152   1.205  17.450  0.00  0.00    +0.000 C 
BRANCH  25  26
ATOM     26  N   UNL     1      51.623   0.082  18.218  0.00  0.00    +0.000 NA
ATOM     27  H   UNL     1      50.922   0.427  18.869  0.00  0.00    +0.000 HD
ATOM     28  H   UNL     1      52.377  -0.308  18.783  0.00  0.00    +0.000 HD
ENDBRANCH  25  26
ENDBRANCH  19  25
ENDBRANCH  18  23
ENDBRANCH  17  18
ENDBRANCH   1  17
TORSDOF 9
ENDMDL
