MODEL 1
REMARK VINA RESULT:    -7.708      0.000      0.000
REMARK INTER + INTRA:         -10.497
REMARK INTER:                  -9.961
REMARK INTRA:                  -0.536
REMARK UNBOUND:                -0.536
REMARK  Name = 
REMARK  7 active torsions:
REMARK  status: ('A' for Active; 'I' for Inactive)
REMARK    1  A    between atoms: C_1  and  N_2
REMARK    2  A    between atoms: N_2  and  C_3
REMARK    3  A    between atoms: N_2  and  C_4
REMARK    4  A    between atoms: C_4  and  C_5
REMARK    5  A    between atoms: C_5  and  C_6
REMARK    6  A    between atoms: N_8  and  C_9
REMARK    7  A    between atoms: C_9  and  C_10
REMARK                            x       y       z     vdW  Elec       q    Type
REMARK                         _______ _______ _______ _____ _____    ______ ____
ROOT
ATOM      1  C   UNL     1      45.880   5.763  10.884  0.00  0.00    +0.000 A 
ATOM      2  N   UNL     1      45.878   5.549   9.554  0.00  0.00    +0.000 NA
ATOM      3  N   UNL     1      45.005   4.523   9.397  0.00  0.00    +0.000 N 
ATOM      4  C   UNL     1      44.487   4.058  10.581  0.00  0.00    +0.000 A 
ATOM      5  N   UNL     1      43.637   3.023  10.751  0.00  0.00    +0.000 NA
ATOM      6  C   UNL     1      43.319   2.820  12.053  0.00  0.00    +0.000 A 
ATOM      7  C   UNL     1      43.781   3.561  13.134  0.00  0.00    +0.000 A 
ATOM      8  C   UNL     1      44.661   4.617  12.904  0.00  0.00    +0.000 A 
ATOM      9  C   UNL     1      45.028   4.864  11.572  0.00  0.00    +0.000 A 
ENDROOT
BRANCH   1  10
ATOM     10  C   UNL     1      46.749   6.819  11.472  0.00  0.00    +0.000 C 
BRANCH  10  11
ATOM     11  C   UNL     1      47.612   6.278  12.624  0.00  0.00    +0.000 C 
BRANCH  11  13
ATOM     12  C   UNL     1      49.099   7.915  11.688  0.00  0.00    +0.000 C 
ATOM     13  N   UNL     1      48.986   6.820  12.657  0.00  0.00    +0.000 NA
ATOM     14  C   UNL     1      49.361   7.299  13.987  0.00  0.00    +0.000 C 
ENDBRANCH  11  13
ENDBRANCH  10  11
ENDBRANCH   1  10
BRANCH   3  15
ATOM     15  C   UNL     1      44.791   3.943   8.076  0.00  0.00    +0.000 C 
BRANCH  15  16
ATOM     16  C   UNL     1      45.896   2.991   7.688  0.00  0.00    +0.000 A 
ATOM     17  C   UNL     1      46.860   3.360   6.743  0.00  0.00    +0.000 A 
ATOM     18  C   UNL     1      47.782   2.411   6.323  0.00  0.00    +0.000 A 
ATOM     19  N   UNL     1      47.823   1.146   6.788  0.00  0.00    +0.000 NA
ATOM     20  C   UNL     1      46.904   0.814   7.718  0.00  0.00    +0.000 A 
ATOM     21  C   UNL     1      45.942   1.691   8.205  0.00  0.00    +0.000 A 
ENDBRANCH  15  16
ENDBRANCH   3  15
TORSDOF 5
ENDMDL
MODEL 2
REMARK VINA RESULT:    -6.760      1.067      5.778
REMARK INTER + INTRA:          -9.272
REMARK INTER:                  -8.745
REMARK INTRA:                  -0.527
REMARK UNBOUND:                -0.536
REMARK  Name = 
REMARK  7 active torsions:
REMARK  status: ('A' for Active; 'I' for Inactive)
REMARK    1  A    between atoms: C_1  and  N_2
REMARK    2  A    between atoms: N_2  and  C_3
REMARK    3  A    between atoms: N_2  and  C_4
REMARK    4  A    between atoms: C_4  and  C_5
REMARK    5  A    between atoms: C_5  and  C_6
REMARK    6  A    between atoms: N_8  and  C_9
REMARK    7  A    between atoms: C_9  and  C_10
REMARK                            x       y       z     vdW  Elec       q    Type
REMARK                         _______ _______ _______ _____ _____    ______ ____
ROOT
ATOM      1  C   UNL     1      45.269   4.300   9.158  0.00  0.00    +0.000 A 
ATOM      2  N   UNL     1      45.825   5.506   9.382  0.00  0.00    +0.000 NA
ATOM      3  N   UNL     1      45.516   5.764  10.677  0.00  0.00    +0.000 N 
ATOM      4  C   UNL     1      44.755   4.783  11.266  0.00  0.00    +0.000 A 
ATOM      5  N   UNL     1      44.255   4.777  12.519  0.00  0.00    +0.000 NA
ATOM      6  C   UNL     1      43.539   3.658  12.789  0.00  0.00    +0.000 A 
ATOM      7  C   UNL     1      43.314   2.600  11.916  0.00  0.00    +0.000 A 
ATOM      8  C   UNL     1      43.850   2.658  10.630  0.00  0.00    +0.000 A 
ATOM      9  C   UNL     1      44.593   3.802  10.298  0.00  0.00    +0.000 A 
ENDROOT
BRANCH   1  10
ATOM     10  C   UNL     1      45.371   3.667   7.815  0.00  0.00    +0.000 C 
BRANCH  10  11
ATOM     11  C   UNL     1      46.779   3.810   7.216  0.00  0.00    +0.000 C 
BRANCH  11  13
ATOM     12  C   UNL     1      46.710   1.452   7.661  0.00  0.00    +0.000 C 
ATOM     13  N   UNL     1      47.534   2.543   7.131  0.00  0.00    +0.000 NA
ATOM     14  C   UNL     1      47.942   2.231   5.761  0.00  0.00    +0.000 C 
ENDBRANCH  11  13
ENDBRANCH  10  11
ENDBRANCH   1  10
BRANCH   3  15
ATOM     15  C   UNL     1      45.885   7.042  11.276  0.00  0.00    +0.000 C 
BRANCH  15  16
ATOM     16  C   UNL     1      47.148   6.940  12.097  0.00  0.00    +0.000 A 
ATOM     17  C   UNL     1      47.107   6.474  13.417  0.00  0.00    +0.000 A 
ATOM     18  C   UNL     1      48.268   6.515  14.176  0.00  0.00    +0.000 A 
ATOM     19  N   UNL     1      49.454   6.961  13.713  0.00  0.00    +0.000 NA
ATOM     20  C   UNL     1      49.481   7.382  12.432  0.00  0.00    +0.000 A 
ATOM     21  C   UNL     1      48.376   7.378  11.590  0.00  0.00    +0.000 A 
ENDBRANCH  15  16
ENDBRANCH   3  15
TORSDOF 5
ENDMDL
MODEL 3
REMARK VINA RESULT:    -6.632      2.593      3.913
REMARK INTER + INTRA:          -9.107
REMARK INTER:                  -8.483
REMARK INTRA:                  -0.624
REMARK UNBOUND:                -0.536
REMARK  Name = 
REMARK  7 active torsions:
REMARK  status: ('A' for Active; 'I' for Inactive)
REMARK    1  A    between atoms: C_1  and  N_2
REMARK    2  A    between atoms: N_2  and  C_3
REMARK    3  A    between atoms: N_2  and  C_4
REMARK    4  A    between atoms: C_4  and  C_5
REMARK    5  A    between atoms: C_5  and  C_6
REMARK    6  A    between atoms: N_8  and  C_9
REMARK    7  A    between atoms: C_9  and  C_10
REMARK                            x       y       z     vdW  Elec       q    Type
REMARK                         _______ _______ _______ _____ _____    ______ ____
ROOT
ATOM      1  C   UNL     1      46.450   5.794  13.123  0.00  0.00    +0.000 A 
ATOM      2  N   UNL     1      45.812   4.785  12.501  0.00  0.00    +0.000 NA
ATOM      3  N   UNL     1      44.957   5.419  11.660  0.00  0.00    +0.000 N 
ATOM      4  C   UNL     1      45.006   6.788  11.757  0.00  0.00    +0.000 A 
ATOM      5  N   UNL     1      44.247   7.683  11.090  0.00  0.00    +0.000 NA
ATOM      6  C   UNL     1      44.544   8.965  11.419  0.00  0.00    +0.000 A 
ATOM      7  C   UNL     1      45.511   9.373  12.330  0.00  0.00    +0.000 A 
ATOM      8  C   UNL     1      46.265   8.408  12.995  0.00  0.00    +0.000 A 
ATOM      9  C   UNL     1      45.990   7.064  12.696  0.00  0.00    +0.000 A 
ENDROOT
BRANCH   1  10
ATOM     10  C   UNL     1      47.477   5.504  14.162  0.00  0.00    +0.000 C 
BRANCH  10  11
ATOM     11  C   UNL     1      47.064   4.333  15.067  0.00  0.00    +0.000 C 
BRANCH  11  13
ATOM     12  C   UNL     1      48.499   5.323  16.719  0.00  0.00    +0.000 C 
ATOM     13  N   UNL     1      48.011   4.054  16.167  0.00  0.00    +0.000 NA
ATOM     14  C   UNL     1      47.404   3.255  17.231  0.00  0.00    +0.000 C 
ENDBRANCH  11  13
ENDBRANCH  10  11
ENDBRANCH   1  10
BRANCH   3  15
ATOM     15  C   UNL     1      44.017   4.646  10.855  0.00  0.00    +0.000 C 
BRANCH  15  16
ATOM     16  C   UNL     1      44.707   3.900   9.739  0.00  0.00    +0.000 A 
ATOM     17  C   UNL     1      44.658   2.502   9.675  0.00  0.00    +0.000 A 
ATOM     18  C   UNL     1      45.409   1.851   8.707  0.00  0.00    +0.000 A 
ATOM     19  N   UNL     1      46.178   2.486   7.799  0.00  0.00    +0.000 NA
ATOM     20  C   UNL     1      46.194   3.833   7.858  0.00  0.00    +0.000 A 
ATOM     21  C   UNL     1      45.476   4.577   8.787  0.00  0.00    +0.000 A 
ENDBRANCH  15  16
ENDBRANCH   3  15
TORSDOF 5
ENDMDL
MODEL 4
REMARK VINA RESULT:    -6.450      2.488      3.305
REMARK INTER + INTRA:          -8.871
REMARK INTER:                  -8.269
REMARK INTRA:                  -0.603
REMARK UNBOUND:                -0.536
REMARK  Name = 
REMARK  7 active torsions:
REMARK  status: ('A' for Active; 'I' for Inactive)
REMARK    1  A    between atoms: C_1  and  N_2
REMARK    2  A    between atoms: N_2  and  C_3
REMARK    3  A    between atoms: N_2  and  C_4
REMARK    4  A    between atoms: C_4  and  C_5
REMARK    5  A    between atoms: C_5  and  C_6
REMARK    6  A    between atoms: N_8  and  C_9
REMARK    7  A    between atoms: C_9  and  C_10
REMARK                            x       y       z     vdW  Elec       q    Type
REMARK                         _______ _______ _______ _____ _____    ______ ____
ROOT
ATOM      1  C   UNL     1      45.697   6.910  11.906  0.00  0.00    +0.000 A 
ATOM      2  N   UNL     1      44.842   6.459  10.968  0.00  0.00    +0.000 NA
ATOM      3  N   UNL     1      44.771   5.127  11.215  0.00  0.00    +0.000 N 
ATOM      4  C   UNL     1      45.579   4.717  12.247  0.00  0.00    +0.000 A 
ATOM      5  N   UNL     1      45.760   3.455  12.692  0.00  0.00    +0.000 NA
ATOM      6  C   UNL     1      46.631   3.389  13.729  0.00  0.00    +0.000 A 
ATOM      7  C   UNL     1      47.291   4.464  14.313  0.00  0.00    +0.000 A 
ATOM      8  C   UNL     1      47.072   5.746  13.813  0.00  0.00    +0.000 A 
ATOM      9  C   UNL     1      46.184   5.867  12.732  0.00  0.00    +0.000 A 
ENDROOT
BRANCH   1  10
ATOM     10  C   UNL     1      46.060   8.352  11.957  0.00  0.00    +0.000 C 
BRANCH  10  11
ATOM     11  C   UNL     1      44.910   9.217  12.498  0.00  0.00    +0.000 C 
BRANCH  11  13
ATOM     12  C   UNL     1      46.322  10.941  11.603  0.00  0.00    +0.000 C 
ATOM     13  N   UNL     1      44.970  10.634  12.082  0.00  0.00    +0.000 NA
ATOM     14  C   UNL     1      43.994  10.948  11.039  0.00  0.00    +0.000 C 
ENDBRANCH  11  13
ENDBRANCH  10  11
ENDBRANCH   1  10
BRANCH   3  15
ATOM     15  C   UNL     1      43.988   4.263  10.338  0.00  0.00    +0.000 C 
BRANCH  15  16
ATOM     16  C   UNL     1      44.845   3.583   9.298  0.00  0.00    +0.000 A 
ATOM     17  C   UNL     1      45.009   2.193   9.303  0.00  0.00    +0.000 A 
ATOM     18  C   UNL     1      45.904   1.623   8.410  0.00  0.00    +0.000 A 
ATOM     19  N   UNL     1      46.621   2.327   7.510  0.00  0.00    +0.000 NA
ATOM     20  C   UNL     1      46.432   3.663   7.501  0.00  0.00    +0.000 A 
ATOM     21  C   UNL     1      45.558   4.328   8.352  0.00  0.00    +0.000 A 
ENDBRANCH  15  16
ENDBRANCH   3  15
TORSDOF 5
ENDMDL
MODEL 5
REMARK VINA RESULT:    -5.982      2.318      6.313
REMARK INTER + INTRA:          -8.266
REMARK INTER:                  -7.994
REMARK INTRA:                  -0.272
REMARK UNBOUND:                -0.536
REMARK  Name = 
REMARK  7 active torsions:
REMARK  status: ('A' for Active; 'I' for Inactive)
REMARK    1  A    between atoms: C_1  and  N_2
REMARK    2  A    between atoms: N_2  and  C_3
REMARK    3  A    between atoms: N_2  and  C_4
REMARK    4  A    between atoms: C_4  and  C_5
REMARK    5  A    between atoms: C_5  and  C_6
REMARK    6  A    between atoms: N_8  and  C_9
REMARK    7  A    between atoms: C_9  and  C_10
REMARK                            x       y       z     vdW  Elec       q    Type
REMARK                         _______ _______ _______ _____ _____    ______ ____
ROOT
ATOM      1  C   UNL     1      45.463   4.817   9.640  0.00  0.00    +0.000 A 
ATOM      2  N   UNL     1      46.141   5.911  10.035  0.00  0.00    +0.000 NA
ATOM      3  N   UNL     1      45.824   6.025  11.349  0.00  0.00    +0.000 N 
ATOM      4  C   UNL     1      44.944   5.066  11.786  0.00  0.00    +0.000 A 
ATOM      5  N   UNL     1      44.410   4.948  13.020  0.00  0.00    +0.000 NA
ATOM      6  C   UNL     1      43.568   3.890  13.124  0.00  0.00    +0.000 A 
ATOM      7  C   UNL     1      43.254   2.992  12.111  0.00  0.00    +0.000 A 
ATOM      8  C   UNL     1      43.830   3.161  10.853  0.00  0.00    +0.000 A 
ATOM      9  C   UNL     1      44.703   4.248  10.692  0.00  0.00    +0.000 A 
ENDROOT
BRANCH   1  10
ATOM     10  C   UNL     1      45.534   4.362   8.224  0.00  0.00    +0.000 C 
BRANCH  10  11
ATOM     11  C   UNL     1      45.861   2.864   8.117  0.00  0.00    +0.000 C 
BRANCH  11  13
ATOM     12  C   UNL     1      47.267   1.113   7.265  0.00  0.00    +0.000 C 
ATOM     13  N   UNL     1      47.002   2.555   7.230  0.00  0.00    +0.000 NA
ATOM     14  C   UNL     1      46.762   2.978   5.850  0.00  0.00    +0.000 C 
ENDBRANCH  11  13
ENDBRANCH  10  11
ENDBRANCH   1  10
BRANCH   3  15
ATOM     15  C   UNL     1      46.314   7.162  12.121  0.00  0.00    +0.000 C 
BRANCH  15  16
ATOM     16  C   UNL     1      45.538   8.423  11.829  0.00  0.00    +0.000 A 
ATOM     17  C   UNL     1      44.285   8.365  11.209  0.00  0.00    +0.000 A 
ATOM     18  C   UNL     1      43.664   9.551  10.845  0.00  0.00    +0.000 A 
ATOM     19  N   UNL     1      44.186  10.773  11.072  0.00  0.00    +0.000 NA
ATOM     20  C   UNL     1      45.382  10.813  11.695  0.00  0.00    +0.000 A 
ATOM     21  C   UNL     1      46.082   9.683  12.100  0.00  0.00    +0.000 A 
ENDBRANCH  15  16
ENDBRANCH   3  15
TORSDOF 5
ENDMDL
MODEL 6
REMARK VINA RESULT:    -5.903      3.263      7.361
REMARK INTER + INTRA:          -8.165
REMARK INTER:                  -7.658
REMARK INTRA:                  -0.507
REMARK UNBOUND:                -0.536
REMARK  Name = 
REMARK  7 active torsions:
REMARK  status: ('A' for Active; 'I' for Inactive)
REMARK    1  A    between atoms: C_1  and  N_2
REMARK    2  A    between atoms: N_2  and  C_3
REMARK    3  A    between atoms: N_2  and  C_4
REMARK    4  A    between atoms: C_4  and  C_5
REMARK    5  A    between atoms: C_5  and  C_6
REMARK    6  A    between atoms: N_8  and  C_9
REMARK    7  A    between atoms: C_9  and  C_10
REMARK                            x       y       z     vdW  Elec       q    Type
REMARK                         _______ _______ _______ _____ _____    ______ ____
ROOT
ATOM      1  C   UNL     1      45.047   5.409  13.209  0.00  0.00    +0.000 A 
ATOM      2  N   UNL     1      45.415   4.374  13.987  0.00  0.00    +0.000 NA
ATOM      3  N   UNL     1      46.762   4.509  14.081  0.00  0.00    +0.000 N 
ATOM      4  C   UNL     1      47.259   5.567  13.360  0.00  0.00    +0.000 A 
ATOM      5  N   UNL     1      48.553   5.925  13.218  0.00  0.00    +0.000 NA
ATOM      6  C   UNL     1      48.707   7.019  12.433  0.00  0.00    +0.000 A 
ATOM      7  C   UNL     1      47.687   7.736  11.819  0.00  0.00    +0.000 A 
ATOM      8  C   UNL     1      46.368   7.322  11.994  0.00  0.00    +0.000 A 
ATOM      9  C   UNL     1      46.155   6.187  12.792  0.00  0.00    +0.000 A 
ENDROOT
BRANCH   1  10
ATOM     10  C   UNL     1      43.616   5.602  12.847  0.00  0.00    +0.000 C 
BRANCH  10  11
ATOM     11  C   UNL     1      43.332   5.199  11.391  0.00  0.00    +0.000 C 
BRANCH  11  13
ATOM     12  C   UNL     1      43.358   2.798  11.371  0.00  0.00    +0.000 C 
ATOM     13  N   UNL     1      44.072   4.003  10.938  0.00  0.00    +0.000 NA
ATOM     14  C   UNL     1      44.248   3.976   9.486  0.00  0.00    +0.000 C 
ENDBRANCH  11  13
ENDBRANCH  10  11
ENDBRANCH   1  10
BRANCH   3  15
ATOM     15  C   UNL     1      47.548   3.508  14.794  0.00  0.00    +0.000 C 
BRANCH  15  16
ATOM     16  C   UNL     1      47.761   3.880  16.241  0.00  0.00    +0.000 A 
ATOM     17  C   UNL     1      48.122   5.183  16.599  0.00  0.00    +0.000 A 
ATOM     18  C   UNL     1      48.431   5.451  17.925  0.00  0.00    +0.000 A 
ATOM     19  N   UNL     1      48.385   4.529  18.909  0.00  0.00    +0.000 NA
ATOM     20  C   UNL     1      48.009   3.284  18.551  0.00  0.00    +0.000 A 
ATOM     21  C   UNL     1      47.678   2.917  17.253  0.00  0.00    +0.000 A 
ENDBRANCH  15  16
ENDBRANCH   3  15
TORSDOF 5
ENDMDL
MODEL 7
REMARK VINA RESULT:    -5.860      3.721      7.741
REMARK INTER + INTRA:          -8.109
REMARK INTER:                  -7.406
REMARK INTRA:                  -0.703
REMARK UNBOUND:                -0.536
REMARK  Name = 
REMARK  7 active torsions:
REMARK  status: ('A' for Active; 'I' for Inactive)
REMARK    1  A    between atoms: C_1  and  N_2
REMARK    2  A    between atoms: N_2  and  C_3
REMARK    3  A    between atoms: N_2  and  C_4
REMARK    4  A    between atoms: C_4  and  C_5
REMARK    5  A    between atoms: C_5  and  C_6
REMARK    6  A    between atoms: N_8  and  C_9
REMARK    7  A    between atoms: C_9  and  C_10
REMARK                            x       y       z     vdW  Elec       q    Type
REMARK                         _______ _______ _______ _____ _____    ______ ____
ROOT
ATOM      1  C   UNL     1      46.657   4.502  13.944  0.00  0.00    +0.000 A 
ATOM      2  N   UNL     1      46.651   4.066  15.218  0.00  0.00    +0.000 NA
ATOM      3  N   UNL     1      47.558   4.865  15.833  0.00  0.00    +0.000 N 
ATOM      4  C   UNL     1      48.162   5.763  14.986  0.00  0.00    +0.000 A 
ATOM      5  N   UNL     1      49.133   6.649  15.291  0.00  0.00    +0.000 NA
ATOM      6  C   UNL     1      49.517   7.389  14.222  0.00  0.00    +0.000 A 
ATOM      7  C   UNL     1      49.004   7.293  12.934  0.00  0.00    +0.000 A 
ATOM      8  C   UNL     1      48.004   6.358  12.671  0.00  0.00    +0.000 A 
ATOM      9  C   UNL     1      47.577   5.560  13.744  0.00  0.00    +0.000 A 
ENDROOT
BRANCH   1  10
ATOM     10  C   UNL     1      45.790   3.850  12.925  0.00  0.00    +0.000 C 
BRANCH  10  11
ATOM     11  C   UNL     1      44.416   4.532  12.816  0.00  0.00    +0.000 C 
BRANCH  11  13
ATOM     12  C   UNL     1      45.102   5.022  10.567  0.00  0.00    +0.000 C 
ATOM     13  N   UNL     1      44.306   5.498  11.704  0.00  0.00    +0.000 NA
ATOM     14  C   UNL     1      42.920   5.702  11.283  0.00  0.00    +0.000 C 
ENDBRANCH  11  13
ENDBRANCH  10  11
ENDBRANCH   1  10
BRANCH   3  15
ATOM     15  C   UNL     1      47.895   4.643  17.235  0.00  0.00    +0.000 C 
BRANCH  15  16
ATOM     16  C   UNL     1      49.180   3.865  17.392  0.00  0.00    +0.000 A 
ATOM     17  C   UNL     1      50.349   4.496  17.833  0.00  0.00    +0.000 A 
ATOM     18  C   UNL     1      51.534   3.775  17.843  0.00  0.00    +0.000 A 
ATOM     19  N   UNL     1      51.631   2.482  17.470  0.00  0.00    +0.000 NA
ATOM     20  C   UNL     1      50.490   1.882  17.073  0.00  0.00    +0.000 A 
ATOM     21  C   UNL     1      49.255   2.516  17.030  0.00  0.00    +0.000 A 
ENDBRANCH  15  16
ENDBRANCH   3  15
TORSDOF 5
ENDMDL
MODEL 8
REMARK VINA RESULT:    -5.506      2.062      3.810
REMARK INTER + INTRA:          -7.651
REMARK INTER:                  -6.902
REMARK INTRA:                  -0.749
REMARK UNBOUND:                -0.536
REMARK  Name = 
REMARK  7 active torsions:
REMARK  status: ('A' for Active; 'I' for Inactive)
REMARK    1  A    between atoms: C_1  and  N_2
REMARK    2  A    between atoms: N_2  and  C_3
REMARK    3  A    between atoms: N_2  and  C_4
REMARK    4  A    between atoms: C_4  and  C_5
REMARK    5  A    between atoms: C_5  and  C_6
REMARK    6  A    between atoms: N_8  and  C_9
REMARK    7  A    between atoms: C_9  and  C_10
REMARK                            x       y       z     vdW  Elec       q    Type
REMARK                         _______ _______ _______ _____ _____    ______ ____
ROOT
ATOM      1  C   UNL     1      47.168   6.785  12.682  0.00  0.00    +0.000 A 
ATOM      2  N   UNL     1      46.531   5.621  12.454  0.00  0.00    +0.000 NA
ATOM      3  N   UNL     1      45.365   6.004  11.876  0.00  0.00    +0.000 N 
ATOM      4  C   UNL     1      45.228   7.366  11.767  0.00  0.00    +0.000 A 
ATOM      5  N   UNL     1      44.167   8.045  11.284  0.00  0.00    +0.000 NA
ATOM      6  C   UNL     1      44.349   9.388  11.318  0.00  0.00    +0.000 A 
ATOM      7  C   UNL     1      45.479  10.049  11.783  0.00  0.00    +0.000 A 
ATOM      8  C   UNL     1      46.546   9.301  12.276  0.00  0.00    +0.000 A 
ATOM      9  C   UNL     1      46.404   7.904  12.270  0.00  0.00    +0.000 A 
ENDROOT
BRANCH   1  10
ATOM     10  C   UNL     1      48.504   6.791  13.339  0.00  0.00    +0.000 C 
BRANCH  10  11
ATOM     11  C   UNL     1      49.612   7.268  12.386  0.00  0.00    +0.000 C 
BRANCH  11  13
ATOM     12  C   UNL     1      50.323   9.496  11.840  0.00  0.00    +0.000 C 
ATOM     13  N   UNL     1      50.358   8.449  12.867  0.00  0.00    +0.000 NA
ATOM     14  C   UNL     1      49.819   8.972  14.122  0.00  0.00    +0.000 C 
ENDBRANCH  11  13
ENDBRANCH  10  11
ENDBRANCH   1  10
BRANCH   3  15
ATOM     15  C   UNL     1      44.351   5.007  11.549  0.00  0.00    +0.000 C 
BRANCH  15  16
ATOM     16  C   UNL     1      44.689   4.246  10.290  0.00  0.00    +0.000 A 
ATOM     17  C   UNL     1      44.396   2.882  10.178  0.00  0.00    +0.000 A 
ATOM     18  C   UNL     1      44.837   2.194   9.056  0.00  0.00    +0.000 A 
ATOM     19  N   UNL     1      45.521   2.767   8.044  0.00  0.00    +0.000 NA
ATOM     20  C   UNL     1      45.771   4.087   8.155  0.00  0.00    +0.000 A 
ATOM     21  C   UNL     1      45.371   4.864   9.236  0.00  0.00    +0.000 A 
ENDBRANCH  15  16
ENDBRANCH   3  15
TORSDOF 5
ENDMDL
MODEL 9
REMARK VINA RESULT:    -5.412      3.270      5.743
REMARK INTER + INTRA:          -7.530
REMARK INTER:                  -6.994
REMARK INTRA:                  -0.536
REMARK UNBOUND:                -0.536
REMARK  Name = 
REMARK  7 active torsions:
REMARK  status: ('A' for Active; 'I' for Inactive)
REMARK    1  A    between atoms: C_1  and  N_2
REMARK    2  A    between atoms: N_2  and  C_3
REMARK    3  A    between atoms: N_2  and  C_4
REMARK    4  A    between atoms: C_4  and  C_5
REMARK    5  A    between atoms: C_5  and  C_6
REMARK    6  A    between atoms: N_8  and  C_9
REMARK    7  A    between atoms: C_9  and  C_10
REMARK                            x       y       z     vdW  Elec       q    Type
REMARK                         _______ _______ _______ _____ _____    ______ ____
ROOT
ATOM      1  C   UNL     1      46.513   4.624  13.605  0.00  0.00    +0.000 A 
ATOM      2  N   UNL     1      46.885   5.918  13.623  0.00  0.00    +0.000 NA
ATOM      3  N   UNL     1      46.119   6.483  12.657  0.00  0.00    +0.000 N 
ATOM      4  C   UNL     1      45.306   5.587  12.007  0.00  0.00    +0.000 A 
ATOM      5  N   UNL     1      44.472   5.838  10.976  0.00  0.00    +0.000 NA
ATOM      6  C   UNL     1      43.812   4.730  10.559  0.00  0.00    +0.000 A 
ATOM      7  C   UNL     1      43.936   3.453  11.094  0.00  0.00    +0.000 A 
ATOM      8  C   UNL     1      44.815   3.247  12.156  0.00  0.00    +0.000 A 
ATOM      9  C   UNL     1      45.529   4.363  12.620  0.00  0.00    +0.000 A 
ENDROOT
BRANCH   1  10
ATOM     10  C   UNL     1      47.155   3.647  14.527  0.00  0.00    +0.000 C 
BRANCH  10  11
ATOM     11  C   UNL     1      47.314   4.214  15.947  0.00  0.00    +0.000 C 
BRANCH  11  13
ATOM     12  C   UNL     1      48.941   5.343  17.304  0.00  0.00    +0.000 C 
ATOM     13  N   UNL     1      48.695   4.163  16.468  0.00  0.00    +0.000 NA
ATOM     14  C   UNL     1      48.951   2.949  17.243  0.00  0.00    +0.000 C 
ENDBRANCH  11  13
ENDBRANCH  10  11
ENDBRANCH   1  10
BRANCH   3  15
ATOM     15  C   UNL     1      46.295   7.891  12.317  0.00  0.00    +0.000 C 
BRANCH  15  16
ATOM     16  C   UNL     1      47.748   8.298  12.321  0.00  0.00    +0.000 A 
ATOM     17  C   UNL     1      48.668   7.677  11.467  0.00  0.00    +0.000 A 
ATOM     18  C   UNL     1      50.013   7.991  11.592  0.00  0.00    +0.000 A 
ATOM     19  N   UNL     1      50.498   8.883  12.480  0.00  0.00    +0.000 NA
ATOM     20  C   UNL     1      49.596   9.492  13.277  0.00  0.00    +0.000 A 
ATOM     21  C   UNL     1      48.229   9.248  13.229  0.00  0.00    +0.000 A 
ENDBRANCH  15  16
ENDBRANCH   3  15
TORSDOF 5
ENDMDL
