MODEL 1
REMARK VINA RESULT:    -8.283      0.000      0.000
REMARK INTER + INTRA:         -11.643
REMARK INTER:                 -10.947
REMARK INTRA:                  -0.696
REMARK UNBOUND:                -0.696
REMARK  Name = 
REMARK  6 active torsions:
REMARK  status: ('A' for Active; 'I' for Inactive)
REMARK    1  A    between atoms: O_1  and  C_2
REMARK    2  A    between atoms: N_5  and  C_6
REMARK    3  A    between atoms: C_10  and  C_11
REMARK    4  A    between atoms: C_11  and  N_12
REMARK    5  A    between atoms: N_12  and  C_13
REMARK    6  A    between atoms: C_17  and  C_18
REMARK                            x       y       z     vdW  Elec       q    Type
REMARK                         _______ _______ _______ _____ _____    ______ ____
ROOT
ATOM      1  C   UNL     1      46.264   6.063  12.991  0.00  0.00    +0.000 A 
ATOM      2  C   UNL     1      47.103   5.152  13.643  0.00  0.00    +0.000 A 
ATOM      3  C   UNL     1      46.842   3.780  13.629  0.00  0.00    +0.000 A 
ATOM      4  C   UNL     1      45.720   3.283  12.964  0.00  0.00    +0.000 A 
ATOM      5  C   UNL     1      44.839   4.165  12.330  0.00  0.00    +0.000 A 
ATOM      6  C   UNL     1      45.138   5.537  12.335  0.00  0.00    +0.000 A 
ENDROOT
BRANCH   1  10
ATOM      7  C   UNL     1      47.095   9.965  11.852  0.00  0.00    +0.000 C 
ATOM      8  C   UNL     1      48.186   8.907  12.044  0.00  0.00    +0.000 C 
ATOM      9  C   UNL     1      47.859   7.959  13.200  0.00  0.00    +0.000 C 
ATOM     10  N   UNL     1      46.526   7.414  12.975  0.00  0.00    +0.000 N 
ATOM     11  C   UNL     1      45.445   8.400  12.946  0.00  0.00    +0.000 C 
ATOM     12  C   UNL     1      45.694   9.358  11.785  0.00  0.00    +0.000 C 
BRANCH   7  13
ATOM     13  O   UNL     1      47.143  10.906  12.925  0.00  0.00    +0.000 OA
ATOM     14  H   UNL     1      46.300  10.840  13.407  0.00  0.00    +0.000 HD
ENDBRANCH   7  13
ENDBRANCH   1  10
BRANCH   5  15
ATOM     15  C   UNL     1      43.565   3.677  11.681  0.00  0.00    +0.000 C 
BRANCH  15  16
ATOM     16  N   UNL     1      43.837   2.587  10.747  0.00  0.00    +0.000 N 
ATOM     17  H   UNL     1      42.970   2.143  10.448  0.00  0.00    +0.000 HD
BRANCH  16  18
ATOM     18  C   UNL     1      44.685   2.856   9.663  0.00  0.00    +0.000 A 
ATOM     19  C   UNL     1      44.666   4.107   9.042  0.00  0.00    +0.000 A 
ATOM     20  N   UNL     1      45.408   4.462   7.964  0.00  0.00    +0.000 NA
ATOM     21  C   UNL     1      46.193   3.502   7.430  0.00  0.00    +0.000 A 
ATOM     22  C   UNL     1      46.256   2.207   7.914  0.00  0.00    +0.000 A 
ATOM     23  C   UNL     1      45.481   1.887   9.039  0.00  0.00    +0.000 A 
BRANCH  22  24
ATOM     24  C   UNL     1      47.127   1.195   7.234  0.00  0.00    +0.000 C 
ATOM     25  F   UNL     1      48.456   1.483   7.310  0.00  0.00    +0.000 F 
ATOM     26  F   UNL     1      46.988  -0.052   7.763  0.00  0.00    +0.000 F 
ATOM     27  F   UNL     1      46.850   1.069   5.907  0.00  0.00    +0.000 F 
ENDBRANCH  22  24
ENDBRANCH  16  18
ENDBRANCH  15  16
ENDBRANCH   5  15
TORSDOF 6
ENDMDL
MODEL 2
REMARK VINA RESULT:    -7.896      2.790      4.285
REMARK INTER + INTRA:         -11.130
REMARK INTER:                 -10.310
REMARK INTRA:                  -0.821
REMARK UNBOUND:                -0.696
REMARK  Name = 
REMARK  6 active torsions:
REMARK  status: ('A' for Active; 'I' for Inactive)
REMARK    1  A    between atoms: O_1  and  C_2
REMARK    2  A    between atoms: N_5  and  C_6
REMARK    3  A    between atoms: C_10  and  C_11
REMARK    4  A    between atoms: C_11  and  N_12
REMARK    5  A    between atoms: N_12  and  C_13
REMARK    6  A    between atoms: C_17  and  C_18
REMARK                            x       y       z     vdW  Elec       q    Type
REMARK                         _______ _______ _______ _____ _____    ______ ____
ROOT
ATOM      1  C   UNL     1      47.615   5.790  14.264  0.00  0.00    +0.000 A 
ATOM      2  C   UNL     1      48.569   6.591  13.626  0.00  0.00    +0.000 A 
ATOM      3  C   UNL     1      48.336   7.137  12.362  0.00  0.00    +0.000 A 
ATOM      4  C   UNL     1      47.136   6.885  11.695  0.00  0.00    +0.000 A 
ATOM      5  C   UNL     1      46.172   6.061  12.285  0.00  0.00    +0.000 A 
ATOM      6  C   UNL     1      46.418   5.546  13.569  0.00  0.00    +0.000 A 
ENDROOT
BRANCH   1  10
ATOM      7  C   UNL     1      49.085   3.720  17.545  0.00  0.00    +0.000 C 
ATOM      8  C   UNL     1      48.124   3.093  16.532  0.00  0.00    +0.000 C 
ATOM      9  C   UNL     1      47.098   4.106  16.020  0.00  0.00    +0.000 C 
ATOM     10  N   UNL     1      47.822   5.269  15.521  0.00  0.00    +0.000 N 
ATOM     11  C   UNL     1      48.627   5.978  16.516  0.00  0.00    +0.000 C 
ATOM     12  C   UNL     1      49.698   5.028  17.042  0.00  0.00    +0.000 C 
BRANCH   7  13
ATOM     13  O   UNL     1      48.397   3.971  18.771  0.00  0.00    +0.000 OA
ATOM     14  H   UNL     1      48.860   3.478  19.470  0.00  0.00    +0.000 HD
ENDBRANCH   7  13
ENDBRANCH   1  10
BRANCH   5  15
ATOM     15  C   UNL     1      44.902   5.687  11.557  0.00  0.00    +0.000 C 
BRANCH  15  16
ATOM     16  N   UNL     1      45.110   5.679  10.112  0.00  0.00    +0.000 N 
ATOM     17  H   UNL     1      45.881   6.293   9.855  0.00  0.00    +0.000 HD
BRANCH  16  18
ATOM     18  C   UNL     1      45.202   4.433   9.475  0.00  0.00    +0.000 A 
ATOM     19  C   UNL     1      44.578   3.309  10.023  0.00  0.00    +0.000 A 
ATOM     20  N   UNL     1      44.636   2.052   9.518  0.00  0.00    +0.000 NA
ATOM     21  C   UNL     1      45.400   1.878   8.419  0.00  0.00    +0.000 A 
ATOM     22  C   UNL     1      46.116   2.898   7.816  0.00  0.00    +0.000 A 
ATOM     23  C   UNL     1      46.017   4.185   8.364  0.00  0.00    +0.000 A 
BRANCH  22  24
ATOM     24  C   UNL     1      46.970   2.606   6.620  0.00  0.00    +0.000 C 
ATOM     25  F   UNL     1      46.851   1.328   6.164  0.00  0.00    +0.000 F 
ATOM     26  F   UNL     1      46.673   3.406   5.558  0.00  0.00    +0.000 F 
ATOM     27  F   UNL     1      48.297   2.789   6.863  0.00  0.00    +0.000 F 
ENDBRANCH  22  24
ENDBRANCH  16  18
ENDBRANCH  15  16
ENDBRANCH   5  15
TORSDOF 6
ENDMDL
MODEL 3
REMARK VINA RESULT:    -7.611      1.678      2.532
REMARK INTER + INTRA:         -10.754
REMARK INTER:                  -9.932
REMARK INTRA:                  -0.821
REMARK UNBOUND:                -0.696
REMARK  Name = 
REMARK  6 active torsions:
REMARK  status: ('A' for Active; 'I' for Inactive)
REMARK    1  A    between atoms: O_1  and  C_2
REMARK    2  A    between atoms: N_5  and  C_6
REMARK    3  A    between atoms: C_10  and  C_11
REMARK    4  A    between atoms: C_11  and  N_12
REMARK    5  A    between atoms: N_12  and  C_13
REMARK    6  A    between atoms: C_17  and  C_18
REMARK                            x       y       z     vdW  Elec       q    Type
REMARK                         _______ _______ _______ _____ _____    ______ ____
ROOT
ATOM      1  C   UNL     1      47.508   6.622  13.110  0.00  0.00    +0.000 A 
ATOM      2  C   UNL     1      47.510   5.656  14.123  0.00  0.00    +0.000 A 
ATOM      3  C   UNL     1      46.539   4.655  14.181  0.00  0.00    +0.000 A 
ATOM      4  C   UNL     1      45.525   4.601  13.223  0.00  0.00    +0.000 A 
ATOM      5  C   UNL     1      45.468   5.569  12.214  0.00  0.00    +0.000 A 
ATOM      6  C   UNL     1      46.474   6.549  12.162  0.00  0.00    +0.000 A 
ENDROOT
BRANCH   1  10
ATOM      7  C   UNL     1      51.083   8.685  12.691  0.00  0.00    +0.000 C 
ATOM      8  C   UNL     1      50.632   8.068  14.019  0.00  0.00    +0.000 C 
ATOM      9  C   UNL     1      49.117   8.170  14.205  0.00  0.00    +0.000 C 
ATOM     10  N   UNL     1      48.476   7.596  13.028  0.00  0.00    +0.000 N 
ATOM     11  C   UNL     1      48.773   8.272  11.764  0.00  0.00    +0.000 C 
ATOM     12  C   UNL     1      50.272   8.173  11.501  0.00  0.00    +0.000 C 
BRANCH   7  13
ATOM     13  O   UNL     1      50.967  10.107  12.756  0.00  0.00    +0.000 OA
ATOM     14  H   UNL     1      51.733  10.438  13.255  0.00  0.00    +0.000 HD
ENDBRANCH   7  13
ENDBRANCH   1  10
BRANCH   5  15
ATOM     15  C   UNL     1      44.335   5.602  11.215  0.00  0.00    +0.000 C 
BRANCH  15  16
ATOM     16  N   UNL     1      44.842   5.524   9.847  0.00  0.00    +0.000 N 
ATOM     17  H   UNL     1      45.665   6.113   9.733  0.00  0.00    +0.000 HD
BRANCH  16  18
ATOM     18  C   UNL     1      45.035   4.248   9.297  0.00  0.00    +0.000 A 
ATOM     19  C   UNL     1      44.459   3.124   9.894  0.00  0.00    +0.000 A 
ATOM     20  N   UNL     1      44.613   1.844   9.474  0.00  0.00    +0.000 NA
ATOM     21  C   UNL     1      45.430   1.650   8.418  0.00  0.00    +0.000 A 
ATOM     22  C   UNL     1      46.107   2.673   7.775  0.00  0.00    +0.000 A 
ATOM     23  C   UNL     1      45.908   3.984   8.234  0.00  0.00    +0.000 A 
BRANCH  22  24
ATOM     24  C   UNL     1      47.024   2.361   6.632  0.00  0.00    +0.000 C 
ATOM     25  F   UNL     1      47.142   1.028   6.377  0.00  0.00    +0.000 F 
ATOM     26  F   UNL     1      46.612   2.925   5.463  0.00  0.00    +0.000 F 
ATOM     27  F   UNL     1      48.292   2.813   6.837  0.00  0.00    +0.000 F 
ENDBRANCH  22  24
ENDBRANCH  16  18
ENDBRANCH  15  16
ENDBRANCH   5  15
TORSDOF 6
ENDMDL
MODEL 4
REMARK VINA RESULT:    -7.231      3.342      5.342
REMARK INTER + INTRA:         -10.252
REMARK INTER:                  -9.390
REMARK INTRA:                  -0.862
REMARK UNBOUND:                -0.696
REMARK  Name = 
REMARK  6 active torsions:
REMARK  status: ('A' for Active; 'I' for Inactive)
REMARK    1  A    between atoms: O_1  and  C_2
REMARK    2  A    between atoms: N_5  and  C_6
REMARK    3  A    between atoms: C_10  and  C_11
REMARK    4  A    between atoms: C_11  and  N_12
REMARK    5  A    between atoms: N_12  and  C_13
REMARK    6  A    between atoms: C_17  and  C_18
REMARK                            x       y       z     vdW  Elec       q    Type
REMARK                         _______ _______ _______ _____ _____    ______ ____
ROOT
ATOM      1  C   UNL     1      48.579   6.155  15.191  0.00  0.00    +0.000 A 
ATOM      2  C   UNL     1      49.567   7.143  15.107  0.00  0.00    +0.000 A 
ATOM      3  C   UNL     1      49.647   8.006  14.012  0.00  0.00    +0.000 A 
ATOM      4  C   UNL     1      48.737   7.894  12.960  0.00  0.00    +0.000 A 
ATOM      5  C   UNL     1      47.756   6.897  12.990  0.00  0.00    +0.000 A 
ATOM      6  C   UNL     1      47.680   6.060  14.115  0.00  0.00    +0.000 A 
ENDROOT
BRANCH   1  10
ATOM      7  C   UNL     1      49.009   3.043  17.901  0.00  0.00    +0.000 C 
ATOM      8  C   UNL     1      48.060   2.973  16.701  0.00  0.00    +0.000 C 
ATOM      9  C   UNL     1      47.412   4.328  16.410  0.00  0.00    +0.000 C 
ATOM     10  N   UNL     1      48.475   5.318  16.278  0.00  0.00    +0.000 N 
ATOM     11  C   UNL     1      49.297   5.514  17.473  0.00  0.00    +0.000 C 
ATOM     12  C   UNL     1      50.003   4.201  17.796  0.00  0.00    +0.000 C 
BRANCH   7  13
ATOM     13  O   UNL     1      48.254   3.187  19.105  0.00  0.00    +0.000 OA
ATOM     14  H   UNL     1      48.626   3.942  19.592  0.00  0.00    +0.000 HD
ENDBRANCH   7  13
ENDBRANCH   1  10
BRANCH   5  15
ATOM     15  C   UNL     1      46.814   6.681  11.829  0.00  0.00    +0.000 C 
BRANCH  15  16
ATOM     16  N   UNL     1      45.453   6.438  12.298  0.00  0.00    +0.000 N 
ATOM     17  H   UNL     1      44.846   7.223  12.068  0.00  0.00    +0.000 HD
BRANCH  16  18
ATOM     18  C   UNL     1      44.861   5.209  11.968  0.00  0.00    +0.000 A 
ATOM     19  C   UNL     1      44.106   4.509  12.913  0.00  0.00    +0.000 A 
ATOM     20  N   UNL     1      43.527   3.299  12.717  0.00  0.00    +0.000 NA
ATOM     21  C   UNL     1      43.745   2.712  11.522  0.00  0.00    +0.000 A 
ATOM     22  C   UNL     1      44.524   3.273  10.524  0.00  0.00    +0.000 A 
ATOM     23  C   UNL     1      45.093   4.533  10.764  0.00  0.00    +0.000 A 
BRANCH  22  24
ATOM     24  C   UNL     1      44.743   2.533   9.240  0.00  0.00    +0.000 C 
ATOM     25  F   UNL     1      44.268   3.190   8.145  0.00  0.00    +0.000 F 
ATOM     26  F   UNL     1      46.062   2.303   8.989  0.00  0.00    +0.000 F 
ATOM     27  F   UNL     1      44.144   1.311   9.228  0.00  0.00    +0.000 F 
ENDBRANCH  22  24
ENDBRANCH  16  18
ENDBRANCH  15  16
ENDBRANCH   5  15
TORSDOF 6
ENDMDL
MODEL 5
REMARK VINA RESULT:    -7.097      4.801      7.857
REMARK INTER + INTRA:         -10.075
REMARK INTER:                  -9.157
REMARK INTRA:                  -0.918
REMARK UNBOUND:                -0.696
REMARK  Name = 
REMARK  6 active torsions:
REMARK  status: ('A' for Active; 'I' for Inactive)
REMARK    1  A    between atoms: O_1  and  C_2
REMARK    2  A    between atoms: N_5  and  C_6
REMARK    3  A    between atoms: C_10  and  C_11
REMARK    4  A    between atoms: C_11  and  N_12
REMARK    5  A    between atoms: N_12  and  C_13
REMARK    6  A    between atoms: C_17  and  C_18
REMARK                            x       y       z     vdW  Elec       q    Type
REMARK                         _______ _______ _______ _____ _____    ______ ____
ROOT
ATOM      1  C   UNL     1      45.282   6.738  12.306  0.00  0.00    +0.000 A 
ATOM      2  C   UNL     1      44.810   8.002  11.933  0.00  0.00    +0.000 A 
ATOM      3  C   UNL     1      45.561   9.158  12.160  0.00  0.00    +0.000 A 
ATOM      4  C   UNL     1      46.808   9.077  12.781  0.00  0.00    +0.000 A 
ATOM      5  C   UNL     1      47.298   7.836  13.200  0.00  0.00    +0.000 A 
ATOM      6  C   UNL     1      46.537   6.685  12.935  0.00  0.00    +0.000 A 
ENDROOT
BRANCH   1  10
ATOM      7  C   UNL     1      43.989   3.042  10.933  0.00  0.00    +0.000 C 
ATOM      8  C   UNL     1      43.781   4.339  10.145  0.00  0.00    +0.000 C 
ATOM      9  C   UNL     1      43.497   5.524  11.069  0.00  0.00    +0.000 C 
ATOM     10  N   UNL     1      44.563   5.590  12.062  0.00  0.00    +0.000 N 
ATOM     11  C   UNL     1      44.677   4.419  12.933  0.00  0.00    +0.000 C 
ATOM     12  C   UNL     1      44.998   3.202  12.071  0.00  0.00    +0.000 C 
BRANCH   7  13
ATOM     13  O   UNL     1      42.743   2.602  11.476  0.00  0.00    +0.000 OA
ATOM     14  H   UNL     1      42.911   2.312  12.389  0.00  0.00    +0.000 HD
ENDBRANCH   7  13
ENDBRANCH   1  10
BRANCH   5  15
ATOM     15  C   UNL     1      48.599   7.717  13.959  0.00  0.00    +0.000 C 
BRANCH  15  16
ATOM     16  N   UNL     1      48.360   7.639  15.398  0.00  0.00    +0.000 N 
ATOM     17  H   UNL     1      47.368   7.745  15.605  0.00  0.00    +0.000 HD
BRANCH  16  18
ATOM     18  C   UNL     1      48.924   6.558  16.093  0.00  0.00    +0.000 A 
ATOM     19  C   UNL     1      50.296   6.520  16.353  0.00  0.00    +0.000 A 
ATOM     20  N   UNL     1      50.951   5.510  16.976  0.00  0.00    +0.000 NA
ATOM     21  C   UNL     1      50.211   4.438  17.329  0.00  0.00    +0.000 A 
ATOM     22  C   UNL     1      48.855   4.327  17.074  0.00  0.00    +0.000 A 
ATOM     23  C   UNL     1      48.214   5.401  16.439  0.00  0.00    +0.000 A 
BRANCH  22  24
ATOM     24  C   UNL     1      48.119   3.082  17.467  0.00  0.00    +0.000 C 
ATOM     25  F   UNL     1      46.765   3.200  17.379  0.00  0.00    +0.000 F 
ATOM     26  F   UNL     1      48.448   2.014  16.689  0.00  0.00    +0.000 F 
ATOM     27  F   UNL     1      48.375   2.702  18.749  0.00  0.00    +0.000 F 
ENDBRANCH  22  24
ENDBRANCH  16  18
ENDBRANCH  15  16
ENDBRANCH   5  15
TORSDOF 6
ENDMDL
MODEL 6
REMARK VINA RESULT:    -6.960      2.976      4.259
REMARK INTER + INTRA:          -9.894
REMARK INTER:                  -9.074
REMARK INTRA:                  -0.820
REMARK UNBOUND:                -0.696
REMARK  Name = 
REMARK  6 active torsions:
REMARK  status: ('A' for Active; 'I' for Inactive)
REMARK    1  A    between atoms: O_1  and  C_2
REMARK    2  A    between atoms: N_5  and  C_6
REMARK    3  A    between atoms: C_10  and  C_11
REMARK    4  A    between atoms: C_11  and  N_12
REMARK    5  A    between atoms: N_12  and  C_13
REMARK    6  A    between atoms: C_17  and  C_18
REMARK                            x       y       z     vdW  Elec       q    Type
REMARK                         _______ _______ _______ _____ _____    ______ ____
ROOT
ATOM      1  C   UNL     1      48.677   6.932  14.153  0.00  0.00    +0.000 A 
ATOM      2  C   UNL     1      49.319   7.453  13.024  0.00  0.00    +0.000 A 
ATOM      3  C   UNL     1      48.668   7.546  11.791  0.00  0.00    +0.000 A 
ATOM      4  C   UNL     1      47.351   7.104  11.656  0.00  0.00    +0.000 A 
ATOM      5  C   UNL     1      46.687   6.545  12.753  0.00  0.00    +0.000 A 
ATOM      6  C   UNL     1      47.354   6.489  13.988  0.00  0.00    +0.000 A 
ENDROOT
BRANCH   1  10
ATOM      7  C   UNL     1      51.023   5.830  17.393  0.00  0.00    +0.000 C 
ATOM      8  C   UNL     1      49.644   5.223  17.123  0.00  0.00    +0.000 C 
ATOM      9  C   UNL     1      48.673   6.254  16.546  0.00  0.00    +0.000 C 
ATOM     10  N   UNL     1      49.299   6.862  15.379  0.00  0.00    +0.000 N 
ATOM     11  C   UNL     1      50.544   7.585  15.644  0.00  0.00    +0.000 C 
ATOM     12  C   UNL     1      51.571   6.599  16.190  0.00  0.00    +0.000 C 
BRANCH   7  13
ATOM     13  O   UNL     1      50.951   6.712  18.514  0.00  0.00    +0.000 OA
ATOM     14  H   UNL     1      51.645   6.443  19.141  0.00  0.00    +0.000 HD
ENDBRANCH   7  13
ENDBRANCH   1  10
BRANCH   5  15
ATOM     15  C   UNL     1      45.296   5.970  12.624  0.00  0.00    +0.000 C 
BRANCH  15  16
ATOM     16  N   UNL     1      44.787   6.129  11.264  0.00  0.00    +0.000 N 
ATOM     17  H   UNL     1      45.253   6.904  10.794  0.00  0.00    +0.000 HD
BRANCH  16  18
ATOM     18  C   UNL     1      44.731   4.986  10.453  0.00  0.00    +0.000 A 
ATOM     19  C   UNL     1      43.914   3.908  10.804  0.00  0.00    +0.000 A 
ATOM     20  N   UNL     1      43.814   2.742  10.120  0.00  0.00    +0.000 NA
ATOM     21  C   UNL     1      44.610   2.607   9.038  0.00  0.00    +0.000 A 
ATOM     22  C   UNL     1      45.506   3.575   8.621  0.00  0.00    +0.000 A 
ATOM     23  C   UNL     1      45.567   4.773   9.351  0.00  0.00    +0.000 A 
BRANCH  22  24
ATOM     24  C   UNL     1      46.379   3.325   7.430  0.00  0.00    +0.000 C 
ATOM     25  F   UNL     1      47.214   4.361   7.140  0.00  0.00    +0.000 F 
ATOM     26  F   UNL     1      47.183   2.238   7.592  0.00  0.00    +0.000 F 
ATOM     27  F   UNL     1      45.666   3.095   6.294  0.00  0.00    +0.000 F 
ENDBRANCH  22  24
ENDBRANCH  16  18
ENDBRANCH  15  16
ENDBRANCH   5  15
TORSDOF 6
ENDMDL
MODEL 7
REMARK VINA RESULT:    -6.592      5.595      8.144
REMARK INTER + INTRA:          -9.407
REMARK INTER:                  -8.545
REMARK INTRA:                  -0.862
REMARK UNBOUND:                -0.696
REMARK  Name = 
REMARK  6 active torsions:
REMARK  status: ('A' for Active; 'I' for Inactive)
REMARK    1  A    between atoms: O_1  and  C_2
REMARK    2  A    between atoms: N_5  and  C_6
REMARK    3  A    between atoms: C_10  and  C_11
REMARK    4  A    between atoms: C_11  and  N_12
REMARK    5  A    between atoms: N_12  and  C_13
REMARK    6  A    between atoms: C_17  and  C_18
REMARK                            x       y       z     vdW  Elec       q    Type
REMARK                         _______ _______ _______ _____ _____    ______ ____
ROOT
ATOM      1  C   UNL     1      46.758   6.032  12.680  0.00  0.00    +0.000 A 
ATOM      2  C   UNL     1      47.523   6.800  11.794  0.00  0.00    +0.000 A 
ATOM      3  C   UNL     1      48.677   7.465  12.214  0.00  0.00    +0.000 A 
ATOM      4  C   UNL     1      49.092   7.385  13.544  0.00  0.00    +0.000 A 
ATOM      5  C   UNL     1      48.335   6.656  14.467  0.00  0.00    +0.000 A 
ATOM      6  C   UNL     1      47.193   5.973  14.014  0.00  0.00    +0.000 A 
ENDROOT
BRANCH   1  10
ATOM      7  C   UNL     1      44.102   3.454  10.805  0.00  0.00    +0.000 C 
ATOM      8  C   UNL     1      44.538   4.787  10.190  0.00  0.00    +0.000 C 
ATOM      9  C   UNL     1      44.726   5.869  11.255  0.00  0.00    +0.000 C 
ATOM     10  N   UNL     1      45.634   5.351  12.271  0.00  0.00    +0.000 N 
ATOM     11  C   UNL     1      45.162   4.163  12.983  0.00  0.00    +0.000 C 
ATOM     12  C   UNL     1      44.989   3.030  11.976  0.00  0.00    +0.000 C 
BRANCH   7  13
ATOM     13  O   UNL     1      42.751   3.551  11.257  0.00  0.00    +0.000 OA
ATOM     14  H   UNL     1      42.574   2.770  11.810  0.00  0.00    +0.000 HD
ENDBRANCH   7  13
ENDBRANCH   1  10
BRANCH   5  15
ATOM     15  C   UNL     1      48.697   6.622  15.933  0.00  0.00    +0.000 C 
BRANCH  15  16
ATOM     16  N   UNL     1      48.137   5.440  16.584  0.00  0.00    +0.000 N 
ATOM     17  H   UNL     1      47.237   5.195  16.173  0.00  0.00    +0.000 HD
BRANCH  16  18
ATOM     18  C   UNL     1      48.968   4.318  16.722  0.00  0.00    +0.000 A 
ATOM     19  C   UNL     1      48.525   3.054  16.326  0.00  0.00    +0.000 A 
ATOM     20  N   UNL     1      49.225   1.900  16.453  0.00  0.00    +0.000 NA
ATOM     21  C   UNL     1      50.430   1.988  17.055  0.00  0.00    +0.000 A 
ATOM     22  C   UNL     1      50.956   3.170  17.545  0.00  0.00    +0.000 A 
ATOM     23  C   UNL     1      50.203   4.343  17.381  0.00  0.00    +0.000 A 
BRANCH  22  24
ATOM     24  C   UNL     1      52.286   3.169  18.235  0.00  0.00    +0.000 C 
ATOM     25  F   UNL     1      53.248   3.860  17.562  0.00  0.00    +0.000 F 
ATOM     26  F   UNL     1      52.232   3.727  19.476  0.00  0.00    +0.000 F 
ATOM     27  F   UNL     1      52.786   1.915  18.412  0.00  0.00    +0.000 F 
ENDBRANCH  22  24
ENDBRANCH  16  18
ENDBRANCH  15  16
ENDBRANCH   5  15
TORSDOF 6
ENDMDL
MODEL 8
REMARK VINA RESULT:    -6.507      3.449      5.180
REMARK INTER + INTRA:          -9.295
REMARK INTER:                  -8.604
REMARK INTRA:                  -0.691
REMARK UNBOUND:                -0.696
REMARK  Name = 
REMARK  6 active torsions:
REMARK  status: ('A' for Active; 'I' for Inactive)
REMARK    1  A    between atoms: O_1  and  C_2
REMARK    2  A    between atoms: N_5  and  C_6
REMARK    3  A    between atoms: C_10  and  C_11
REMARK    4  A    between atoms: C_11  and  N_12
REMARK    5  A    between atoms: N_12  and  C_13
REMARK    6  A    between atoms: C_17  and  C_18
REMARK                            x       y       z     vdW  Elec       q    Type
REMARK                         _______ _______ _______ _____ _____    ______ ____
ROOT
ATOM      1  C   UNL     1      48.607   6.977  15.423  0.00  0.00    +0.000 A 
ATOM      2  C   UNL     1      48.837   8.338  15.658  0.00  0.00    +0.000 A 
ATOM      3  C   UNL     1      48.565   9.303  14.687  0.00  0.00    +0.000 A 
ATOM      4  C   UNL     1      48.060   8.927  13.442  0.00  0.00    +0.000 A 
ATOM      5  C   UNL     1      47.849   7.574  13.155  0.00  0.00    +0.000 A 
ATOM      6  C   UNL     1      48.105   6.624  14.159  0.00  0.00    +0.000 A 
ENDROOT
BRANCH   1  10
ATOM      7  C   UNL     1      48.622   4.711  18.899  0.00  0.00    +0.000 C 
ATOM      8  C   UNL     1      49.518   5.938  18.704  0.00  0.00    +0.000 C 
ATOM      9  C   UNL     1      50.009   6.059  17.261  0.00  0.00    +0.000 C 
ATOM     10  N   UNL     1      48.846   6.020  16.382  0.00  0.00    +0.000 N 
ATOM     11  C   UNL     1      48.063   4.785  16.439  0.00  0.00    +0.000 C 
ATOM     12  C   UNL     1      47.511   4.624  17.852  0.00  0.00    +0.000 C 
BRANCH   7  13
ATOM     13  O   UNL     1      49.412   3.523  18.837  0.00  0.00    +0.000 OA
ATOM     14  H   UNL     1      48.840   2.781  19.097  0.00  0.00    +0.000 HD
ENDBRANCH   7  13
ENDBRANCH   1  10
BRANCH   5  15
ATOM     15  C   UNL     1      47.394   7.118  11.789  0.00  0.00    +0.000 C 
BRANCH  15  16
ATOM     16  N   UNL     1      45.943   7.220  11.659  0.00  0.00    +0.000 N 
ATOM     17  H   UNL     1      45.675   8.145  11.325  0.00  0.00    +0.000 HD
BRANCH  16  18
ATOM     18  C   UNL     1      45.279   6.201  10.960  0.00  0.00    +0.000 A 
ATOM     19  C   UNL     1      44.039   5.731  11.399  0.00  0.00    +0.000 A 
ATOM     20  N   UNL     1      43.331   4.727  10.828  0.00  0.00    +0.000 NA
ATOM     21  C   UNL     1      43.905   4.108   9.775  0.00  0.00    +0.000 A 
ATOM     22  C   UNL     1      45.155   4.438   9.280  0.00  0.00    +0.000 A 
ATOM     23  C   UNL     1      45.847   5.493   9.894  0.00  0.00    +0.000 A 
BRANCH  22  24
ATOM     24  C   UNL     1      45.731   3.671   8.130  0.00  0.00    +0.000 C 
ATOM     25  F   UNL     1      46.250   2.463   8.486  0.00  0.00    +0.000 F 
ATOM     26  F   UNL     1      44.808   3.406   7.164  0.00  0.00    +0.000 F 
ATOM     27  F   UNL     1      46.741   4.338   7.506  0.00  0.00    +0.000 F 
ENDBRANCH  22  24
ENDBRANCH  16  18
ENDBRANCH  15  16
ENDBRANCH   5  15
TORSDOF 6
ENDMDL
MODEL 9
REMARK VINA RESULT:    -6.355      4.621      6.788
REMARK INTER + INTRA:          -9.094
REMARK INTER:                  -8.254
REMARK INTRA:                  -0.840
REMARK UNBOUND:                -0.696
REMARK  Name = 
REMARK  6 active torsions:
REMARK  status: ('A' for Active; 'I' for Inactive)
REMARK    1  A    between atoms: O_1  and  C_2
REMARK    2  A    between atoms: N_5  and  C_6
REMARK    3  A    between atoms: C_10  and  C_11
REMARK    4  A    between atoms: C_11  and  N_12
REMARK    5  A    between atoms: N_12  and  C_13
REMARK    6  A    between atoms: C_17  and  C_18
REMARK                            x       y       z     vdW  Elec       q    Type
REMARK                         _______ _______ _______ _____ _____    ______ ____
ROOT
ATOM      1  C   UNL     1      49.557   6.546  16.408  0.00  0.00    +0.000 A 
ATOM      2  C   UNL     1      50.707   7.324  16.582  0.00  0.00    +0.000 A 
ATOM      3  C   UNL     1      51.017   8.373  15.714  0.00  0.00    +0.000 A 
ATOM      4  C   UNL     1      50.181   8.666  14.636  0.00  0.00    +0.000 A 
ATOM      5  C   UNL     1      49.040   7.890  14.409  0.00  0.00    +0.000 A 
ATOM      6  C   UNL     1      48.735   6.858  15.312  0.00  0.00    +0.000 A 
ENDROOT
BRANCH   1  10
ATOM      7  C   UNL     1      48.290   2.964  18.076  0.00  0.00    +0.000 C 
ATOM      8  C   UNL     1      47.327   4.101  17.721  0.00  0.00    +0.000 C 
ATOM      9  C   UNL     1      47.950   5.474  17.975  0.00  0.00    +0.000 C 
ATOM     10  N   UNL     1      49.227   5.528  17.274  0.00  0.00    +0.000 N 
ATOM     11  C   UNL     1      50.222   4.547  17.710  0.00  0.00    +0.000 C 
ATOM     12  C   UNL     1      49.672   3.149  17.447  0.00  0.00    +0.000 C 
BRANCH   7  13
ATOM     13  O   UNL     1      48.433   2.879  19.495  0.00  0.00    +0.000 OA
ATOM     14  H   UNL     1      49.361   2.653  19.680  0.00  0.00    +0.000 HD
ENDBRANCH   7  13
ENDBRANCH   1  10
BRANCH   5  15
ATOM     15  C   UNL     1      48.160   8.113  13.201  0.00  0.00    +0.000 C 
BRANCH  15  16
ATOM     16  N   UNL     1      46.769   7.784  13.498  0.00  0.00    +0.000 N 
ATOM     17  H   UNL     1      46.220   8.630  13.642  0.00  0.00    +0.000 HD
BRANCH  16  18
ATOM     18  C   UNL     1      46.118   6.881  12.644  0.00  0.00    +0.000 A 
ATOM     19  C   UNL     1      46.658   6.574  11.392  0.00  0.00    +0.000 A 
ATOM     20  N   UNL     1      46.095   5.752  10.473  0.00  0.00    +0.000 NA
ATOM     21  C   UNL     1      44.891   5.229  10.788  0.00  0.00    +0.000 A 
ATOM     22  C   UNL     1      44.223   5.502  11.969  0.00  0.00    +0.000 A 
ATOM     23  C   UNL     1      44.848   6.348  12.898  0.00  0.00    +0.000 A 
BRANCH  22  24
ATOM     24  C   UNL     1      42.871   4.907  12.220  0.00  0.00    +0.000 C 
ATOM     25  F   UNL     1      42.637   3.770  11.506  0.00  0.00    +0.000 F 
ATOM     26  F   UNL     1      42.684   4.568  13.525  0.00  0.00    +0.000 F 
ATOM     27  F   UNL     1      41.855   5.757  11.907  0.00  0.00    +0.000 F 
ENDBRANCH  22  24
ENDBRANCH  16  18
ENDBRANCH  15  16
ENDBRANCH   5  15
TORSDOF 6
ENDMDL
