MODEL 1
REMARK VINA RESULT:    -9.162      0.000      0.000
REMARK INTER + INTRA:         -12.672
REMARK INTER:                 -11.840
REMARK INTRA:                  -0.832
REMARK UNBOUND:                -0.832
REMARK  Name = 
REMARK  6 active torsions:
REMARK  status: ('A' for Active; 'I' for Inactive)
REMARK    1  A    between atoms: C_1  and  C_2
REMARK    2  A    between atoms: N_9  and  C_10
REMARK    3  A    between atoms: C_10  and  C_11
REMARK    4  A    between atoms: C_14  and  C_15
REMARK    5  A    between atoms: C_15  and  N_16
REMARK    6  A    between atoms: C_17  and  C_19
REMARK                            x       y       z     vdW  Elec       q    Type
REMARK                         _______ _______ _______ _____ _____    ______ ____
ROOT
ATOM      1  C   UNL     1      43.323   4.191  11.458  0.00  0.00    +0.000 C 
ATOM      2  C   UNL     1      43.295   4.739  12.893  0.00  0.00    +0.000 C 
ATOM      3  C   UNL     1      44.583   5.464  13.285  0.00  0.00    +0.000 C 
ATOM      4  C   UNL     1      44.967   6.576  12.294  0.00  0.00    +0.000 C 
ATOM      5  C   UNL     1      44.956   6.063  10.845  0.00  0.00    +0.000 C 
ATOM      6  C   UNL     1      43.650   5.349  10.496  0.00  0.00    +0.000 C 
ENDROOT
BRANCH   1   7
ATOM      7  C   UNL     1      44.300   3.006  11.277  0.00  0.00    +0.000 C 
BRANCH   7  16
ATOM      8  C   UNL     1      46.787   0.079   7.612  0.00  0.00    +0.000 C 
ATOM      9  C   UNL     1      46.766   1.536   7.327  0.00  0.00    +0.000 A 
ATOM     10  C   UNL     1      47.534   2.238   6.414  0.00  0.00    +0.000 A 
ATOM     11  C   UNL     1      47.186   3.599   6.512  0.00  0.00    +0.000 A 
ATOM     12  C   UNL     1      46.250   3.705   7.516  0.00  0.00    +0.000 A 
ATOM     13  N   UNL     1      45.983   2.443   8.037  0.00  0.00    +0.000 N 
ATOM     14  C   UNL     1      45.065   2.151   9.077  0.00  0.00    +0.000 C 
ATOM     15  O   UNL     1      44.375   1.145   9.036  0.00  0.00    +0.000 OA
ATOM     16  N   UNL     1      45.132   3.086  10.088  0.00  0.00    +0.000 N 
ATOM     17  H   UNL     1      45.906   3.740  10.093  0.00  0.00    +0.000 HD
ENDBRANCH   7  16
ENDBRANCH   1   7
BRANCH   4  18
ATOM     18  C   UNL     1      46.342   7.184  12.621  0.00  0.00    +0.000 C 
BRANCH  18  19
ATOM     19  N   UNL     1      46.857   6.732  13.893  0.00  0.00    +0.000 N 
ATOM     20  C   UNL     1      48.201   6.551  14.099  0.00  0.00    +0.000 C 
ATOM     21  O   UNL     1      49.026   6.677  13.201  0.00  0.00    +0.000 OA
ATOM     22  H   UNL     1      46.237   6.770  14.697  0.00  0.00    +0.000 HD
BRANCH  20  23
ATOM     23  C   UNL     1      48.609   6.185  15.462  0.00  0.00    +0.000 A 
ATOM     24  C   UNL     1      49.444   7.031  16.183  0.00  0.00    +0.000 A 
ATOM     25  S   UNL     1      49.743   6.500  17.777  0.00  0.00    +0.000 S 
ATOM     26  C   UNL     1      48.721   5.156  17.572  0.00  0.00    +0.000 A 
ATOM     27  N   UNL     1      48.441   4.324  18.614  0.00  0.00    +0.000 NA
ATOM     28  C   UNL     1      47.637   3.357  18.323  0.00  0.00    +0.000 A 
ATOM     29  N   UNL     1      47.124   3.114  17.075  0.00  0.00    +0.000 N 
ATOM     30  C   UNL     1      47.436   3.886  15.978  0.00  0.00    +0.000 A 
ATOM     31  O   UNL     1      47.078   3.567  14.852  0.00  0.00    +0.000 OA
ATOM     32  C   UNL     1      48.249   5.051  16.280  0.00  0.00    +0.000 A 
ATOM     33  H   UNL     1      46.553   2.300  16.899  0.00  0.00    +0.000 HD
ENDBRANCH  20  23
ENDBRANCH  18  19
ENDBRANCH   4  18
TORSDOF 5
ENDMDL
MODEL 2
REMARK VINA RESULT:    -8.793      1.807      2.930
REMARK INTER + INTRA:         -12.195
REMARK INTER:                 -11.393
REMARK INTRA:                  -0.801
REMARK UNBOUND:                -0.832
REMARK  Name = 
REMARK  6 active torsions:
REMARK  status: ('A' for Active; 'I' for Inactive)
REMARK    1  A    between atoms: C_1  and  C_2
REMARK    2  A    between atoms: N_9  and  C_10
REMARK    3  A    between atoms: C_10  and  C_11
REMARK    4  A    between atoms: C_14  and  C_15
REMARK    5  A    between atoms: C_15  and  N_16
REMARK    6  A    between atoms: C_17  and  C_19
REMARK                            x       y       z     vdW  Elec       q    Type
REMARK                         _______ _______ _______ _____ _____    ______ ____
ROOT
ATOM      1  C   UNL     1      43.043   4.272  11.378  0.00  0.00    +0.000 C 
ATOM      2  C   UNL     1      43.773   3.043  11.940  0.00  0.00    +0.000 C 
ATOM      3  C   UNL     1      45.239   3.316  12.276  0.00  0.00    +0.000 C 
ATOM      4  C   UNL     1      45.421   4.523  13.214  0.00  0.00    +0.000 C 
ATOM      5  C   UNL     1      44.660   5.754  12.697  0.00  0.00    +0.000 C 
ATOM      6  C   UNL     1      43.199   5.436  12.376  0.00  0.00    +0.000 C 
ENDROOT
BRANCH   1   7
ATOM      7  C   UNL     1      43.518   4.670   9.961  0.00  0.00    +0.000 C 
BRANCH   7  16
ATOM      8  C   UNL     1      46.790   3.823   5.867  0.00  0.00    +0.000 C 
ATOM      9  C   UNL     1      46.637   2.665   6.783  0.00  0.00    +0.000 A 
ATOM     10  C   UNL     1      46.993   1.347   6.559  0.00  0.00    +0.000 A 
ATOM     11  C   UNL     1      46.636   0.602   7.700  0.00  0.00    +0.000 A 
ATOM     12  C   UNL     1      46.025   1.472   8.574  0.00  0.00    +0.000 A 
ATOM     13  N   UNL     1      46.009   2.749   8.024  0.00  0.00    +0.000 N 
ATOM     14  C   UNL     1      45.473   3.910   8.635  0.00  0.00    +0.000 C 
ATOM     15  O   UNL     1      46.031   4.989   8.521  0.00  0.00    +0.000 OA
ATOM     16  N   UNL     1      44.277   3.643   9.267  0.00  0.00    +0.000 N 
ATOM     17  H   UNL     1      43.823   2.755   9.090  0.00  0.00    +0.000 HD
ENDBRANCH   7  16
ENDBRANCH   1   7
BRANCH   4  18
ATOM     18  C   UNL     1      46.906   4.873  13.413  0.00  0.00    +0.000 C 
BRANCH  18  19
ATOM     19  N   UNL     1      47.187   5.357  14.744  0.00  0.00    +0.000 N 
ATOM     20  C   UNL     1      47.579   4.508  15.748  0.00  0.00    +0.000 C 
ATOM     21  O   UNL     1      47.630   3.293  15.599  0.00  0.00    +0.000 OA
ATOM     22  H   UNL     1      47.312   6.358  14.869  0.00  0.00    +0.000 HD
BRANCH  20  23
ATOM     23  C   UNL     1      47.931   5.133  17.030  0.00  0.00    +0.000 A 
ATOM     24  C   UNL     1      47.180   4.851  18.165  0.00  0.00    +0.000 A 
ATOM     25  S   UNL     1      47.780   5.588  19.583  0.00  0.00    +0.000 S 
ATOM     26  C   UNL     1      49.093   6.257  18.736  0.00  0.00    +0.000 A 
ATOM     27  N   UNL     1      50.077   6.935  19.392  0.00  0.00    +0.000 NA
ATOM     28  C   UNL     1      51.022   7.373  18.629  0.00  0.00    +0.000 A 
ATOM     29  N   UNL     1      51.053   7.240  17.265  0.00  0.00    +0.000 N 
ATOM     30  C   UNL     1      50.047   6.626  16.554  0.00  0.00    +0.000 A 
ATOM     31  O   UNL     1      50.030   6.642  15.330  0.00  0.00    +0.000 OA
ATOM     32  C   UNL     1      49.017   6.020  17.379  0.00  0.00    +0.000 A 
ATOM     33  H   UNL     1      51.789   7.665  16.720  0.00  0.00    +0.000 HD
ENDBRANCH  20  23
ENDBRANCH  18  19
ENDBRANCH   4  18
TORSDOF 5
ENDMDL
MODEL 3
REMARK VINA RESULT:    -7.616      3.104      4.690
REMARK INTER + INTRA:         -10.674
REMARK INTER:                 -10.022
REMARK INTRA:                  -0.652
REMARK UNBOUND:                -0.832
REMARK  Name = 
REMARK  6 active torsions:
REMARK  status: ('A' for Active; 'I' for Inactive)
REMARK    1  A    between atoms: C_1  and  C_2
REMARK    2  A    between atoms: N_9  and  C_10
REMARK    3  A    between atoms: C_10  and  C_11
REMARK    4  A    between atoms: C_14  and  C_15
REMARK    5  A    between atoms: C_15  and  N_16
REMARK    6  A    between atoms: C_17  and  C_19
REMARK                            x       y       z     vdW  Elec       q    Type
REMARK                         _______ _______ _______ _____ _____    ______ ____
ROOT
ATOM      1  C   UNL     1      47.616   8.186  12.147  0.00  0.00    +0.000 C 
ATOM      2  C   UNL     1      47.889   9.146  13.315  0.00  0.00    +0.000 C 
ATOM      3  C   UNL     1      47.842   8.459  14.680  0.00  0.00    +0.000 C 
ATOM      4  C   UNL     1      48.770   7.234  14.765  0.00  0.00    +0.000 C 
ATOM      5  C   UNL     1      48.548   6.281  13.579  0.00  0.00    +0.000 C 
ATOM      6  C   UNL     1      48.607   7.009  12.236  0.00  0.00    +0.000 C 
ENDROOT
BRANCH   1   7
ATOM      7  C   UNL     1      46.152   7.695  12.090  0.00  0.00    +0.000 C 
BRANCH   7  16
ATOM      8  C   UNL     1      43.438   3.146  11.732  0.00  0.00    +0.000 C 
ATOM      9  C   UNL     1      44.186   3.515  10.504  0.00  0.00    +0.000 A 
ATOM     10  C   UNL     1      44.494   2.714   9.419  0.00  0.00    +0.000 A 
ATOM     11  C   UNL     1      45.237   3.488   8.506  0.00  0.00    +0.000 A 
ATOM     12  C   UNL     1      45.408   4.729   9.076  0.00  0.00    +0.000 A 
ATOM     13  N   UNL     1      44.774   4.764  10.313  0.00  0.00    +0.000 N 
ATOM     14  C   UNL     1      44.723   5.877  11.190  0.00  0.00    +0.000 C 
ATOM     15  O   UNL     1      43.709   6.129  11.820  0.00  0.00    +0.000 OA
ATOM     16  N   UNL     1      45.938   6.527  11.252  0.00  0.00    +0.000 N 
ATOM     17  H   UNL     1      46.750   6.075  10.849  0.00  0.00    +0.000 HD
ENDBRANCH   7  16
ENDBRANCH   1   7
BRANCH   4  18
ATOM     18  C   UNL     1      48.589   6.471  16.088  0.00  0.00    +0.000 C 
BRANCH  18  19
ATOM     19  N   UNL     1      49.818   5.870  16.552  0.00  0.00    +0.000 N 
ATOM     20  C   UNL     1      49.830   4.966  17.585  0.00  0.00    +0.000 C 
ATOM     21  O   UNL     1      48.821   4.685  18.223  0.00  0.00    +0.000 OA
ATOM     22  H   UNL     1      50.640   5.950  15.959  0.00  0.00    +0.000 HD
BRANCH  20  23
ATOM     23  C   UNL     1      51.126   4.352  17.899  0.00  0.00    +0.000 A 
ATOM     24  C   UNL     1      52.123   5.112  18.500  0.00  0.00    +0.000 A 
ATOM     25  S   UNL     1      53.528   4.220  18.878  0.00  0.00    +0.000 S 
ATOM     26  C   UNL     1      52.827   2.781  18.305  0.00  0.00    +0.000 A 
ATOM     27  N   UNL     1      53.471   1.588  18.436  0.00  0.00    +0.000 NA
ATOM     28  C   UNL     1      52.816   0.574  17.976  0.00  0.00    +0.000 A 
ATOM     29  N   UNL     1      51.597   0.648  17.352  0.00  0.00    +0.000 N 
ATOM     30  C   UNL     1      50.943   1.839  17.134  0.00  0.00    +0.000 A 
ATOM     31  O   UNL     1      49.927   1.893  16.454  0.00  0.00    +0.000 OA
ATOM     32  C   UNL     1      51.589   2.993  17.733  0.00  0.00    +0.000 A 
ATOM     33  H   UNL     1      51.169  -0.176  16.954  0.00  0.00    +0.000 HD
ENDBRANCH  20  23
ENDBRANCH  18  19
ENDBRANCH   4  18
TORSDOF 5
ENDMDL
MODEL 4
REMARK VINA RESULT:    -7.425      2.731      4.396
REMARK INTER + INTRA:         -10.427
REMARK INTER:                  -9.334
REMARK INTRA:                  -1.093
REMARK UNBOUND:                -0.832
REMARK  Name = 
REMARK  6 active torsions:
REMARK  status: ('A' for Active; 'I' for Inactive)
REMARK    1  A    between atoms: C_1  and  C_2
REMARK    2  A    between atoms: N_9  and  C_10
REMARK    3  A    between atoms: C_10  and  C_11
REMARK    4  A    between atoms: C_14  and  C_15
REMARK    5  A    between atoms: C_15  and  N_16
REMARK    6  A    between atoms: C_17  and  C_19
REMARK                            x       y       z     vdW  Elec       q    Type
REMARK                         _______ _______ _______ _____ _____    ______ ____
ROOT
ATOM      1  C   UNL     1      47.455   8.113  12.098  0.00  0.00    +0.000 C 
ATOM      2  C   UNL     1      47.335   9.295  13.071  0.00  0.00    +0.000 C 
ATOM      3  C   UNL     1      48.094   9.076  14.380  0.00  0.00    +0.000 C 
ATOM      4  C   UNL     1      49.573   8.713  14.159  0.00  0.00    +0.000 C 
ATOM      5  C   UNL     1      49.722   7.562  13.151  0.00  0.00    +0.000 C 
ATOM      6  C   UNL     1      48.950   7.824  11.858  0.00  0.00    +0.000 C 
ENDROOT
BRANCH   1   7
ATOM      7  C   UNL     1      46.701   6.851  12.575  0.00  0.00    +0.000 C 
BRANCH   7  16
ATOM      8  C   UNL     1      43.503   2.791  11.358  0.00  0.00    +0.000 C 
ATOM      9  C   UNL     1      44.269   3.338  10.209  0.00  0.00    +0.000 A 
ATOM     10  C   UNL     1      44.472   2.763   8.967  0.00  0.00    +0.000 A 
ATOM     11  C   UNL     1      45.281   3.636   8.213  0.00  0.00    +0.000 A 
ATOM     12  C   UNL     1      45.595   4.699   9.028  0.00  0.00    +0.000 A 
ATOM     13  N   UNL     1      44.987   4.531  10.267  0.00  0.00    +0.000 N 
ATOM     14  C   UNL     1      45.070   5.427  11.362  0.00  0.00    +0.000 C 
ATOM     15  O   UNL     1      44.099   5.641  12.069  0.00  0.00    +0.000 OA
ATOM     16  N   UNL     1      46.349   5.920  11.516  0.00  0.00    +0.000 N 
ATOM     17  H   UNL     1      47.102   5.485  10.996  0.00  0.00    +0.000 HD
ENDBRANCH   7  16
ENDBRANCH   1   7
BRANCH   4  18
ATOM     18  C   UNL     1      50.274   8.346  15.478  0.00  0.00    +0.000 C 
BRANCH  18  19
ATOM     19  N   UNL     1      50.110   6.953  15.823  0.00  0.00    +0.000 N 
ATOM     20  C   UNL     1      49.267   6.558  16.831  0.00  0.00    +0.000 C 
ATOM     21  O   UNL     1      48.677   7.360  17.546  0.00  0.00    +0.000 OA
ATOM     22  H   UNL     1      50.448   6.257  15.164  0.00  0.00    +0.000 HD
BRANCH  20  23
ATOM     23  C   UNL     1      49.110   5.110  17.020  0.00  0.00    +0.000 A 
ATOM     24  C   UNL     1      47.858   4.525  16.867  0.00  0.00    +0.000 A 
ATOM     25  S   UNL     1      47.872   2.827  17.033  0.00  0.00    +0.000 S 
ATOM     26  C   UNL     1      49.557   2.815  17.255  0.00  0.00    +0.000 A 
ATOM     27  N   UNL     1      50.243   1.640  17.350  0.00  0.00    +0.000 NA
ATOM     28  C   UNL     1      51.518   1.778  17.498  0.00  0.00    +0.000 A 
ATOM     29  N   UNL     1      52.168   2.980  17.610  0.00  0.00    +0.000 N 
ATOM     30  C   UNL     1      51.508   4.188  17.591  0.00  0.00    +0.000 A 
ATOM     31  O   UNL     1      52.092   5.237  17.832  0.00  0.00    +0.000 OA
ATOM     32  C   UNL     1      50.087   4.088  17.315  0.00  0.00    +0.000 A 
ATOM     33  H   UNL     1      53.161   3.016  17.792  0.00  0.00    +0.000 HD
ENDBRANCH  20  23
ENDBRANCH  18  19
ENDBRANCH   4  18
TORSDOF 5
ENDMDL
MODEL 5
REMARK VINA RESULT:    -7.408      2.842      8.188
REMARK INTER + INTRA:         -10.405
REMARK INTER:                  -9.421
REMARK INTRA:                  -0.984
REMARK UNBOUND:                -0.832
REMARK  Name = 
REMARK  6 active torsions:
REMARK  status: ('A' for Active; 'I' for Inactive)
REMARK    1  A    between atoms: C_1  and  C_2
REMARK    2  A    between atoms: N_9  and  C_10
REMARK    3  A    between atoms: C_10  and  C_11
REMARK    4  A    between atoms: C_14  and  C_15
REMARK    5  A    between atoms: C_15  and  N_16
REMARK    6  A    between atoms: C_17  and  C_19
REMARK                            x       y       z     vdW  Elec       q    Type
REMARK                         _______ _______ _______ _____ _____    ______ ____
ROOT
ATOM      1  C   UNL     1      49.841   8.651  15.450  0.00  0.00    +0.000 C 
ATOM      2  C   UNL     1      50.104   7.525  14.440  0.00  0.00    +0.000 C 
ATOM      3  C   UNL     1      48.993   7.379  13.399  0.00  0.00    +0.000 C 
ATOM      4  C   UNL     1      48.688   8.697  12.665  0.00  0.00    +0.000 C 
ATOM      5  C   UNL     1      48.468   9.851  13.655  0.00  0.00    +0.000 C 
ATOM      6  C   UNL     1      49.602   9.961  14.674  0.00  0.00    +0.000 C 
ENDROOT
BRANCH   1   7
ATOM      7  C   UNL     1      48.677   8.343  16.420  0.00  0.00    +0.000 C 
BRANCH   7  16
ATOM      8  C   UNL     1      50.879   3.656  17.590  0.00  0.00    +0.000 C 
ATOM      9  C   UNL     1      49.396   3.640  17.522  0.00  0.00    +0.000 A 
ATOM     10  C   UNL     1      48.557   2.543  17.439  0.00  0.00    +0.000 A 
ATOM     11  C   UNL     1      47.231   3.016  17.373  0.00  0.00    +0.000 A 
ATOM     12  C   UNL     1      47.294   4.391  17.367  0.00  0.00    +0.000 A 
ATOM     13  N   UNL     1      48.621   4.796  17.451  0.00  0.00    +0.000 N 
ATOM     14  C   UNL     1      49.080   6.137  17.482  0.00  0.00    +0.000 C 
ATOM     15  O   UNL     1      50.014   6.460  18.197  0.00  0.00    +0.000 OA
ATOM     16  N   UNL     1      48.389   6.928  16.589  0.00  0.00    +0.000 N 
ATOM     17  H   UNL     1      47.795   6.479  15.902  0.00  0.00    +0.000 HD
ENDBRANCH   7  16
ENDBRANCH   1   7
BRANCH   4  18
ATOM     18  C   UNL     1      47.467   8.564  11.738  0.00  0.00    +0.000 C 
BRANCH  18  19
ATOM     19  N   UNL     1      46.872   7.250  11.792  0.00  0.00    +0.000 N 
ATOM     20  C   UNL     1      45.512   7.075  11.734  0.00  0.00    +0.000 C 
ATOM     21  O   UNL     1      44.729   8.017  11.720  0.00  0.00    +0.000 OA
ATOM     22  H   UNL     1      47.478   6.447  11.644  0.00  0.00    +0.000 HD
BRANCH  20  23
ATOM     23  C   UNL     1      45.034   5.686  11.699  0.00  0.00    +0.000 A 
ATOM     24  C   UNL     1      44.435   5.133  12.824  0.00  0.00    +0.000 A 
ATOM     25  S   UNL     1      43.857   3.546  12.581  0.00  0.00    +0.000 S 
ATOM     26  C   UNL     1      44.336   3.571  10.950  0.00  0.00    +0.000 A 
ATOM     27  N   UNL     1      44.034   2.536  10.116  0.00  0.00    +0.000 NA
ATOM     28  C   UNL     1      44.441   2.694   8.901  0.00  0.00    +0.000 A 
ATOM     29  N   UNL     1      45.165   3.769   8.452  0.00  0.00    +0.000 N 
ATOM     30  C   UNL     1      45.553   4.801   9.274  0.00  0.00    +0.000 A 
ATOM     31  O   UNL     1      46.315   5.676   8.883  0.00  0.00    +0.000 OA
ATOM     32  C   UNL     1      45.024   4.721  10.624  0.00  0.00    +0.000 A 
ATOM     33  H   UNL     1      45.511   3.799   7.503  0.00  0.00    +0.000 HD
ENDBRANCH  20  23
ENDBRANCH  18  19
ENDBRANCH   4  18
TORSDOF 5
ENDMDL
MODEL 6
REMARK VINA RESULT:    -7.111      2.509      4.453
REMARK INTER + INTRA:         -10.021
REMARK INTER:                  -8.838
REMARK INTRA:                  -1.183
REMARK UNBOUND:                -0.832
REMARK  Name = 
REMARK  6 active torsions:
REMARK  status: ('A' for Active; 'I' for Inactive)
REMARK    1  A    between atoms: C_1  and  C_2
REMARK    2  A    between atoms: N_9  and  C_10
REMARK    3  A    between atoms: C_10  and  C_11
REMARK    4  A    between atoms: C_14  and  C_15
REMARK    5  A    between atoms: C_15  and  N_16
REMARK    6  A    between atoms: C_17  and  C_19
REMARK                            x       y       z     vdW  Elec       q    Type
REMARK                         _______ _______ _______ _____ _____    ______ ____
ROOT
ATOM      1  C   UNL     1      47.674   8.443  12.054  0.00  0.00    +0.000 C 
ATOM      2  C   UNL     1      47.851   9.628  13.016  0.00  0.00    +0.000 C 
ATOM      3  C   UNL     1      48.960   9.406  14.045  0.00  0.00    +0.000 C 
ATOM      4  C   UNL     1      50.307   9.033  13.401  0.00  0.00    +0.000 C 
ATOM      5  C   UNL     1      50.147   7.880  12.398  0.00  0.00    +0.000 C 
ATOM      6  C   UNL     1      49.031   8.145  11.387  0.00  0.00    +0.000 C 
ENDROOT
BRANCH   1   7
ATOM      7  C   UNL     1      47.087   7.186  12.736  0.00  0.00    +0.000 C 
BRANCH   7  16
ATOM      8  C   UNL     1      43.770   3.055  12.394  0.00  0.00    +0.000 C 
ATOM      9  C   UNL     1      44.285   3.541  11.089  0.00  0.00    +0.000 A 
ATOM     10  C   UNL     1      44.246   2.900   9.864  0.00  0.00    +0.000 A 
ATOM     11  C   UNL     1      44.877   3.733   8.919  0.00  0.00    +0.000 A 
ATOM     12  C   UNL     1      45.331   4.841   9.598  0.00  0.00    +0.000 A 
ATOM     13  N   UNL     1      44.982   4.738  10.941  0.00  0.00    +0.000 N 
ATOM     14  C   UNL     1      45.269   5.693  11.948  0.00  0.00    +0.000 C 
ATOM     15  O   UNL     1      44.454   5.941  12.822  0.00  0.00    +0.000 OA
ATOM     16  N   UNL     1      46.545   6.198  11.818  0.00  0.00    +0.000 N 
ATOM     17  H   UNL     1      47.186   5.738  11.183  0.00  0.00    +0.000 HD
ENDBRANCH   7  16
ENDBRANCH   1   7
BRANCH   4  18
ATOM     18  C   UNL     1      51.362   8.664  14.457  0.00  0.00    +0.000 C 
BRANCH  18  19
ATOM     19  N   UNL     1      51.121   7.370  15.052  0.00  0.00    +0.000 N 
ATOM     20  C   UNL     1      51.447   7.109  16.359  0.00  0.00    +0.000 C 
ATOM     21  O   UNL     1      52.034   7.921  17.064  0.00  0.00    +0.000 OA
ATOM     22  H   UNL     1      50.501   6.731  14.562  0.00  0.00    +0.000 HD
BRANCH  20  23
ATOM     23  C   UNL     1      51.062   5.789  16.876  0.00  0.00    +0.000 A 
ATOM     24  C   UNL     1      52.028   4.953  17.424  0.00  0.00    +0.000 A 
ATOM     25  S   UNL     1      51.396   3.500  18.057  0.00  0.00    +0.000 S 
ATOM     26  C   UNL     1      49.807   3.968  17.673  0.00  0.00    +0.000 A 
ATOM     27  N   UNL     1      48.742   3.206  18.051  0.00  0.00    +0.000 NA
ATOM     28  C   UNL     1      47.594   3.689  17.711  0.00  0.00    +0.000 A 
ATOM     29  N   UNL     1      47.412   4.838  16.985  0.00  0.00    +0.000 N 
ATOM     30  C   UNL     1      48.460   5.600  16.521  0.00  0.00    +0.000 A 
ATOM     31  O   UNL     1      48.276   6.541  15.760  0.00  0.00    +0.000 OA
ATOM     32  C   UNL     1      49.766   5.157  16.974  0.00  0.00    +0.000 A 
ATOM     33  H   UNL     1      46.488   5.125  16.694  0.00  0.00    +0.000 HD
ENDBRANCH  20  23
ENDBRANCH  18  19
ENDBRANCH   4  18
TORSDOF 5
ENDMDL
MODEL 7
REMARK VINA RESULT:    -6.982      3.923      9.169
REMARK INTER + INTRA:          -9.855
REMARK INTER:                  -9.277
REMARK INTRA:                  -0.578
REMARK UNBOUND:                -0.832
REMARK  Name = 
REMARK  6 active torsions:
REMARK  status: ('A' for Active; 'I' for Inactive)
REMARK    1  A    between atoms: C_1  and  C_2
REMARK    2  A    between atoms: N_9  and  C_10
REMARK    3  A    between atoms: C_10  and  C_11
REMARK    4  A    between atoms: C_14  and  C_15
REMARK    5  A    between atoms: C_15  and  N_16
REMARK    6  A    between atoms: C_17  and  C_19
REMARK                            x       y       z     vdW  Elec       q    Type
REMARK                         _______ _______ _______ _____ _____    ______ ____
ROOT
ATOM      1  C   UNL     1      49.104   5.547  20.055  0.00  0.00    +0.000 C 
ATOM      2  C   UNL     1      47.877   6.196  19.398  0.00  0.00    +0.000 C 
ATOM      3  C   UNL     1      47.577   5.643  18.005  0.00  0.00    +0.000 C 
ATOM      4  C   UNL     1      47.447   4.109  17.987  0.00  0.00    +0.000 C 
ATOM      5  C   UNL     1      48.642   3.438  18.682  0.00  0.00    +0.000 C 
ATOM      6  C   UNL     1      48.903   4.019  20.071  0.00  0.00    +0.000 C 
ENDROOT
BRANCH   1   7
ATOM      7  C   UNL     1      50.437   5.938  19.377  0.00  0.00    +0.000 C 
BRANCH   7  16
ATOM      8  C   UNL     1      52.177   1.339  17.375  0.00  0.00    +0.000 C 
ATOM      9  C   UNL     1      53.119   1.998  18.315  0.00  0.00    +0.000 A 
ATOM     10  C   UNL     1      54.224   1.449  18.940  0.00  0.00    +0.000 A 
ATOM     11  C   UNL     1      54.797   2.442  19.759  0.00  0.00    +0.000 A 
ATOM     12  C   UNL     1      54.000   3.559  19.654  0.00  0.00    +0.000 A 
ATOM     13  N   UNL     1      52.955   3.304  18.773  0.00  0.00    +0.000 N 
ATOM     14  C   UNL     1      51.937   4.218  18.404  0.00  0.00    +0.000 C 
ATOM     15  O   UNL     1      51.524   4.262  17.256  0.00  0.00    +0.000 OA
ATOM     16  N   UNL     1      51.488   4.941  19.489  0.00  0.00    +0.000 N 
ATOM     17  H   UNL     1      51.764   4.642  20.417  0.00  0.00    +0.000 HD
ENDBRANCH   7  16
ENDBRANCH   1   7
BRANCH   4  18
ATOM     18  C   UNL     1      47.302   3.565  16.556  0.00  0.00    +0.000 C 
BRANCH  18  19
ATOM     19  N   UNL     1      46.790   4.554  15.637  0.00  0.00    +0.000 N 
ATOM     20  C   UNL     1      46.699   4.304  14.291  0.00  0.00    +0.000 C 
ATOM     21  O   UNL     1      47.121   3.271  13.785  0.00  0.00    +0.000 OA
ATOM     22  H   UNL     1      46.288   5.349  16.025  0.00  0.00    +0.000 HD
BRANCH  20  23
ATOM     23  C   UNL     1      46.071   5.351  13.474  0.00  0.00    +0.000 A 
ATOM     24  C   UNL     1      46.787   6.498  13.152  0.00  0.00    +0.000 A 
ATOM     25  S   UNL     1      45.942   7.566  12.124  0.00  0.00    +0.000 S 
ATOM     26  C   UNL     1      44.618   6.503  12.029  0.00  0.00    +0.000 A 
ATOM     27  N   UNL     1      43.566   6.767  11.204  0.00  0.00    +0.000 NA
ATOM     28  C   UNL     1      42.640   5.866  11.217  0.00  0.00    +0.000 A 
ATOM     29  N   UNL     1      42.644   4.750  12.013  0.00  0.00    +0.000 N 
ATOM     30  C   UNL     1      43.651   4.480  12.912  0.00  0.00    +0.000 A 
ATOM     31  O   UNL     1      43.563   3.554  13.708  0.00  0.00    +0.000 OA
ATOM     32  C   UNL     1      44.767   5.406  12.854  0.00  0.00    +0.000 A 
ATOM     33  H   UNL     1      41.855   4.119  12.023  0.00  0.00    +0.000 HD
ENDBRANCH  20  23
ENDBRANCH  18  19
ENDBRANCH   4  18
TORSDOF 5
ENDMDL
MODEL 8
REMARK VINA RESULT:    -6.833      3.874      8.332
REMARK INTER + INTRA:          -9.662
REMARK INTER:                  -8.959
REMARK INTRA:                  -0.703
REMARK UNBOUND:                -0.832
REMARK  Name = 
REMARK  6 active torsions:
REMARK  status: ('A' for Active; 'I' for Inactive)
REMARK    1  A    between atoms: C_1  and  C_2
REMARK    2  A    between atoms: N_9  and  C_10
REMARK    3  A    between atoms: C_10  and  C_11
REMARK    4  A    between atoms: C_14  and  C_15
REMARK    5  A    between atoms: C_15  and  N_16
REMARK    6  A    between atoms: C_17  and  C_19
REMARK                            x       y       z     vdW  Elec       q    Type
REMARK                         _______ _______ _______ _____ _____    ______ ____
ROOT
ATOM      1  C   UNL     1      49.212   5.408  20.074  0.00  0.00    +0.000 C 
ATOM      2  C   UNL     1      48.030   6.118  19.397  0.00  0.00    +0.000 C 
ATOM      3  C   UNL     1      47.733   5.587  17.994  0.00  0.00    +0.000 C 
ATOM      4  C   UNL     1      47.531   4.062  17.964  0.00  0.00    +0.000 C 
ATOM      5  C   UNL     1      48.680   3.330  18.678  0.00  0.00    +0.000 C 
ATOM      6  C   UNL     1      48.939   3.891  20.076  0.00  0.00    +0.000 C 
ENDROOT
BRANCH   1   7
ATOM      7  C   UNL     1      50.576   5.740  19.426  0.00  0.00    +0.000 C 
BRANCH   7  16
ATOM      8  C   UNL     1      53.444   7.483  15.313  0.00  0.00    +0.000 C 
ATOM      9  C   UNL     1      51.975   7.582  15.125  0.00  0.00    +0.000 A 
ATOM     10  C   UNL     1      51.283   8.312  14.175  0.00  0.00    +0.000 A 
ATOM     11  C   UNL     1      49.906   8.120  14.400  0.00  0.00    +0.000 A 
ATOM     12  C   UNL     1      49.787   7.319  15.512  0.00  0.00    +0.000 A 
ATOM     13  N   UNL     1      51.053   6.982  15.980  0.00  0.00    +0.000 N 
ATOM     14  C   UNL     1      51.333   6.161  17.101  0.00  0.00    +0.000 C 
ATOM     15  O   UNL     1      52.262   5.370  17.078  0.00  0.00    +0.000 OA
ATOM     16  N   UNL     1      50.487   6.438  18.154  0.00  0.00    +0.000 N 
ATOM     17  H   UNL     1      49.913   7.271  18.109  0.00  0.00    +0.000 HD
ENDBRANCH   7  16
ENDBRANCH   1   7
BRANCH   4  18
ATOM     18  C   UNL     1      47.390   3.533  16.526  0.00  0.00    +0.000 C 
BRANCH  18  19
ATOM     19  N   UNL     1      46.873   4.529  15.619  0.00  0.00    +0.000 N 
ATOM     20  C   UNL     1      46.724   4.272  14.279  0.00  0.00    +0.000 C 
ATOM     21  O   UNL     1      47.098   3.223  13.767  0.00  0.00    +0.000 OA
ATOM     22  H   UNL     1      46.408   5.341  16.018  0.00  0.00    +0.000 HD
BRANCH  20  23
ATOM     23  C   UNL     1      46.096   5.330  13.477  0.00  0.00    +0.000 A 
ATOM     24  C   UNL     1      46.820   6.470  13.148  0.00  0.00    +0.000 A 
ATOM     25  S   UNL     1      45.972   7.552  12.139  0.00  0.00    +0.000 S 
ATOM     26  C   UNL     1      44.634   6.506  12.062  0.00  0.00    +0.000 A 
ATOM     27  N   UNL     1      43.571   6.787  11.256  0.00  0.00    +0.000 NA
ATOM     28  C   UNL     1      42.634   5.898  11.280  0.00  0.00    +0.000 A 
ATOM     29  N   UNL     1      42.638   4.779  12.072  0.00  0.00    +0.000 N 
ATOM     30  C   UNL     1      43.656   4.492  12.953  0.00  0.00    +0.000 A 
ATOM     31  O   UNL     1      43.570   3.564  13.746  0.00  0.00    +0.000 OA
ATOM     32  C   UNL     1      44.783   5.404  12.879  0.00  0.00    +0.000 A 
ATOM     33  H   UNL     1      41.841   4.158  12.093  0.00  0.00    +0.000 HD
ENDBRANCH  20  23
ENDBRANCH  18  19
ENDBRANCH   4  18
TORSDOF 5
ENDMDL
MODEL 9
REMARK VINA RESULT:    -6.720      3.480      6.213
REMARK INTER + INTRA:          -9.516
REMARK INTER:                  -8.398
REMARK INTRA:                  -1.119
REMARK UNBOUND:                -0.832
REMARK  Name = 
REMARK  6 active torsions:
REMARK  status: ('A' for Active; 'I' for Inactive)
REMARK    1  A    between atoms: C_1  and  C_2
REMARK    2  A    between atoms: N_9  and  C_10
REMARK    3  A    between atoms: C_10  and  C_11
REMARK    4  A    between atoms: C_14  and  C_15
REMARK    5  A    between atoms: C_15  and  N_16
REMARK    6  A    between atoms: C_17  and  C_19
REMARK                            x       y       z     vdW  Elec       q    Type
REMARK                         _______ _______ _______ _____ _____    ______ ____
ROOT
ATOM      1  C   UNL     1      47.165   3.720  16.760  0.00  0.00    +0.000 C 
ATOM      2  C   UNL     1      48.238   2.672  17.092  0.00  0.00    +0.000 C 
ATOM      3  C   UNL     1      49.613   3.284  17.361  0.00  0.00    +0.000 C 
ATOM      4  C   UNL     1      49.578   4.376  18.446  0.00  0.00    +0.000 C 
ATOM      5  C   UNL     1      48.479   5.412  18.161  0.00  0.00    +0.000 C 
ATOM      6  C   UNL     1      47.123   4.757  17.900  0.00  0.00    +0.000 C 
ENDROOT
BRANCH   1   7
ATOM      7  C   UNL     1      47.375   4.394  15.385  0.00  0.00    +0.000 C 
BRANCH   7  16
ATOM      8  C   UNL     1      44.570   6.828  11.591  0.00  0.00    +0.000 C 
ATOM      9  C   UNL     1      44.288   5.377  11.731  0.00  0.00    +0.000 A 
ATOM     10  C   UNL     1      43.219   4.662  11.219  0.00  0.00    +0.000 A 
ATOM     11  C   UNL     1      43.359   3.322  11.629  0.00  0.00    +0.000 A 
ATOM     12  C   UNL     1      44.482   3.258  12.423  0.00  0.00    +0.000 A 
ATOM     13  N   UNL     1      45.066   4.518  12.504  0.00  0.00    +0.000 N 
ATOM     14  C   UNL     1      46.243   4.843  13.223  0.00  0.00    +0.000 C 
ATOM     15  O   UNL     1      47.054   5.634  12.767  0.00  0.00    +0.000 OA
ATOM     16  N   UNL     1      46.276   4.216  14.450  0.00  0.00    +0.000 N 
ATOM     17  H   UNL     1      45.433   3.768  14.788  0.00  0.00    +0.000 HD
ENDBRANCH   7  16
ENDBRANCH   1   7
BRANCH   4  18
ATOM     18  C   UNL     1      50.937   5.083  18.589  0.00  0.00    +0.000 C 
BRANCH  18  19
ATOM     19  N   UNL     1      51.053   6.237  17.730  0.00  0.00    +0.000 N 
ATOM     20  C   UNL     1      52.089   6.369  16.839  0.00  0.00    +0.000 C 
ATOM     21  O   UNL     1      53.012   5.565  16.783  0.00  0.00    +0.000 OA
ATOM     22  H   UNL     1      50.239   6.839  17.630  0.00  0.00    +0.000 HD
BRANCH  20  23
ATOM     23  C   UNL     1      52.043   7.539  15.953  0.00  0.00    +0.000 A 
ATOM     24  C   UNL     1      53.057   8.488  16.008  0.00  0.00    +0.000 A 
ATOM     25  S   UNL     1      52.895   9.730  14.850  0.00  0.00    +0.000 S 
ATOM     26  C   UNL     1      51.500   9.008  14.200  0.00  0.00    +0.000 A 
ATOM     27  N   UNL     1      50.902   9.517  13.086  0.00  0.00    +0.000 NA
ATOM     28  C   UNL     1      49.864   8.859  12.691  0.00  0.00    +0.000 A 
ATOM     29  N   UNL     1      49.337   7.768  13.333  0.00  0.00    +0.000 N 
ATOM     30  C   UNL     1      49.865   7.264  14.500  0.00  0.00    +0.000 A 
ATOM     31  O   UNL     1      49.296   6.380  15.127  0.00  0.00    +0.000 OA
ATOM     32  C   UNL     1      51.098   7.902  14.922  0.00  0.00    +0.000 A 
ATOM     33  H   UNL     1      48.482   7.340  13.008  0.00  0.00    +0.000 HD
ENDBRANCH  20  23
ENDBRANCH  18  19
ENDBRANCH   4  18
TORSDOF 5
ENDMDL
