MODEL 1
REMARK VINA RESULT:    -8.551      0.000      0.000
REMARK INTER + INTRA:         -12.894
REMARK INTER:                 -12.301
REMARK INTRA:                  -0.594
REMARK UNBOUND:                -0.594
REMARK  Name = 
REMARK  8 active torsions:
REMARK  status: ('A' for Active; 'I' for Inactive)
REMARK    1  A    between atoms: N_1  and  C_2
REMARK    2  A    between atoms: C_2  and  C_3
REMARK    3  A    between atoms: C_3  and  N_4
REMARK    4  A    between atoms: C_3  and  C_17
REMARK    5  A    between atoms: C_5  and  C_7
REMARK    6  A    between atoms: C_20  and  O_21
REMARK    7  A    between atoms: O_21  and  C_22
REMARK    8  A    between atoms: C_22  and  C_23
REMARK                            x       y       z     vdW  Elec       q    Type
REMARK                         _______ _______ _______ _____ _____    ______ ____
ROOT
ATOM      1  C   UNL     1      46.563   7.701  12.743  0.00  0.00    +0.000 C 
ENDROOT
BRANCH   1   2
ATOM      2  C   UNL     1      45.996   6.430  12.113  0.00  0.00    +0.000 A 
ATOM      3  C   UNL     1      46.014   6.236  10.726  0.00  0.00    +0.000 A 
ATOM      4  C   UNL     1      45.497   5.060  10.169  0.00  0.00    +0.000 A 
ATOM      5  C   UNL     1      44.972   4.061  10.990  0.00  0.00    +0.000 A 
ATOM      6  C   UNL     1      44.918   4.263  12.369  0.00  0.00    +0.000 A 
ATOM      7  C   UNL     1      45.444   5.426  12.926  0.00  0.00    +0.000 A 
BRANCH   5   8
ATOM      8  O   UNL     1      44.545   2.924  10.355  0.00  0.00    +0.000 OA
BRANCH   8   9
ATOM      9  C   UNL     1      44.375   3.063   8.938  0.00  0.00    +0.000 C 
BRANCH   9  10
ATOM     10  C   UNL     1      45.549   2.504   8.172  0.00  0.00    +0.000 A 
ATOM     11  C   UNL     1      46.243   3.272   7.242  0.00  0.00    +0.000 A 
ATOM     12  C   UNL     1      47.305   2.693   6.554  0.00  0.00    +0.000 A 
ATOM     13  C   UNL     1      47.638   1.366   6.800  0.00  0.00    +0.000 A 
ATOM     14  C   UNL     1      46.885   0.664   7.725  0.00  0.00    +0.000 A 
ATOM     15  N   UNL     1      45.851   1.199   8.407  0.00  0.00    +0.000 NA
ENDBRANCH   9  10
ENDBRANCH   8   9
ENDBRANCH   5   8
ENDBRANCH   1   2
BRANCH   1  16
ATOM     16  N   UNL     1      47.065   7.355  14.067  0.00  0.00    +0.000 N 
ATOM     17  C   UNL     1      48.233   6.673  14.282  0.00  0.00    +0.000 C 
ATOM     18  O   UNL     1      49.024   6.401  13.385  0.00  0.00    +0.000 OA
ATOM     19  H   UNL     1      46.356   7.309  14.793  0.00  0.00    +0.000 HD
BRANCH  17  20
ATOM     20  C   UNL     1      48.522   6.339  15.680  0.00  0.00    +0.000 A 
ATOM     21  C   UNL     1      49.148   7.262  16.505  0.00  0.00    +0.000 A 
ATOM     22  S   UNL     1      49.383   6.701  18.099  0.00  0.00    +0.000 S 
ATOM     23  C   UNL     1      48.701   5.186  17.725  0.00  0.00    +0.000 A 
ATOM     24  N   UNL     1      48.623   4.200  18.658  0.00  0.00    +0.000 NA
ATOM     25  C   UNL     1      48.113   3.095  18.223  0.00  0.00    +0.000 A 
ATOM     26  N   UNL     1      47.663   2.887  16.944  0.00  0.00    +0.000 N 
ATOM     27  C   UNL     1      47.679   3.867  15.983  0.00  0.00    +0.000 A 
ATOM     28  O   UNL     1      47.193   3.684  14.873  0.00  0.00    +0.000 OA
ATOM     29  C   UNL     1      48.271   5.121  16.412  0.00  0.00    +0.000 A 
ATOM     30  H   UNL     1      47.254   2.008  16.673  0.00  0.00    +0.000 HD
ENDBRANCH  17  20
ENDBRANCH   1  16
BRANCH   1  31
ATOM     31  C   UNL     1      45.481   8.825  12.787  0.00  0.00    +0.000 C 
BRANCH  31  32
ATOM     32  N   UNL     1      45.981  10.162  12.433  0.00  0.00    +0.000 NA
ATOM     33  H   UNL     1      45.312  10.605  11.806  0.00  0.00    +0.000 HD
ATOM     34  H   UNL     1      46.848  10.073  11.904  0.00  0.00    +0.000 HD
ENDBRANCH  31  32
ENDBRANCH   1  31
TORSDOF 8
ENDMDL
MODEL 2
REMARK VINA RESULT:    -8.531      2.004      2.681
REMARK INTER + INTRA:         -12.865
REMARK INTER:                 -11.645
REMARK INTRA:                  -1.221
REMARK UNBOUND:                -0.594
REMARK  Name = 
REMARK  8 active torsions:
REMARK  status: ('A' for Active; 'I' for Inactive)
REMARK    1  A    between atoms: N_1  and  C_2
REMARK    2  A    between atoms: C_2  and  C_3
REMARK    3  A    between atoms: C_3  and  N_4
REMARK    4  A    between atoms: C_3  and  C_17
REMARK    5  A    between atoms: C_5  and  C_7
REMARK    6  A    between atoms: C_20  and  O_21
REMARK    7  A    between atoms: O_21  and  C_22
REMARK    8  A    between atoms: C_22  and  C_23
REMARK                            x       y       z     vdW  Elec       q    Type
REMARK                         _______ _______ _______ _____ _____    ______ ____
ROOT
ATOM      1  C   UNL     1      47.939   6.782  13.661  0.00  0.00    +0.000 C 
ENDROOT
BRANCH   1   2
ATOM      2  C   UNL     1      46.920   5.953  12.883  0.00  0.00    +0.000 A 
ATOM      3  C   UNL     1      46.389   6.408  11.669  0.00  0.00    +0.000 A 
ATOM      4  C   UNL     1      45.461   5.628  10.967  0.00  0.00    +0.000 A 
ATOM      5  C   UNL     1      45.068   4.383  11.460  0.00  0.00    +0.000 A 
ATOM      6  C   UNL     1      45.565   3.941  12.686  0.00  0.00    +0.000 A 
ATOM      7  C   UNL     1      46.498   4.708  13.379  0.00  0.00    +0.000 A 
BRANCH   5   8
ATOM      8  O   UNL     1      44.203   3.671  10.671  0.00  0.00    +0.000 OA
BRANCH   8   9
ATOM      9  C   UNL     1      44.207   4.054   9.290  0.00  0.00    +0.000 C 
BRANCH   9  10
ATOM     10  C   UNL     1      45.239   3.289   8.496  0.00  0.00    +0.000 A 
ATOM     11  C   UNL     1      45.471   1.935   8.719  0.00  0.00    +0.000 A 
ATOM     12  C   UNL     1      46.449   1.291   7.968  0.00  0.00    +0.000 A 
ATOM     13  C   UNL     1      47.175   2.012   7.027  0.00  0.00    +0.000 A 
ATOM     14  C   UNL     1      46.898   3.359   6.880  0.00  0.00    +0.000 A 
ATOM     15  N   UNL     1      45.957   4.010   7.594  0.00  0.00    +0.000 NA
ENDBRANCH   9  10
ENDBRANCH   8   9
ENDBRANCH   5   8
ENDBRANCH   1   2
BRANCH   1  16
ATOM     16  N   UNL     1      47.902   6.344  15.052  0.00  0.00    +0.000 N 
ATOM     17  C   UNL     1      49.014   6.237  15.844  0.00  0.00    +0.000 C 
ATOM     18  O   UNL     1      50.125   6.620  15.493  0.00  0.00    +0.000 OA
ATOM     19  H   UNL     1      47.096   5.778  15.298  0.00  0.00    +0.000 HD
BRANCH  17  20
ATOM     20  C   UNL     1      48.784   5.690  17.185  0.00  0.00    +0.000 A 
ATOM     21  C   UNL     1      48.979   4.339  17.432  0.00  0.00    +0.000 A 
ATOM     22  S   UNL     1      48.680   3.895  19.052  0.00  0.00    +0.000 S 
ATOM     23  C   UNL     1      48.231   5.484  19.464  0.00  0.00    +0.000 A 
ATOM     24  N   UNL     1      47.821   5.796  20.722  0.00  0.00    +0.000 NA
ATOM     25  C   UNL     1      47.479   7.033  20.879  0.00  0.00    +0.000 A 
ATOM     26  N   UNL     1      47.521   7.990  19.898  0.00  0.00    +0.000 N 
ATOM     27  C   UNL     1      47.971   7.732  18.628  0.00  0.00    +0.000 A 
ATOM     28  O   UNL     1      48.079   8.622  17.792  0.00  0.00    +0.000 OA
ATOM     29  C   UNL     1      48.339   6.348  18.389  0.00  0.00    +0.000 A 
ATOM     30  H   UNL     1      47.262   8.944  20.091  0.00  0.00    +0.000 HD
ENDBRANCH  17  20
ENDBRANCH   1  16
BRANCH   1  31
ATOM     31  C   UNL     1      47.644   8.307  13.506  0.00  0.00    +0.000 C 
BRANCH  31  32
ATOM     32  N   UNL     1      47.154   8.957  14.731  0.00  0.00    +0.000 NA
ATOM     33  H   UNL     1      47.882   8.905  15.442  0.00  0.00    +0.000 HD
ATOM     34  H   UNL     1      46.360   8.435  15.101  0.00  0.00    +0.000 HD
ENDBRANCH  31  32
ENDBRANCH   1  31
TORSDOF 8
ENDMDL
MODEL 3
REMARK VINA RESULT:    -8.051      2.499      4.638
REMARK INTER + INTRA:         -12.175
REMARK INTER:                 -10.718
REMARK INTRA:                  -1.457
REMARK UNBOUND:                -0.594
REMARK  Name = 
REMARK  8 active torsions:
REMARK  status: ('A' for Active; 'I' for Inactive)
REMARK    1  A    between atoms: N_1  and  C_2
REMARK    2  A    between atoms: C_2  and  C_3
REMARK    3  A    between atoms: C_3  and  N_4
REMARK    4  A    between atoms: C_3  and  C_17
REMARK    5  A    between atoms: C_5  and  C_7
REMARK    6  A    between atoms: C_20  and  O_21
REMARK    7  A    between atoms: O_21  and  C_22
REMARK    8  A    between atoms: C_22  and  C_23
REMARK                            x       y       z     vdW  Elec       q    Type
REMARK                         _______ _______ _______ _____ _____    ______ ____
ROOT
ATOM      1  C   UNL     1      46.911   5.594  14.199  0.00  0.00    +0.000 C 
ENDROOT
BRANCH   1   2
ATOM      2  C   UNL     1      46.200   5.090  12.945  0.00  0.00    +0.000 A 
ATOM      3  C   UNL     1      45.656   3.800  12.887  0.00  0.00    +0.000 A 
ATOM      4  C   UNL     1      45.000   3.361  11.730  0.00  0.00    +0.000 A 
ATOM      5  C   UNL     1      44.866   4.207  10.629  0.00  0.00    +0.000 A 
ATOM      6  C   UNL     1      45.436   5.479  10.667  0.00  0.00    +0.000 A 
ATOM      7  C   UNL     1      46.077   5.923  11.821  0.00  0.00    +0.000 A 
BRANCH   5   8
ATOM      8  O   UNL     1      44.157   3.706   9.569  0.00  0.00    +0.000 OA
BRANCH   8   9
ATOM      9  C   UNL     1      44.495   2.359   9.211  0.00  0.00    +0.000 C 
BRANCH   9  10
ATOM     10  C   UNL     1      45.602   2.310   8.186  0.00  0.00    +0.000 A 
ATOM     11  C   UNL     1      45.801   3.348   7.281  0.00  0.00    +0.000 A 
ATOM     12  C   UNL     1      46.827   3.235   6.348  0.00  0.00    +0.000 A 
ATOM     13  C   UNL     1      47.615   2.090   6.332  0.00  0.00    +0.000 A 
ATOM     14  C   UNL     1      47.339   1.094   7.252  0.00  0.00    +0.000 A 
ATOM     15  N   UNL     1      46.353   1.176   8.168  0.00  0.00    +0.000 NA
ENDBRANCH   9  10
ENDBRANCH   8   9
ENDBRANCH   5   8
ENDBRANCH   1   2
BRANCH   1  16
ATOM     16  N   UNL     1      48.079   6.357  13.772  0.00  0.00    +0.000 N 
ATOM     17  C   UNL     1      48.691   7.306  14.548  0.00  0.00    +0.000 C 
ATOM     18  O   UNL     1      48.388   7.509  15.718  0.00  0.00    +0.000 OA
ATOM     19  H   UNL     1      48.196   6.428  12.766  0.00  0.00    +0.000 HD
BRANCH  17  20
ATOM     20  C   UNL     1      49.793   8.030  13.908  0.00  0.00    +0.000 A 
ATOM     21  C   UNL     1      51.089   7.893  14.384  0.00  0.00    +0.000 A 
ATOM     22  S   UNL     1      52.236   8.797  13.501  0.00  0.00    +0.000 S 
ATOM     23  C   UNL     1      51.030   9.440  12.486  0.00  0.00    +0.000 A 
ATOM     24  N   UNL     1      51.337  10.333  11.507  0.00  0.00    +0.000 NA
ATOM     25  C   UNL     1      50.317  10.761  10.838  0.00  0.00    +0.000 A 
ATOM     26  N   UNL     1      49.020  10.370  11.049  0.00  0.00    +0.000 N 
ATOM     27  C   UNL     1      48.669   9.439  11.994  0.00  0.00    +0.000 A 
ATOM     28  O   UNL     1      47.514   9.043  12.107  0.00  0.00    +0.000 OA
ATOM     29  C   UNL     1      49.776   8.948  12.795  0.00  0.00    +0.000 A 
ATOM     30  H   UNL     1      48.271  10.725  10.477  0.00  0.00    +0.000 HD
ENDBRANCH  17  20
ENDBRANCH   1  16
BRANCH   1  31
ATOM     31  C   UNL     1      47.284   4.404  15.137  0.00  0.00    +0.000 C 
BRANCH  31  32
ATOM     32  N   UNL     1      47.203   4.716  16.573  0.00  0.00    +0.000 NA
ATOM     33  H   UNL     1      47.790   5.526  16.764  0.00  0.00    +0.000 HD
ATOM     34  H   UNL     1      47.599   3.946  17.112  0.00  0.00    +0.000 HD
ENDBRANCH  31  32
ENDBRANCH   1  31
TORSDOF 8
ENDMDL
MODEL 4
REMARK VINA RESULT:    -8.022      2.859      4.331
REMARK INTER + INTRA:         -12.133
REMARK INTER:                 -10.730
REMARK INTRA:                  -1.404
REMARK UNBOUND:                -0.594
REMARK  Name = 
REMARK  8 active torsions:
REMARK  status: ('A' for Active; 'I' for Inactive)
REMARK    1  A    between atoms: N_1  and  C_2
REMARK    2  A    between atoms: C_2  and  C_3
REMARK    3  A    between atoms: C_3  and  N_4
REMARK    4  A    between atoms: C_3  and  C_17
REMARK    5  A    between atoms: C_5  and  C_7
REMARK    6  A    between atoms: C_20  and  O_21
REMARK    7  A    between atoms: O_21  and  C_22
REMARK    8  A    between atoms: C_22  and  C_23
REMARK                            x       y       z     vdW  Elec       q    Type
REMARK                         _______ _______ _______ _____ _____    ______ ____
ROOT
ATOM      1  C   UNL     1      46.776   5.789  13.993  0.00  0.00    +0.000 C 
ENDROOT
BRANCH   1   2
ATOM      2  C   UNL     1      46.088   5.173  12.776  0.00  0.00    +0.000 A 
ATOM      3  C   UNL     1      45.579   3.868  12.813  0.00  0.00    +0.000 A 
ATOM      4  C   UNL     1      44.945   3.325  11.689  0.00  0.00    +0.000 A 
ATOM      5  C   UNL     1      44.798   4.081  10.526  0.00  0.00    +0.000 A 
ATOM      6  C   UNL     1      45.334   5.367  10.471  0.00  0.00    +0.000 A 
ATOM      7  C   UNL     1      45.954   5.915  11.591  0.00  0.00    +0.000 A 
BRANCH   5   8
ATOM      8  O   UNL     1      44.111   3.482   9.503  0.00  0.00    +0.000 OA
BRANCH   8   9
ATOM      9  C   UNL     1      44.567   2.163   9.173  0.00  0.00    +0.000 C 
BRANCH   9  10
ATOM     10  C   UNL     1      45.671   2.189   8.144  0.00  0.00    +0.000 A 
ATOM     11  C   UNL     1      45.809   3.250   7.253  0.00  0.00    +0.000 A 
ATOM     12  C   UNL     1      46.836   3.206   6.315  0.00  0.00    +0.000 A 
ATOM     13  C   UNL     1      47.686   2.107   6.281  0.00  0.00    +0.000 A 
ATOM     14  C   UNL     1      47.469   1.085   7.187  0.00  0.00    +0.000 A 
ATOM     15  N   UNL     1      46.483   1.099   8.107  0.00  0.00    +0.000 NA
ENDBRANCH   9  10
ENDBRANCH   8   9
ENDBRANCH   5   8
ENDBRANCH   1   2
BRANCH   1  16
ATOM     16  N   UNL     1      47.881   6.610  13.511  0.00  0.00    +0.000 N 
ATOM     17  C   UNL     1      47.854   7.980  13.484  0.00  0.00    +0.000 C 
ATOM     18  O   UNL     1      46.948   8.640  13.980  0.00  0.00    +0.000 OA
ATOM     19  H   UNL     1      48.509   6.142  12.865  0.00  0.00    +0.000 HD
BRANCH  17  20
ATOM     20  C   UNL     1      49.024   8.623  12.879  0.00  0.00    +0.000 A 
ATOM     21  C   UNL     1      48.871   9.466  11.787  0.00  0.00    +0.000 A 
ATOM     22  S   UNL     1      50.341  10.134  11.234  0.00  0.00    +0.000 S 
ATOM     23  C   UNL     1      51.234   9.278  12.403  0.00  0.00    +0.000 A 
ATOM     24  N   UNL     1      52.589   9.374  12.463  0.00  0.00    +0.000 NA
ATOM     25  C   UNL     1      53.135   8.643  13.378  0.00  0.00    +0.000 A 
ATOM     26  N   UNL     1      52.451   7.833  14.248  0.00  0.00    +0.000 N 
ATOM     27  C   UNL     1      51.082   7.739  14.255  0.00  0.00    +0.000 A 
ATOM     28  O   UNL     1      50.489   7.074  15.096  0.00  0.00    +0.000 OA
ATOM     29  C   UNL     1      50.420   8.519  13.224  0.00  0.00    +0.000 A 
ATOM     30  H   UNL     1      52.934   7.304  14.955  0.00  0.00    +0.000 HD
ENDBRANCH  17  20
ENDBRANCH   1  16
BRANCH   1  31
ATOM     31  C   UNL     1      47.244   4.678  14.984  0.00  0.00    +0.000 C 
BRANCH  31  32
ATOM     32  N   UNL     1      48.330   5.089  15.887  0.00  0.00    +0.000 NA
ATOM     33  H   UNL     1      48.473   6.093  15.788  0.00  0.00    +0.000 HD
ATOM     34  H   UNL     1      49.202   4.649  15.594  0.00  0.00    +0.000 HD
ENDBRANCH  31  32
ENDBRANCH   1  31
TORSDOF 8
ENDMDL
MODEL 5
REMARK VINA RESULT:    -7.866      1.691      2.037
REMARK INTER + INTRA:         -11.909
REMARK INTER:                 -10.764
REMARK INTRA:                  -1.145
REMARK UNBOUND:                -0.594
REMARK  Name = 
REMARK  8 active torsions:
REMARK  status: ('A' for Active; 'I' for Inactive)
REMARK    1  A    between atoms: N_1  and  C_2
REMARK    2  A    between atoms: C_2  and  C_3
REMARK    3  A    between atoms: C_3  and  N_4
REMARK    4  A    between atoms: C_3  and  C_17
REMARK    5  A    between atoms: C_5  and  C_7
REMARK    6  A    between atoms: C_20  and  O_21
REMARK    7  A    between atoms: O_21  and  C_22
REMARK    8  A    between atoms: C_22  and  C_23
REMARK                            x       y       z     vdW  Elec       q    Type
REMARK                         _______ _______ _______ _____ _____    ______ ____
ROOT
ATOM      1  C   UNL     1      48.239   7.319  13.578  0.00  0.00    +0.000 C 
ENDROOT
BRANCH   1   2
ATOM      2  C   UNL     1      47.105   6.442  13.053  0.00  0.00    +0.000 A 
ATOM      3  C   UNL     1      46.154   6.945  12.156  0.00  0.00    +0.000 A 
ATOM      4  C   UNL     1      45.126   6.122  11.680  0.00  0.00    +0.000 A 
ATOM      5  C   UNL     1      45.047   4.787  12.080  0.00  0.00    +0.000 A 
ATOM      6  C   UNL     1      45.970   4.290  13.000  0.00  0.00    +0.000 A 
ATOM      7  C   UNL     1      47.000   5.103  13.465  0.00  0.00    +0.000 A 
BRANCH   5   8
ATOM      8  O   UNL     1      44.042   4.048  11.512  0.00  0.00    +0.000 OA
BRANCH   8   9
ATOM      9  C   UNL     1      43.790   4.350  10.133  0.00  0.00    +0.000 C 
BRANCH   9  10
ATOM     10  C   UNL     1      44.763   3.649   9.216  0.00  0.00    +0.000 A 
ATOM     11  C   UNL     1      45.497   4.349   8.263  0.00  0.00    +0.000 A 
ATOM     12  C   UNL     1      46.364   3.644   7.435  0.00  0.00    +0.000 A 
ATOM     13  C   UNL     1      46.467   2.263   7.567  0.00  0.00    +0.000 A 
ATOM     14  C   UNL     1      45.687   1.640   8.525  0.00  0.00    +0.000 A 
ATOM     15  N   UNL     1      44.839   2.297   9.342  0.00  0.00    +0.000 NA
ENDBRANCH   9  10
ENDBRANCH   8   9
ENDBRANCH   5   8
ENDBRANCH   1   2
BRANCH   1  16
ATOM     16  N   UNL     1      48.155   7.331  15.034  0.00  0.00    +0.000 N 
ATOM     17  C   UNL     1      49.191   6.977  15.857  0.00  0.00    +0.000 C 
ATOM     18  O   UNL     1      50.322   6.740  15.446  0.00  0.00    +0.000 OA
ATOM     19  H   UNL     1      47.214   7.252  15.407  0.00  0.00    +0.000 HD
BRANCH  17  20
ATOM     20  C   UNL     1      48.884   6.964  17.291  0.00  0.00    +0.000 A 
ATOM     21  C   UNL     1      48.511   8.135  17.937  0.00  0.00    +0.000 A 
ATOM     22  S   UNL     1      48.175   7.918  19.595  0.00  0.00    +0.000 S 
ATOM     23  C   UNL     1      48.566   6.263  19.516  0.00  0.00    +0.000 A 
ATOM     24  N   UNL     1      48.521   5.474  20.622  0.00  0.00    +0.000 NA
ATOM     25  C   UNL     1      48.876   4.249  20.418  0.00  0.00    +0.000 A 
ATOM     26  N   UNL     1      49.261   3.734  19.207  0.00  0.00    +0.000 N 
ATOM     27  C   UNL     1      49.278   4.480  18.055  0.00  0.00    +0.000 A 
ATOM     28  O   UNL     1      49.545   3.977  16.969  0.00  0.00    +0.000 OA
ATOM     29  C   UNL     1      48.916   5.875  18.235  0.00  0.00    +0.000 A 
ATOM     30  H   UNL     1      49.505   2.762  19.109  0.00  0.00    +0.000 HD
ENDBRANCH  17  20
ENDBRANCH   1  16
BRANCH   1  31
ATOM     31  C   UNL     1      48.160   8.751  12.963  0.00  0.00    +0.000 C 
BRANCH  31  32
ATOM     32  N   UNL     1      47.904   9.819  13.942  0.00  0.00    +0.000 NA
ATOM     33  H   UNL     1      46.900   9.978  13.994  0.00  0.00    +0.000 HD
ATOM     34  H   UNL     1      48.312  10.692  13.609  0.00  0.00    +0.000 HD
ENDBRANCH  31  32
ENDBRANCH   1  31
TORSDOF 8
ENDMDL
MODEL 6
REMARK VINA RESULT:    -7.282      3.391      7.823
REMARK INTER + INTRA:         -11.068
REMARK INTER:                  -9.799
REMARK INTRA:                  -1.269
REMARK UNBOUND:                -0.594
REMARK  Name = 
REMARK  8 active torsions:
REMARK  status: ('A' for Active; 'I' for Inactive)
REMARK    1  A    between atoms: N_1  and  C_2
REMARK    2  A    between atoms: C_2  and  C_3
REMARK    3  A    between atoms: C_3  and  N_4
REMARK    4  A    between atoms: C_3  and  C_17
REMARK    5  A    between atoms: C_5  and  C_7
REMARK    6  A    between atoms: C_20  and  O_21
REMARK    7  A    between atoms: O_21  and  C_22
REMARK    8  A    between atoms: C_22  and  C_23
REMARK                            x       y       z     vdW  Elec       q    Type
REMARK                         _______ _______ _______ _____ _____    ______ ____
ROOT
ATOM      1  C   UNL     1      47.748   7.177  13.456  0.00  0.00    +0.000 C 
ENDROOT
BRANCH   1   2
ATOM      2  C   UNL     1      48.126   6.384  14.705  0.00  0.00    +0.000 A 
ATOM      3  C   UNL     1      47.519   5.156  14.997  0.00  0.00    +0.000 A 
ATOM      4  C   UNL     1      47.886   4.441  16.144  0.00  0.00    +0.000 A 
ATOM      5  C   UNL     1      48.871   4.936  17.000  0.00  0.00    +0.000 A 
ATOM      6  C   UNL     1      49.454   6.174  16.734  0.00  0.00    +0.000 A 
ATOM      7  C   UNL     1      49.100   6.881  15.587  0.00  0.00    +0.000 A 
BRANCH   5   8
ATOM      8  O   UNL     1      49.202   4.135  18.061  0.00  0.00    +0.000 OA
BRANCH   8   9
ATOM      9  C   UNL     1      49.444   2.764  17.718  0.00  0.00    +0.000 C 
BRANCH   9  10
ATOM     10  C   UNL     1      50.915   2.425  17.748  0.00  0.00    +0.000 A 
ATOM     11  C   UNL     1      51.872   3.377  18.086  0.00  0.00    +0.000 A 
ATOM     12  C   UNL     1      53.214   3.009  18.078  0.00  0.00    +0.000 A 
ATOM     13  C   UNL     1      53.566   1.712  17.722  0.00  0.00    +0.000 A 
ATOM     14  C   UNL     1      52.555   0.832  17.379  0.00  0.00    +0.000 A 
ATOM     15  N   UNL     1      51.247   1.160  17.378  0.00  0.00    +0.000 NA
ENDBRANCH   9  10
ENDBRANCH   8   9
ENDBRANCH   5   8
ENDBRANCH   1   2
BRANCH   1  16
ATOM     16  N   UNL     1      47.146   6.250  12.505  0.00  0.00    +0.000 N 
ATOM     17  C   UNL     1      46.097   6.575  11.687  0.00  0.00    +0.000 C 
ATOM     18  O   UNL     1      45.652   7.714  11.591  0.00  0.00    +0.000 OA
ATOM     19  H   UNL     1      47.280   5.268  12.726  0.00  0.00    +0.000 HD
BRANCH  17  20
ATOM     20  C   UNL     1      45.571   5.480  10.867  0.00  0.00    +0.000 A 
ATOM     21  C   UNL     1      45.717   5.506   9.487  0.00  0.00    +0.000 A 
ATOM     22  S   UNL     1      45.058   4.138   8.708  0.00  0.00    +0.000 S 
ATOM     23  C   UNL     1      44.512   3.491  10.185  0.00  0.00    +0.000 A 
ATOM     24  N   UNL     1      43.821   2.320  10.228  0.00  0.00    +0.000 NA
ATOM     25  C   UNL     1      43.441   1.969  11.412  0.00  0.00    +0.000 A 
ATOM     26  N   UNL     1      43.698   2.674  12.560  0.00  0.00    +0.000 N 
ATOM     27  C   UNL     1      44.429   3.835  12.571  0.00  0.00    +0.000 A 
ATOM     28  O   UNL     1      44.718   4.401  13.619  0.00  0.00    +0.000 OA
ATOM     29  C   UNL     1      44.855   4.290  11.260  0.00  0.00    +0.000 A 
ATOM     30  H   UNL     1      43.393   2.334  13.457  0.00  0.00    +0.000 HD
ENDBRANCH  17  20
ENDBRANCH   1  16
BRANCH   1  31
ATOM     31  C   UNL     1      48.995   7.910  12.869  0.00  0.00    +0.000 C 
BRANCH  31  32
ATOM     32  N   UNL     1      49.927   7.034  12.143  0.00  0.00    +0.000 NA
ATOM     33  H   UNL     1      49.490   6.122  12.023  0.00  0.00    +0.000 HD
ATOM     34  H   UNL     1      50.760   6.877  12.710  0.00  0.00    +0.000 HD
ENDBRANCH  31  32
ENDBRANCH   1  31
TORSDOF 8
ENDMDL
MODEL 7
REMARK VINA RESULT:    -7.179      1.860      2.618
REMARK INTER + INTRA:         -10.921
REMARK INTER:                  -9.617
REMARK INTRA:                  -1.304
REMARK UNBOUND:                -0.594
REMARK  Name = 
REMARK  8 active torsions:
REMARK  status: ('A' for Active; 'I' for Inactive)
REMARK    1  A    between atoms: N_1  and  C_2
REMARK    2  A    between atoms: C_2  and  C_3
REMARK    3  A    between atoms: C_3  and  N_4
REMARK    4  A    between atoms: C_3  and  C_17
REMARK    5  A    between atoms: C_5  and  C_7
REMARK    6  A    between atoms: C_20  and  O_21
REMARK    7  A    between atoms: O_21  and  C_22
REMARK    8  A    between atoms: C_22  and  C_23
REMARK                            x       y       z     vdW  Elec       q    Type
REMARK                         _______ _______ _______ _____ _____    ______ ____
ROOT
ATOM      1  C   UNL     1      48.908   8.523  14.315  0.00  0.00    +0.000 C 
ENDROOT
BRANCH   1   2
ATOM      2  C   UNL     1      47.825   8.038  13.354  0.00  0.00    +0.000 A 
ATOM      3  C   UNL     1      48.099   7.071  12.378  0.00  0.00    +0.000 A 
ATOM      4  C   UNL     1      47.089   6.634  11.512  0.00  0.00    +0.000 A 
ATOM      5  C   UNL     1      45.795   7.145  11.621  0.00  0.00    +0.000 A 
ATOM      6  C   UNL     1      45.525   8.134  12.566  0.00  0.00    +0.000 A 
ATOM      7  C   UNL     1      46.523   8.561  13.437  0.00  0.00    +0.000 A 
BRANCH   5   8
ATOM      8  O   UNL     1      44.865   6.611  10.768  0.00  0.00    +0.000 OA
BRANCH   8   9
ATOM      9  C   UNL     1      44.492   5.260  11.068  0.00  0.00    +0.000 C 
BRANCH   9  10
ATOM     10  C   UNL     1      44.923   4.302   9.984  0.00  0.00    +0.000 A 
ATOM     11  C   UNL     1      45.579   4.747   8.840  0.00  0.00    +0.000 A 
ATOM     12  C   UNL     1      45.934   3.817   7.868  0.00  0.00    +0.000 A 
ATOM     13  C   UNL     1      45.616   2.476   8.053  0.00  0.00    +0.000 A 
ATOM     14  C   UNL     1      44.944   2.119   9.208  0.00  0.00    +0.000 A 
ATOM     15  N   UNL     1      44.587   2.997  10.168  0.00  0.00    +0.000 NA
ENDBRANCH   9  10
ENDBRANCH   8   9
ENDBRANCH   5   8
ENDBRANCH   1   2
BRANCH   1  16
ATOM     16  N   UNL     1      48.936   7.610  15.452  0.00  0.00    +0.000 N 
ATOM     17  C   UNL     1      50.060   6.946  15.866  0.00  0.00    +0.000 C 
ATOM     18  O   UNL     1      51.173   7.157  15.395  0.00  0.00    +0.000 OA
ATOM     19  H   UNL     1      48.037   7.203  15.693  0.00  0.00    +0.000 HD
BRANCH  17  20
ATOM     20  C   UNL     1      49.866   6.001  16.970  0.00  0.00    +0.000 A 
ATOM     21  C   UNL     1      50.675   6.066  18.096  0.00  0.00    +0.000 A 
ATOM     22  S   UNL     1      50.286   4.900  19.279  0.00  0.00    +0.000 S 
ATOM     23  C   UNL     1      49.058   4.238  18.303  0.00  0.00    +0.000 A 
ATOM     24  N   UNL     1      48.334   3.163  18.715  0.00  0.00    +0.000 NA
ATOM     25  C   UNL     1      47.460   2.749  17.858  0.00  0.00    +0.000 A 
ATOM     26  N   UNL     1      47.235   3.317  16.630  0.00  0.00    +0.000 N 
ATOM     27  C   UNL     1      47.908   4.429  16.191  0.00  0.00    +0.000 A 
ATOM     28  O   UNL     1      47.630   4.969  15.127  0.00  0.00    +0.000 OA
ATOM     29  C   UNL     1      48.925   4.917  17.106  0.00  0.00    +0.000 A 
ATOM     30  H   UNL     1      46.521   2.960  16.015  0.00  0.00    +0.000 HD
ENDBRANCH  17  20
ENDBRANCH   1  16
BRANCH   1  31
ATOM     31  C   UNL     1      48.647  10.001  14.741  0.00  0.00    +0.000 C 
BRANCH  31  32
ATOM     32  N   UNL     1      49.571  10.977  14.142  0.00  0.00    +0.000 NA
ATOM     33  H   UNL     1      49.554  11.828  14.702  0.00  0.00    +0.000 HD
ATOM     34  H   UNL     1      49.236  11.241  13.216  0.00  0.00    +0.000 HD
ENDBRANCH  31  32
ENDBRANCH   1  31
TORSDOF 8
ENDMDL
MODEL 8
REMARK VINA RESULT:    -6.497      2.574      3.609
REMARK INTER + INTRA:          -9.940
REMARK INTER:                  -8.561
REMARK INTRA:                  -1.379
REMARK UNBOUND:                -0.594
REMARK  Name = 
REMARK  8 active torsions:
REMARK  status: ('A' for Active; 'I' for Inactive)
REMARK    1  A    between atoms: N_1  and  C_2
REMARK    2  A    between atoms: C_2  and  C_3
REMARK    3  A    between atoms: C_3  and  N_4
REMARK    4  A    between atoms: C_3  and  C_17
REMARK    5  A    between atoms: C_5  and  C_7
REMARK    6  A    between atoms: C_20  and  O_21
REMARK    7  A    between atoms: O_21  and  C_22
REMARK    8  A    between atoms: C_22  and  C_23
REMARK                            x       y       z     vdW  Elec       q    Type
REMARK                         _______ _______ _______ _____ _____    ______ ____
ROOT
ATOM      1  C   UNL     1      48.962   8.578  14.495  0.00  0.00    +0.000 C 
ENDROOT
BRANCH   1   2
ATOM      2  C   UNL     1      47.899   8.097  13.509  0.00  0.00    +0.000 A 
ATOM      3  C   UNL     1      48.196   7.139  12.531  0.00  0.00    +0.000 A 
ATOM      4  C   UNL     1      47.205   6.706  11.642  0.00  0.00    +0.000 A 
ATOM      5  C   UNL     1      45.907   7.210  11.730  0.00  0.00    +0.000 A 
ATOM      6  C   UNL     1      45.614   8.189  12.678  0.00  0.00    +0.000 A 
ATOM      7  C   UNL     1      46.594   8.612  13.572  0.00  0.00    +0.000 A 
BRANCH   5   8
ATOM      8  O   UNL     1      44.995   6.679  10.855  0.00  0.00    +0.000 OA
BRANCH   8   9
ATOM      9  C   UNL     1      44.573   5.346  11.174  0.00  0.00    +0.000 C 
BRANCH   9  10
ATOM     10  C   UNL     1      44.884   4.375  10.062  0.00  0.00    +0.000 A 
ATOM     11  C   UNL     1      45.581   4.772   8.924  0.00  0.00    +0.000 A 
ATOM     12  C   UNL     1      45.820   3.834   7.925  0.00  0.00    +0.000 A 
ATOM     13  C   UNL     1      45.352   2.534   8.078  0.00  0.00    +0.000 A 
ATOM     14  C   UNL     1      44.650   2.225   9.230  0.00  0.00    +0.000 A 
ATOM     15  N   UNL     1      44.403   3.112  10.215  0.00  0.00    +0.000 NA
ENDBRANCH   9  10
ENDBRANCH   8   9
ENDBRANCH   5   8
ENDBRANCH   1   2
BRANCH   1  16
ATOM     16  N   UNL     1      48.731   7.899  15.765  0.00  0.00    +0.000 N 
ATOM     17  C   UNL     1      49.547   6.916  16.260  0.00  0.00    +0.000 C 
ATOM     18  O   UNL     1      50.613   6.607  15.739  0.00  0.00    +0.000 OA
ATOM     19  H   UNL     1      47.768   7.913  16.086  0.00  0.00    +0.000 HD
BRANCH  17  20
ATOM     20  C   UNL     1      49.097   6.289  17.507  0.00  0.00    +0.000 A 
ATOM     21  C   UNL     1      49.121   4.909  17.644  0.00  0.00    +0.000 A 
ATOM     22  S   UNL     1      48.579   4.369  19.169  0.00  0.00    +0.000 S 
ATOM     23  C   UNL     1      48.247   5.959  19.677  0.00  0.00    +0.000 A 
ATOM     24  N   UNL     1      47.717   6.211  20.904  0.00  0.00    +0.000 NA
ATOM     25  C   UNL     1      47.487   7.460  21.139  0.00  0.00    +0.000 A 
ATOM     26  N   UNL     1      47.747   8.485  20.265  0.00  0.00    +0.000 N 
ATOM     27  C   UNL     1      48.323   8.284  19.036  0.00  0.00    +0.000 A 
ATOM     28  O   UNL     1      48.625   9.222  18.307  0.00  0.00    +0.000 OA
ATOM     29  C   UNL     1      48.575   6.891  18.709  0.00  0.00    +0.000 A 
ATOM     30  H   UNL     1      47.566   9.442  20.517  0.00  0.00    +0.000 HD
ENDBRANCH  17  20
ENDBRANCH   1  16
BRANCH   1  31
ATOM     31  C   UNL     1      48.924  10.132  14.632  0.00  0.00    +0.000 C 
BRANCH  31  32
ATOM     32  N   UNL     1      49.696  10.659  15.768  0.00  0.00    +0.000 NA
ATOM     33  H   UNL     1      49.327  10.255  16.628  0.00  0.00    +0.000 HD
ATOM     34  H   UNL     1      49.549  11.666  15.843  0.00  0.00    +0.000 HD
ENDBRANCH  31  32
ENDBRANCH   1  31
TORSDOF 8
ENDMDL
MODEL 9
REMARK VINA RESULT:    -6.350      3.690      8.471
REMARK INTER + INTRA:          -9.728
REMARK INTER:                  -8.533
REMARK INTRA:                  -1.195
REMARK UNBOUND:                -0.594
REMARK  Name = 
REMARK  8 active torsions:
REMARK  status: ('A' for Active; 'I' for Inactive)
REMARK    1  A    between atoms: N_1  and  C_2
REMARK    2  A    between atoms: C_2  and  C_3
REMARK    3  A    between atoms: C_3  and  N_4
REMARK    4  A    between atoms: C_3  and  C_17
REMARK    5  A    between atoms: C_5  and  C_7
REMARK    6  A    between atoms: C_20  and  O_21
REMARK    7  A    between atoms: O_21  and  C_22
REMARK    8  A    between atoms: C_22  and  C_23
REMARK                            x       y       z     vdW  Elec       q    Type
REMARK                         _______ _______ _______ _____ _____    ______ ____
ROOT
ATOM      1  C   UNL     1      47.956   4.426  16.558  0.00  0.00    +0.000 C 
ENDROOT
BRANCH   1   2
ATOM      2  C   UNL     1      49.117   5.314  17.001  0.00  0.00    +0.000 A 
ATOM      3  C   UNL     1      50.424   4.814  17.083  0.00  0.00    +0.000 A 
ATOM      4  C   UNL     1      51.475   5.648  17.483  0.00  0.00    +0.000 A 
ATOM      5  C   UNL     1      51.237   6.988  17.790  0.00  0.00    +0.000 A 
ATOM      6  C   UNL     1      49.934   7.482  17.745  0.00  0.00    +0.000 A 
ATOM      7  C   UNL     1      48.889   6.659  17.335  0.00  0.00    +0.000 A 
BRANCH   5   8
ATOM      8  O   UNL     1      52.340   7.735  18.113  0.00  0.00    +0.000 OA
BRANCH   8   9
ATOM      9  C   UNL     1      53.311   7.844  17.064  0.00  0.00    +0.000 C 
BRANCH   9  10
ATOM     10  C   UNL     1      52.795   8.654  15.899  0.00  0.00    +0.000 A 
ATOM     11  C   UNL     1      52.409   9.983  16.053  0.00  0.00    +0.000 A 
ATOM     12  C   UNL     1      51.924  10.671  14.945  0.00  0.00    +0.000 A 
ATOM     13  C   UNL     1      51.823  10.017  13.722  0.00  0.00    +0.000 A 
ATOM     14  C   UNL     1      52.208   8.690  13.658  0.00  0.00    +0.000 A 
ATOM     15  N   UNL     1      52.683   7.997  14.714  0.00  0.00    +0.000 NA
ENDBRANCH   9  10
ENDBRANCH   8   9
ENDBRANCH   5   8
ENDBRANCH   1   2
BRANCH   1  16
ATOM     16  N   UNL     1      47.192   5.160  15.556  0.00  0.00    +0.000 N 
ATOM     17  C   UNL     1      47.037   4.739  14.261  0.00  0.00    +0.000 C 
ATOM     18  O   UNL     1      47.421   3.644  13.863  0.00  0.00    +0.000 OA
ATOM     19  H   UNL     1      47.092   6.153  15.740  0.00  0.00    +0.000 HD
BRANCH  17  20
ATOM     20  C   UNL     1      46.311   5.659  13.380  0.00  0.00    +0.000 A 
ATOM     21  C   UNL     1      46.842   6.906  13.083  0.00  0.00    +0.000 A 
ATOM     22  S   UNL     1      45.865   7.826  12.029  0.00  0.00    +0.000 S 
ATOM     23  C   UNL     1      44.677   6.608  11.977  0.00  0.00    +0.000 A 
ATOM     24  N   UNL     1      43.531   6.773  11.264  0.00  0.00    +0.000 NA
ATOM     25  C   UNL     1      42.707   5.781  11.344  0.00  0.00    +0.000 A 
ATOM     26  N   UNL     1      42.927   4.633  12.062  0.00  0.00    +0.000 N 
ATOM     27  C   UNL     1      44.086   4.404  12.759  0.00  0.00    +0.000 A 
ATOM     28  O   UNL     1      44.295   3.336  13.324  0.00  0.00    +0.000 OA
ATOM     29  C   UNL     1      45.035   5.503  12.727  0.00  0.00    +0.000 A 
ATOM     30  H   UNL     1      42.253   3.885  12.066  0.00  0.00    +0.000 HD
ENDBRANCH  17  20
ENDBRANCH   1  16
BRANCH   1  31
ATOM     31  C   UNL     1      47.087   4.003  17.783  0.00  0.00    +0.000 C 
BRANCH  31  32
ATOM     32  N   UNL     1      46.662   2.595  17.768  0.00  0.00    +0.000 NA
ATOM     33  H   UNL     1      45.913   2.487  17.087  0.00  0.00    +0.000 HD
ATOM     34  H   UNL     1      46.260   2.350  18.672  0.00  0.00    +0.000 HD
ENDBRANCH  31  32
ENDBRANCH   1  31
TORSDOF 8
ENDMDL
