MODEL 1
REMARK VINA RESULT:    -8.203      0.000      0.000
REMARK INTER + INTRA:         -10.394
REMARK INTER:                 -10.121
REMARK INTRA:                  -0.273
REMARK UNBOUND:                -0.273
REMARK  Name = 
REMARK  5 active torsions:
REMARK  status: ('A' for Active; 'I' for Inactive)
REMARK    1  A    between atoms: C_1  and  C_2
REMARK    2  A    between atoms: C_7  and  C_8
REMARK    3  A    between atoms: C_8  and  N_9
REMARK    4  A    between atoms: N_9  and  C_10
REMARK    5  A    between atoms: C_13  and  C_14
REMARK                            x       y       z     vdW  Elec       q    Type
REMARK                         _______ _______ _______ _____ _____    ______ ____
ROOT
ATOM      1  C   UNL     1      44.572   3.866   9.186  0.00  0.00    +0.000 A 
ATOM      2  C   UNL     1      45.530   4.478   8.371  0.00  0.00    +0.000 A 
ATOM      3  C   UNL     1      46.450   3.712   7.654  0.00  0.00    +0.000 A 
ATOM      4  C   UNL     1      46.405   2.335   7.802  0.00  0.00    +0.000 A 
ATOM      5  N   UNL     1      45.543   1.690   8.635  0.00  0.00    +0.000 NA
ATOM      6  C   UNL     1      44.673   2.478   9.314  0.00  0.00    +0.000 A 
ENDROOT
BRANCH   4   7
ATOM      7  C   UNL     1      47.331   1.467   7.003  0.00  0.00    +0.000 C 
ATOM      8  N   UNL     1      48.462   2.091   6.549  0.00  0.00    +0.000 N 
ATOM      9  O   UNL     1      47.112   0.284   6.784  0.00  0.00    +0.000 OA
ATOM     10  H   UNL     1      48.620   3.064   6.787  0.00  0.00    +0.000 HD
ATOM     11  H   UNL     1      49.162   1.562   6.051  0.00  0.00    +0.000 HD
ENDBRANCH   4   7
BRANCH   1  12
ATOM     12  N   UNL     1      43.677   4.669   9.906  0.00  0.00    +0.000 N 
ATOM     13  H   UNL     1      42.798   4.780   9.394  0.00  0.00    +0.000 HD
BRANCH  12  14
ATOM     14  C   UNL     1      43.396   4.306  11.303  0.00  0.00    +0.000 C 
BRANCH  14  21
ATOM     15  C   UNL     1      44.692   7.042  11.809  0.00  0.00    +0.000 C 
ATOM     16  C   UNL     1      45.230   5.761  12.374  0.00  0.00    +0.000 A 
ATOM     17  C   UNL     1      46.373   5.793  13.179  0.00  0.00    +0.000 A 
ATOM     18  C   UNL     1      46.855   4.611  13.703  0.00  0.00    +0.000 A 
ATOM     19  N   UNL     1      46.265   3.428  13.475  0.00  0.00    +0.000 NA
ATOM     20  N   UNL     1      45.148   3.383  12.698  0.00  0.00    +0.000 NA
ATOM     21  C   UNL     1      44.630   4.519  12.157  0.00  0.00    +0.000 A 
ENDBRANCH  14  21
ENDBRANCH  12  14
ENDBRANCH   1  12
TORSDOF 4
ENDMDL
MODEL 2
REMARK VINA RESULT:    -7.869      1.656      1.995
REMARK INTER + INTRA:          -9.982
REMARK INTER:                  -9.389
REMARK INTRA:                  -0.593
REMARK UNBOUND:                -0.273
REMARK  Name = 
REMARK  5 active torsions:
REMARK  status: ('A' for Active; 'I' for Inactive)
REMARK    1  A    between atoms: C_1  and  C_2
REMARK    2  A    between atoms: C_7  and  C_8
REMARK    3  A    between atoms: C_8  and  N_9
REMARK    4  A    between atoms: N_9  and  C_10
REMARK    5  A    between atoms: C_13  and  C_14
REMARK                            x       y       z     vdW  Elec       q    Type
REMARK                         _______ _______ _______ _____ _____    ______ ____
ROOT
ATOM      1  C   UNL     1      44.547   3.938   9.181  0.00  0.00    +0.000 A 
ATOM      2  C   UNL     1      45.562   4.350   8.310  0.00  0.00    +0.000 A 
ATOM      3  C   UNL     1      46.405   3.418   7.707  0.00  0.00    +0.000 A 
ATOM      4  C   UNL     1      46.230   2.081   8.023  0.00  0.00    +0.000 A 
ATOM      5  N   UNL     1      45.308   1.629   8.917  0.00  0.00    +0.000 NA
ATOM      6  C   UNL     1      44.515   2.574   9.480  0.00  0.00    +0.000 A 
ENDROOT
BRANCH   4   7
ATOM      7  C   UNL     1      47.070   1.037   7.351  0.00  0.00    +0.000 C 
ATOM      8  N   UNL     1      46.759  -0.255   7.677  0.00  0.00    +0.000 N 
ATOM      9  O   UNL     1      47.958   1.308   6.554  0.00  0.00    +0.000 OA
ATOM     10  H   UNL     1      45.991  -0.434   8.314  0.00  0.00    +0.000 HD
ATOM     11  H   UNL     1      47.242  -1.017   7.225  0.00  0.00    +0.000 HD
ENDBRANCH   4   7
BRANCH   1  12
ATOM     12  N   UNL     1      43.731   4.906   9.783  0.00  0.00    +0.000 N 
ATOM     13  H   UNL     1      42.808   4.927   9.341  0.00  0.00    +0.000 HD
BRANCH  12  14
ATOM     14  C   UNL     1      43.581   4.867  11.246  0.00  0.00    +0.000 C 
BRANCH  14  21
ATOM     15  C   UNL     1      45.823   3.530  12.859  0.00  0.00    +0.000 C 
ATOM     16  C   UNL     1      45.730   5.013  12.655  0.00  0.00    +0.000 A 
ATOM     17  C   UNL     1      46.705   5.845  13.214  0.00  0.00    +0.000 A 
ATOM     18  C   UNL     1      46.618   7.207  13.012  0.00  0.00    +0.000 A 
ATOM     19  N   UNL     1      45.632   7.768  12.294  0.00  0.00    +0.000 NA
ATOM     20  N   UNL     1      44.679   6.969  11.741  0.00  0.00    +0.000 NA
ATOM     21  C   UNL     1      44.718   5.619  11.907  0.00  0.00    +0.000 A 
ENDBRANCH  14  21
ENDBRANCH  12  14
ENDBRANCH   1  12
TORSDOF 4
ENDMDL
MODEL 3
REMARK VINA RESULT:    -6.966      2.829      6.128
REMARK INTER + INTRA:          -8.869
REMARK INTER:                  -8.390
REMARK INTRA:                  -0.479
REMARK UNBOUND:                -0.273
REMARK  Name = 
REMARK  5 active torsions:
REMARK  status: ('A' for Active; 'I' for Inactive)
REMARK    1  A    between atoms: C_1  and  C_2
REMARK    2  A    between atoms: C_7  and  C_8
REMARK    3  A    between atoms: C_8  and  N_9
REMARK    4  A    between atoms: N_9  and  C_10
REMARK    5  A    between atoms: C_13  and  C_14
REMARK                            x       y       z     vdW  Elec       q    Type
REMARK                         _______ _______ _______ _____ _____    ______ ____
ROOT
ATOM      1  C   UNL     1      45.557   5.486  11.565  0.00  0.00    +0.000 A 
ATOM      2  C   UNL     1      45.261   4.248  12.145  0.00  0.00    +0.000 A 
ATOM      3  C   UNL     1      45.816   3.884  13.372  0.00  0.00    +0.000 A 
ATOM      4  C   UNL     1      46.691   4.770  13.978  0.00  0.00    +0.000 A 
ATOM      5  N   UNL     1      47.071   5.956  13.427  0.00  0.00    +0.000 NA
ATOM      6  C   UNL     1      46.509   6.262  12.232  0.00  0.00    +0.000 A 
ENDROOT
BRANCH   4   7
ATOM      7  C   UNL     1      47.263   4.452  15.327  0.00  0.00    +0.000 C 
ATOM      8  N   UNL     1      47.768   5.524  16.010  0.00  0.00    +0.000 N 
ATOM      9  O   UNL     1      47.264   3.323  15.800  0.00  0.00    +0.000 OA
ATOM     10  H   UNL     1      47.712   6.448  15.594  0.00  0.00    +0.000 HD
ATOM     11  H   UNL     1      48.120   5.402  16.948  0.00  0.00    +0.000 HD
ENDBRANCH   4   7
BRANCH   1  12
ATOM     12  N   UNL     1      44.995   5.808  10.322  0.00  0.00    +0.000 N 
ATOM     13  H   UNL     1      45.690   6.248   9.713  0.00  0.00    +0.000 HD
BRANCH  12  14
ATOM     14  C   UNL     1      44.293   4.744   9.588  0.00  0.00    +0.000 C 
BRANCH  14  21
ATOM     15  C   UNL     1      44.397   1.686   9.365  0.00  0.00    +0.000 C 
ATOM     16  C   UNL     1      45.324   2.595   8.616  0.00  0.00    +0.000 A 
ATOM     17  C   UNL     1      46.287   2.044   7.765  0.00  0.00    +0.000 A 
ATOM     18  C   UNL     1      47.130   2.890   7.072  0.00  0.00    +0.000 A 
ATOM     19  N   UNL     1      47.059   4.226   7.179  0.00  0.00    +0.000 NA
ATOM     20  N   UNL     1      46.122   4.775   8.001  0.00  0.00    +0.000 NA
ATOM     21  C   UNL     1      45.266   3.988   8.706  0.00  0.00    +0.000 A 
ENDBRANCH  14  21
ENDBRANCH  12  14
ENDBRANCH   1  12
TORSDOF 4
ENDMDL
MODEL 4
REMARK VINA RESULT:    -6.840      2.594      5.890
REMARK INTER + INTRA:          -8.713
REMARK INTER:                  -8.360
REMARK INTRA:                  -0.353
REMARK UNBOUND:                -0.273
REMARK  Name = 
REMARK  5 active torsions:
REMARK  status: ('A' for Active; 'I' for Inactive)
REMARK    1  A    between atoms: C_1  and  C_2
REMARK    2  A    between atoms: C_7  and  C_8
REMARK    3  A    between atoms: C_8  and  N_9
REMARK    4  A    between atoms: N_9  and  C_10
REMARK    5  A    between atoms: C_13  and  C_14
REMARK                            x       y       z     vdW  Elec       q    Type
REMARK                         _______ _______ _______ _____ _____    ______ ____
ROOT
ATOM      1  C   UNL     1      44.874   4.015  11.046  0.00  0.00    +0.000 A 
ATOM      2  C   UNL     1      45.285   5.337  11.250  0.00  0.00    +0.000 A 
ATOM      3  C   UNL     1      46.003   5.692  12.390  0.00  0.00    +0.000 A 
ATOM      4  C   UNL     1      46.267   4.707  13.327  0.00  0.00    +0.000 A 
ATOM      5  N   UNL     1      45.832   3.422  13.217  0.00  0.00    +0.000 NA
ATOM      6  C   UNL     1      45.133   3.126  12.093  0.00  0.00    +0.000 A 
ENDROOT
BRANCH   4   7
ATOM      7  C   UNL     1      47.091   5.027  14.538  0.00  0.00    +0.000 C 
ATOM      8  N   UNL     1      47.691   6.257  14.522  0.00  0.00    +0.000 N 
ATOM      9  O   UNL     1      47.209   4.262  15.485  0.00  0.00    +0.000 OA
ATOM     10  H   UNL     1      47.535   6.874  13.732  0.00  0.00    +0.000 HD
ATOM     11  H   UNL     1      48.217   6.571  15.323  0.00  0.00    +0.000 HD
ENDBRANCH   4   7
BRANCH   1  12
ATOM     12  N   UNL     1      44.138   3.699   9.897  0.00  0.00    +0.000 N 
ATOM     13  H   UNL     1      43.209   4.128   9.932  0.00  0.00    +0.000 HD
BRANCH  12  14
ATOM     14  C   UNL     1      44.757   3.961   8.589  0.00  0.00    +0.000 C 
BRANCH  14  21
ATOM     15  C   UNL     1      47.081   4.126   6.592  0.00  0.00    +0.000 C 
ATOM     16  C   UNL     1      46.645   2.846   7.240  0.00  0.00    +0.000 A 
ATOM     17  C   UNL     1      47.320   1.659   6.939  0.00  0.00    +0.000 A 
ATOM     18  C   UNL     1      46.919   0.488   7.548  0.00  0.00    +0.000 A 
ATOM     19  N   UNL     1      45.904   0.443   8.426  0.00  0.00    +0.000 NA
ATOM     20  N   UNL     1      45.242   1.593   8.732  0.00  0.00    +0.000 NA
ATOM     21  C   UNL     1      45.598   2.775   8.161  0.00  0.00    +0.000 A 
ENDBRANCH  14  21
ENDBRANCH  12  14
ENDBRANCH   1  12
TORSDOF 4
ENDMDL
MODEL 5
REMARK VINA RESULT:    -6.816      3.449      5.733
REMARK INTER + INTRA:          -8.683
REMARK INTER:                  -8.337
REMARK INTRA:                  -0.346
REMARK UNBOUND:                -0.273
REMARK  Name = 
REMARK  5 active torsions:
REMARK  status: ('A' for Active; 'I' for Inactive)
REMARK    1  A    between atoms: C_1  and  C_2
REMARK    2  A    between atoms: C_7  and  C_8
REMARK    3  A    between atoms: C_8  and  N_9
REMARK    4  A    between atoms: N_9  and  C_10
REMARK    5  A    between atoms: C_13  and  C_14
REMARK                            x       y       z     vdW  Elec       q    Type
REMARK                         _______ _______ _______ _____ _____    ______ ____
ROOT
ATOM      1  C   UNL     1      46.541   4.806  14.010  0.00  0.00    +0.000 A 
ATOM      2  C   UNL     1      46.001   5.842  13.240  0.00  0.00    +0.000 A 
ATOM      3  C   UNL     1      45.210   5.564  12.126  0.00  0.00    +0.000 A 
ATOM      4  C   UNL     1      45.006   4.237  11.787  0.00  0.00    +0.000 A 
ATOM      5  N   UNL     1      45.564   3.190  12.455  0.00  0.00    +0.000 NA
ATOM      6  C   UNL     1      46.328   3.511  13.528  0.00  0.00    +0.000 A 
ENDROOT
BRANCH   4   7
ATOM      7  C   UNL     1      44.112   3.888  10.635  0.00  0.00    +0.000 C 
ATOM      8  N   UNL     1      44.157   4.761   9.582  0.00  0.00    +0.000 N 
ATOM      9  O   UNL     1      43.406   2.889  10.618  0.00  0.00    +0.000 OA
ATOM     10  H   UNL     1      44.785   5.556   9.624  0.00  0.00    +0.000 HD
ATOM     11  H   UNL     1      43.626   4.567   8.746  0.00  0.00    +0.000 HD
ENDBRANCH   4   7
BRANCH   1  12
ATOM     12  N   UNL     1      47.345   5.124  15.112  0.00  0.00    +0.000 N 
ATOM     13  H   UNL     1      47.292   6.124  15.324  0.00  0.00    +0.000 HD
BRANCH  12  14
ATOM     14  C   UNL     1      47.162   4.345  16.346  0.00  0.00    +0.000 C 
BRANCH  14  21
ATOM     15  C   UNL     1      49.267   5.268  18.379  0.00  0.00    +0.000 C 
ATOM     16  C   UNL     1      49.392   4.003  17.584  0.00  0.00    +0.000 A 
ATOM     17  C   UNL     1      50.512   3.185  17.767  0.00  0.00    +0.000 A 
ATOM     18  C   UNL     1      50.614   2.017  17.039  0.00  0.00    +0.000 A 
ATOM     19  N   UNL     1      49.674   1.630  16.163  0.00  0.00    +0.000 NA
ATOM     20  N   UNL     1      48.577   2.414  15.979  0.00  0.00    +0.000 NA
ATOM     21  C   UNL     1      48.426   3.575  16.671  0.00  0.00    +0.000 A 
ENDBRANCH  14  21
ENDBRANCH  12  14
ENDBRANCH   1  12
TORSDOF 4
ENDMDL
MODEL 6
REMARK VINA RESULT:    -6.104      5.010      6.713
REMARK INTER + INTRA:          -7.805
REMARK INTER:                  -7.518
REMARK INTRA:                  -0.287
REMARK UNBOUND:                -0.273
REMARK  Name = 
REMARK  5 active torsions:
REMARK  status: ('A' for Active; 'I' for Inactive)
REMARK    1  A    between atoms: C_1  and  C_2
REMARK    2  A    between atoms: C_7  and  C_8
REMARK    3  A    between atoms: C_8  and  N_9
REMARK    4  A    between atoms: N_9  and  C_10
REMARK    5  A    between atoms: C_13  and  C_14
REMARK                            x       y       z     vdW  Elec       q    Type
REMARK                         _______ _______ _______ _____ _____    ______ ____
ROOT
ATOM      1  C   UNL     1      46.498   5.156  13.664  0.00  0.00    +0.000 A 
ATOM      2  C   UNL     1      45.148   5.172  13.301  0.00  0.00    +0.000 A 
ATOM      3  C   UNL     1      44.597   6.276  12.651  0.00  0.00    +0.000 A 
ATOM      4  C   UNL     1      45.419   7.365  12.409  0.00  0.00    +0.000 A 
ATOM      5  N   UNL     1      46.720   7.434  12.803  0.00  0.00    +0.000 NA
ATOM      6  C   UNL     1      47.208   6.338  13.435  0.00  0.00    +0.000 A 
ENDROOT
BRANCH   4   7
ATOM      7  C   UNL     1      44.889   8.549  11.657  0.00  0.00    +0.000 C 
ATOM      8  N   UNL     1      43.707   8.336  11.000  0.00  0.00    +0.000 N 
ATOM      9  O   UNL     1      45.452   9.635  11.640  0.00  0.00    +0.000 OA
ATOM     10  H   UNL     1      43.256   7.430  11.072  0.00  0.00    +0.000 HD
ATOM     11  H   UNL     1      43.257   9.099  10.517  0.00  0.00    +0.000 HD
ENDBRANCH   4   7
BRANCH   1  12
ATOM     12  N   UNL     1      47.011   4.036  14.333  0.00  0.00    +0.000 N 
ATOM     13  H   UNL     1      47.960   3.824  14.010  0.00  0.00    +0.000 HD
BRANCH  12  14
ATOM     14  C   UNL     1      46.974   4.035  15.803  0.00  0.00    +0.000 C 
BRANCH  14  21
ATOM     15  C   UNL     1      48.564   5.237  18.136  0.00  0.00    +0.000 C 
ATOM     16  C   UNL     1      48.986   3.995  17.409  0.00  0.00    +0.000 A 
ATOM     17  C   UNL     1      50.154   3.334  17.800  0.00  0.00    +0.000 A 
ATOM     18  C   UNL     1      50.529   2.186  17.132  0.00  0.00    +0.000 A 
ATOM     19  N   UNL     1      49.811   1.674  16.120  0.00  0.00    +0.000 NA
ATOM     20  N   UNL     1      48.668   2.306  15.732  0.00  0.00    +0.000 NA
ATOM     21  C   UNL     1      48.253   3.440  16.358  0.00  0.00    +0.000 A 
ENDBRANCH  14  21
ENDBRANCH  12  14
ENDBRANCH   1  12
TORSDOF 4
ENDMDL
MODEL 7
REMARK VINA RESULT:    -5.982      3.793      6.394
REMARK INTER + INTRA:          -7.654
REMARK INTER:                  -7.507
REMARK INTRA:                  -0.147
REMARK UNBOUND:                -0.273
REMARK  Name = 
REMARK  5 active torsions:
REMARK  status: ('A' for Active; 'I' for Inactive)
REMARK    1  A    between atoms: C_1  and  C_2
REMARK    2  A    between atoms: C_7  and  C_8
REMARK    3  A    between atoms: C_8  and  N_9
REMARK    4  A    between atoms: N_9  and  C_10
REMARK    5  A    between atoms: C_13  and  C_14
REMARK                            x       y       z     vdW  Elec       q    Type
REMARK                         _______ _______ _______ _____ _____    ______ ____
ROOT
ATOM      1  C   UNL     1      46.631   5.773  12.696  0.00  0.00    +0.000 A 
ATOM      2  C   UNL     1      47.265   6.776  11.955  0.00  0.00    +0.000 A 
ATOM      3  C   UNL     1      48.435   7.375  12.421  0.00  0.00    +0.000 A 
ATOM      4  C   UNL     1      48.928   6.970  13.651  0.00  0.00    +0.000 A 
ATOM      5  N   UNL     1      48.315   6.051  14.447  0.00  0.00    +0.000 NA
ATOM      6  C   UNL     1      47.179   5.501  13.952  0.00  0.00    +0.000 A 
ENDROOT
BRANCH   4   7
ATOM      7  C   UNL     1      50.217   7.539  14.164  0.00  0.00    +0.000 C 
ATOM      8  N   UNL     1      51.047   8.050  13.204  0.00  0.00    +0.000 N 
ATOM      9  O   UNL     1      50.506   7.567  15.352  0.00  0.00    +0.000 OA
ATOM     10  H   UNL     1      50.749   8.039  12.234  0.00  0.00    +0.000 HD
ATOM     11  H   UNL     1      51.908   8.501  13.473  0.00  0.00    +0.000 HD
ENDBRANCH   4   7
BRANCH   1  12
ATOM     12  N   UNL     1      45.447   5.208  12.203  0.00  0.00    +0.000 N 
ATOM     13  H   UNL     1      44.716   5.216  12.920  0.00  0.00    +0.000 HD
BRANCH  12  14
ATOM     14  C   UNL     1      44.909   5.730  10.938  0.00  0.00    +0.000 C 
BRANCH  14  21
ATOM     15  C   UNL     1      43.686   2.916  10.940  0.00  0.00    +0.000 C 
ATOM     16  C   UNL     1      44.561   3.430   9.836  0.00  0.00    +0.000 A 
ATOM     17  C   UNL     1      44.841   2.605   8.742  0.00  0.00    +0.000 A 
ATOM     18  C   UNL     1      45.639   3.091   7.726  0.00  0.00    +0.000 A 
ATOM     19  N   UNL     1      46.155   4.330   7.743  0.00  0.00    +0.000 NA
ATOM     20  N   UNL     1      45.885   5.145   8.801  0.00  0.00    +0.000 NA
ATOM     21  C   UNL     1      45.104   4.717   9.828  0.00  0.00    +0.000 A 
ENDBRANCH  14  21
ENDBRANCH  12  14
ENDBRANCH   1  12
TORSDOF 4
ENDMDL
MODEL 8
REMARK VINA RESULT:    -5.703      3.520      5.309
REMARK INTER + INTRA:          -7.309
REMARK INTER:                  -6.987
REMARK INTRA:                  -0.322
REMARK UNBOUND:                -0.273
REMARK  Name = 
REMARK  5 active torsions:
REMARK  status: ('A' for Active; 'I' for Inactive)
REMARK    1  A    between atoms: C_1  and  C_2
REMARK    2  A    between atoms: C_7  and  C_8
REMARK    3  A    between atoms: C_8  and  N_9
REMARK    4  A    between atoms: N_9  and  C_10
REMARK    5  A    between atoms: C_13  and  C_14
REMARK                            x       y       z     vdW  Elec       q    Type
REMARK                         _______ _______ _______ _____ _____    ______ ____
ROOT
ATOM      1  C   UNL     1      46.308   5.723  13.014  0.00  0.00    +0.000 A 
ATOM      2  C   UNL     1      45.856   4.421  13.254  0.00  0.00    +0.000 A 
ATOM      3  C   UNL     1      45.178   3.709  12.266  0.00  0.00    +0.000 A 
ATOM      4  C   UNL     1      44.937   4.341  11.057  0.00  0.00    +0.000 A 
ATOM      5  N   UNL     1      45.289   5.629  10.793  0.00  0.00    +0.000 NA
ATOM      6  C   UNL     1      45.942   6.281  11.786  0.00  0.00    +0.000 A 
ENDROOT
BRANCH   4   7
ATOM      7  C   UNL     1      44.267   3.594   9.943  0.00  0.00    +0.000 C 
ATOM      8  N   UNL     1      44.085   4.311   8.792  0.00  0.00    +0.000 N 
ATOM      9  O   UNL     1      43.923   2.424  10.038  0.00  0.00    +0.000 OA
ATOM     10  H   UNL     1      44.419   5.268   8.746  0.00  0.00    +0.000 HD
ATOM     11  H   UNL     1      43.692   3.863   7.978  0.00  0.00    +0.000 HD
ENDBRANCH   4   7
BRANCH   1  12
ATOM     12  N   UNL     1      46.971   6.414  14.038  0.00  0.00    +0.000 N 
ATOM     13  H   UNL     1      47.202   5.783  14.811  0.00  0.00    +0.000 HD
BRANCH  12  14
ATOM     14  C   UNL     1      48.153   7.212  13.677  0.00  0.00    +0.000 C 
BRANCH  14  21
ATOM     15  C   UNL     1      50.777   8.800  13.736  0.00  0.00    +0.000 C 
ATOM     16  C   UNL     1      50.466   7.693  14.698  0.00  0.00    +0.000 A 
ATOM     17  C   UNL     1      51.401   7.355  15.682  0.00  0.00    +0.000 A 
ATOM     18  C   UNL     1      51.102   6.342  16.570  0.00  0.00    +0.000 A 
ATOM     19  N   UNL     1      49.942   5.668  16.529  0.00  0.00    +0.000 NA
ATOM     20  N   UNL     1      49.021   5.990  15.580  0.00  0.00    +0.000 NA
ATOM     21  C   UNL     1      49.265   6.981  14.681  0.00  0.00    +0.000 A 
ENDBRANCH  14  21
ENDBRANCH  12  14
ENDBRANCH   1  12
TORSDOF 4
ENDMDL
MODEL 9
REMARK VINA RESULT:    -5.435      4.120      6.170
REMARK INTER + INTRA:          -6.979
REMARK INTER:                  -6.618
REMARK INTRA:                  -0.361
REMARK UNBOUND:                -0.273
REMARK  Name = 
REMARK  5 active torsions:
REMARK  status: ('A' for Active; 'I' for Inactive)
REMARK    1  A    between atoms: C_1  and  C_2
REMARK    2  A    between atoms: C_7  and  C_8
REMARK    3  A    between atoms: C_8  and  N_9
REMARK    4  A    between atoms: N_9  and  C_10
REMARK    5  A    between atoms: C_13  and  C_14
REMARK                            x       y       z     vdW  Elec       q    Type
REMARK                         _______ _______ _______ _____ _____    ______ ____
ROOT
ATOM      1  C   UNL     1      46.932   6.132  13.116  0.00  0.00    +0.000 A 
ATOM      2  C   UNL     1      46.281   6.957  12.193  0.00  0.00    +0.000 A 
ATOM      3  C   UNL     1      45.017   6.624  11.706  0.00  0.00    +0.000 A 
ATOM      4  C   UNL     1      44.445   5.438  12.137  0.00  0.00    +0.000 A 
ATOM      5  N   UNL     1      45.061   4.562  12.977  0.00  0.00    +0.000 NA
ATOM      6  C   UNL     1      46.290   4.928  13.420  0.00  0.00    +0.000 A 
ENDROOT
BRANCH   4   7
ATOM      7  C   UNL     1      43.062   5.069  11.690  0.00  0.00    +0.000 C 
ATOM      8  N   UNL     1      42.156   6.094  11.708  0.00  0.00    +0.000 N 
ATOM      9  O   UNL     1      42.761   3.944  11.317  0.00  0.00    +0.000 OA
ATOM     10  H   UNL     1      42.459   7.020  11.990  0.00  0.00    +0.000 HD
ATOM     11  H   UNL     1      41.217   5.941  11.370  0.00  0.00    +0.000 HD
ENDBRANCH   4   7
BRANCH   1  12
ATOM     12  N   UNL     1      48.208   6.491  13.569  0.00  0.00    +0.000 N 
ATOM     13  H   UNL     1      48.696   7.057  12.869  0.00  0.00    +0.000 HD
BRANCH  12  14
ATOM     14  C   UNL     1      48.316   7.132  14.888  0.00  0.00    +0.000 C 
BRANCH  14  21
ATOM     15  C   UNL     1      51.123   7.988  15.786  0.00  0.00    +0.000 C 
ATOM     16  C   UNL     1      50.490   6.691  16.194  0.00  0.00    +0.000 A 
ATOM     17  C   UNL     1      51.193   5.818  17.029  0.00  0.00    +0.000 A 
ATOM     18  C   UNL     1      50.599   4.631  17.409  0.00  0.00    +0.000 A 
ATOM     19  N   UNL     1      49.365   4.283  17.010  0.00  0.00    +0.000 NA
ATOM     20  N   UNL     1      48.667   5.127  16.201  0.00  0.00    +0.000 NA
ATOM     21  C   UNL     1      49.206   6.310  15.798  0.00  0.00    +0.000 A 
ENDBRANCH  14  21
ENDBRANCH  12  14
ENDBRANCH   1  12
TORSDOF 4
ENDMDL
