MODEL 1
REMARK VINA RESULT:    -8.625      0.000      0.000
REMARK INTER + INTRA:         -11.199
REMARK INTER:                 -10.642
REMARK INTRA:                  -0.556
REMARK UNBOUND:                -0.556
REMARK  Name = 
REMARK  4 active torsions:
REMARK  status: ('A' for Active; 'I' for Inactive)
REMARK    1  A    between atoms: C_2  and  C_4
REMARK    2  A    between atoms: C_7  and  C_8
REMARK    3  A    between atoms: C_8  and  N_9
REMARK    4  A    between atoms: C_14  and  C_15
REMARK                            x       y       z     vdW  Elec       q    Type
REMARK                         _______ _______ _______ _____ _____    ______ ____
ROOT
ATOM      1  N   UNL     1      44.104   4.639  11.680  0.00  0.00    +0.000 N 
ATOM      2  C   UNL     1      45.169   5.405  12.135  0.00  0.00    +0.000 A 
ATOM      3  C   UNL     1      45.541   6.630  11.577  0.00  0.00    +0.000 A 
ATOM      4  N   UNL     1      46.556   7.396  12.037  0.00  0.00    +0.000 NA
ATOM      5  C   UNL     1      47.180   6.900  13.127  0.00  0.00    +0.000 A 
ATOM      6  C   UNL     1      46.831   5.696  13.732  0.00  0.00    +0.000 A 
ATOM      7  N   UNL     1      45.816   4.935  13.229  0.00  0.00    +0.000 NA
ATOM      8  H   UNL     1      44.172   3.713  12.094  0.00  0.00    +0.000 HD
ENDROOT
BRANCH   6   9
ATOM      9  C   UNL     1      47.497   5.219  14.954  0.00  0.00    +0.000 A 
ATOM     10  C   UNL     1      47.185   3.987  15.552  0.00  0.00    +0.000 A 
ATOM     11  C   UNL     1      47.905   3.524  16.653  0.00  0.00    +0.000 A 
ATOM     12  C   UNL     1      48.924   4.316  17.147  0.00  0.00    +0.000 A 
ATOM     13  N   UNL     1      49.245   5.521  16.633  0.00  0.00    +0.000 NA
ATOM     14  C   UNL     1      48.525   5.941  15.560  0.00  0.00    +0.000 A 
ENDBRANCH   6   9
BRANCH   1  15
ATOM     15  C   UNL     1      43.762   4.681  10.269  0.00  0.00    +0.000 C 
BRANCH  15  19
ATOM     16  C   UNL     1      46.451   2.439   7.720  0.00  0.00    +0.000 A 
ATOM     17  C   UNL     1      45.657   1.762   8.652  0.00  0.00    +0.000 A 
ATOM     18  C   UNL     1      44.792   2.478   9.487  0.00  0.00    +0.000 A 
ATOM     19  C   UNL     1      44.725   3.878   9.421  0.00  0.00    +0.000 A 
ATOM     20  C   UNL     1      45.515   4.544   8.470  0.00  0.00    +0.000 A 
ATOM     21  C   UNL     1      46.379   3.833   7.633  0.00  0.00    +0.000 A 
BRANCH  16  23
ATOM     22  N   UNL     1      48.494   2.410   6.394  0.00  0.00    +0.000 N 
ATOM     23  C   UNL     1      47.392   1.725   6.819  0.00  0.00    +0.000 C 
ATOM     24  O   UNL     1      47.213   0.557   6.498  0.00  0.00    +0.000 OA
ATOM     25  H   UNL     1      49.178   1.878   5.869  0.00  0.00    +0.000 HD
ATOM     26  H   UNL     1      48.804   3.265   6.834  0.00  0.00    +0.000 HD
ENDBRANCH  16  23
ENDBRANCH  15  19
ENDBRANCH   1  15
TORSDOF 4
ENDMDL
MODEL 2
REMARK VINA RESULT:    -8.101      3.085      7.626
REMARK INTER + INTRA:         -10.552
REMARK INTER:                 -10.068
REMARK INTRA:                  -0.484
REMARK UNBOUND:                -0.556
REMARK  Name = 
REMARK  4 active torsions:
REMARK  status: ('A' for Active; 'I' for Inactive)
REMARK    1  A    between atoms: C_2  and  C_4
REMARK    2  A    between atoms: C_7  and  C_8
REMARK    3  A    between atoms: C_8  and  N_9
REMARK    4  A    between atoms: C_14  and  C_15
REMARK                            x       y       z     vdW  Elec       q    Type
REMARK                         _______ _______ _______ _____ _____    ______ ____
ROOT
ATOM      1  N   UNL     1      44.620   6.138  10.568  0.00  0.00    +0.000 N 
ATOM      2  C   UNL     1      44.603   4.789  10.240  0.00  0.00    +0.000 A 
ATOM      3  C   UNL     1      43.788   3.845  10.869  0.00  0.00    +0.000 A 
ATOM      4  N   UNL     1      43.742   2.537  10.532  0.00  0.00    +0.000 NA
ATOM      5  C   UNL     1      44.533   2.202   9.490  0.00  0.00    +0.000 A 
ATOM      6  C   UNL     1      45.346   3.109   8.817  0.00  0.00    +0.000 A 
ATOM      7  N   UNL     1      45.385   4.420   9.197  0.00  0.00    +0.000 NA
ATOM      8  H   UNL     1      45.434   6.566  10.134  0.00  0.00    +0.000 HD
ENDROOT
BRANCH   6   9
ATOM      9  C   UNL     1      46.148   2.717   7.648  0.00  0.00    +0.000 A 
ATOM     10  C   UNL     1      46.270   3.528   6.508  0.00  0.00    +0.000 A 
ATOM     11  C   UNL     1      47.118   3.168   5.461  0.00  0.00    +0.000 A 
ATOM     12  C   UNL     1      47.823   1.985   5.570  0.00  0.00    +0.000 A 
ATOM     13  N   UNL     1      47.720   1.152   6.625  0.00  0.00    +0.000 NA
ATOM     14  C   UNL     1      46.887   1.534   7.629  0.00  0.00    +0.000 A 
ENDBRANCH   6   9
BRANCH   1  15
ATOM     15  C   UNL     1      44.354   6.529  11.942  0.00  0.00    +0.000 C 
BRANCH  15  19
ATOM     16  C   UNL     1      48.050   6.880  14.173  0.00  0.00    +0.000 A 
ATOM     17  C   UNL     1      47.417   5.636  14.076  0.00  0.00    +0.000 A 
ATOM     18  C   UNL     1      46.217   5.514  13.366  0.00  0.00    +0.000 A 
ATOM     19  C   UNL     1      45.621   6.633  12.765  0.00  0.00    +0.000 A 
ATOM     20  C   UNL     1      46.275   7.872  12.856  0.00  0.00    +0.000 A 
ATOM     21  C   UNL     1      47.474   7.998  13.562  0.00  0.00    +0.000 A 
BRANCH  16  23
ATOM     22  N   UNL     1      50.422   7.430  14.209  0.00  0.00    +0.000 N 
ATOM     23  C   UNL     1      49.318   7.062  14.924  0.00  0.00    +0.000 C 
ATOM     24  O   UNL     1      49.371   6.929  16.140  0.00  0.00    +0.000 OA
ATOM     25  H   UNL     1      51.251   7.654  14.747  0.00  0.00    +0.000 HD
ATOM     26  H   UNL     1      50.363   7.795  13.269  0.00  0.00    +0.000 HD
ENDBRANCH  16  23
ENDBRANCH  15  19
ENDBRANCH   1  15
TORSDOF 4
ENDMDL
MODEL 3
REMARK VINA RESULT:    -8.053      1.559      2.352
REMARK INTER + INTRA:         -10.493
REMARK INTER:                  -9.999
REMARK INTRA:                  -0.493
REMARK UNBOUND:                -0.556
REMARK  Name = 
REMARK  4 active torsions:
REMARK  status: ('A' for Active; 'I' for Inactive)
REMARK    1  A    between atoms: C_2  and  C_4
REMARK    2  A    between atoms: C_7  and  C_8
REMARK    3  A    between atoms: C_8  and  N_9
REMARK    4  A    between atoms: C_14  and  C_15
REMARK                            x       y       z     vdW  Elec       q    Type
REMARK                         _______ _______ _______ _____ _____    ______ ____
ROOT
ATOM      1  N   UNL     1      44.505   4.375  11.731  0.00  0.00    +0.000 N 
ATOM      2  C   UNL     1      44.904   5.697  11.878  0.00  0.00    +0.000 A 
ATOM      3  C   UNL     1      44.211   6.783  11.340  0.00  0.00    +0.000 A 
ATOM      4  N   UNL     1      44.575   8.074  11.507  0.00  0.00    +0.000 NA
ATOM      5  C   UNL     1      45.667   8.250  12.284  0.00  0.00    +0.000 A 
ATOM      6  C   UNL     1      46.378   7.201  12.860  0.00  0.00    +0.000 A 
ATOM      7  N   UNL     1      45.996   5.907  12.653  0.00  0.00    +0.000 NA
ATOM      8  H   UNL     1      45.273   3.772  12.016  0.00  0.00    +0.000 HD
ENDROOT
BRANCH   6   9
ATOM      9  C   UNL     1      47.526   7.436  13.749  0.00  0.00    +0.000 A 
ATOM     10  C   UNL     1      47.937   8.725  14.127  0.00  0.00    +0.000 A 
ATOM     11  C   UNL     1      48.968   8.906  15.049  0.00  0.00    +0.000 A 
ATOM     12  C   UNL     1      49.582   7.783  15.569  0.00  0.00    +0.000 A 
ATOM     13  N   UNL     1      49.250   6.524  15.219  0.00  0.00    +0.000 NA
ATOM     14  C   UNL     1      48.241   6.383  14.319  0.00  0.00    +0.000 A 
ENDBRANCH   6   9
BRANCH   1  15
ATOM     15  C   UNL     1      43.806   3.983  10.520  0.00  0.00    +0.000 C 
BRANCH  15  19
ATOM     16  C   UNL     1      46.606   2.656   7.495  0.00  0.00    +0.000 A 
ATOM     17  C   UNL     1      46.343   4.023   7.640  0.00  0.00    +0.000 A 
ATOM     18  C   UNL     1      45.432   4.461   8.608  0.00  0.00    +0.000 A 
ATOM     19  C   UNL     1      44.755   3.544   9.426  0.00  0.00    +0.000 A 
ATOM     20  C   UNL     1      45.041   2.176   9.280  0.00  0.00    +0.000 A 
ATOM     21  C   UNL     1      45.951   1.734   8.316  0.00  0.00    +0.000 A 
BRANCH  16  23
ATOM     22  N   UNL     1      47.838   2.953   5.414  0.00  0.00    +0.000 N 
ATOM     23  C   UNL     1      47.557   2.141   6.476  0.00  0.00    +0.000 C 
ATOM     24  O   UNL     1      48.100   1.050   6.597  0.00  0.00    +0.000 OA
ATOM     25  H   UNL     1      48.566   2.633   4.787  0.00  0.00    +0.000 HD
ATOM     26  H   UNL     1      47.618   3.938   5.412  0.00  0.00    +0.000 HD
ENDBRANCH  16  23
ENDBRANCH  15  19
ENDBRANCH   1  15
TORSDOF 4
ENDMDL
MODEL 4
REMARK VINA RESULT:    -6.810      2.791      5.006
REMARK INTER + INTRA:          -8.959
REMARK INTER:                  -8.605
REMARK INTRA:                  -0.354
REMARK UNBOUND:                -0.556
REMARK  Name = 
REMARK  4 active torsions:
REMARK  status: ('A' for Active; 'I' for Inactive)
REMARK    1  A    between atoms: C_2  and  C_4
REMARK    2  A    between atoms: C_7  and  C_8
REMARK    3  A    between atoms: C_8  and  N_9
REMARK    4  A    between atoms: C_14  and  C_15
REMARK                            x       y       z     vdW  Elec       q    Type
REMARK                         _______ _______ _______ _____ _____    ______ ____
ROOT
ATOM      1  N   UNL     1      47.111   3.765  14.988  0.00  0.00    +0.000 N 
ATOM      2  C   UNL     1      47.720   3.878  16.231  0.00  0.00    +0.000 A 
ATOM      3  C   UNL     1      47.103   4.435  17.352  0.00  0.00    +0.000 A 
ATOM      4  N   UNL     1      47.678   4.518  18.573  0.00  0.00    +0.000 NA
ATOM      5  C   UNL     1      48.914   3.976  18.645  0.00  0.00    +0.000 A 
ATOM      6  C   UNL     1      49.561   3.391  17.561  0.00  0.00    +0.000 A 
ATOM      7  N   UNL     1      48.961   3.343  16.336  0.00  0.00    +0.000 NA
ATOM      8  H   UNL     1      47.823   3.536  14.298  0.00  0.00    +0.000 HD
ENDROOT
BRANCH   6   9
ATOM      9  C   UNL     1      50.883   2.758  17.695  0.00  0.00    +0.000 A 
ATOM     10  C   UNL     1      51.111   1.410  17.373  0.00  0.00    +0.000 A 
ATOM     11  C   UNL     1      52.397   0.872  17.419  0.00  0.00    +0.000 A 
ATOM     12  C   UNL     1      53.437   1.696  17.802  0.00  0.00    +0.000 A 
ATOM     13  N   UNL     1      53.271   2.988  18.152  0.00  0.00    +0.000 NA
ATOM     14  C   UNL     1      52.006   3.482  18.095  0.00  0.00    +0.000 A 
ENDBRANCH   6   9
BRANCH   1  15
ATOM     15  C   UNL     1      46.139   4.768  14.589  0.00  0.00    +0.000 C 
BRANCH  15  19
ATOM     16  C   UNL     1      45.476   4.597  10.312  0.00  0.00    +0.000 A 
ATOM     17  C   UNL     1      45.931   5.786  10.894  0.00  0.00    +0.000 A 
ATOM     18  C   UNL     1      46.139   5.854  12.276  0.00  0.00    +0.000 A 
ATOM     19  C   UNL     1      45.873   4.749  13.099  0.00  0.00    +0.000 A 
ATOM     20  C   UNL     1      45.433   3.557  12.500  0.00  0.00    +0.000 A 
ATOM     21  C   UNL     1      45.226   3.484  11.120  0.00  0.00    +0.000 A 
BRANCH  16  23
ATOM     22  N   UNL     1      43.977   4.107   8.456  0.00  0.00    +0.000 N 
ATOM     23  C   UNL     1      45.231   4.478   8.852  0.00  0.00    +0.000 C 
ATOM     24  O   UNL     1      46.101   4.739   8.030  0.00  0.00    +0.000 OA
ATOM     25  H   UNL     1      43.797   4.134   7.459  0.00  0.00    +0.000 HD
ATOM     26  H   UNL     1      43.182   4.136   9.077  0.00  0.00    +0.000 HD
ENDBRANCH  16  23
ENDBRANCH  15  19
ENDBRANCH   1  15
TORSDOF 4
ENDMDL
MODEL 5
REMARK VINA RESULT:    -6.478      1.474      2.536
REMARK INTER + INTRA:          -8.549
REMARK INTER:                  -8.161
REMARK INTRA:                  -0.388
REMARK UNBOUND:                -0.556
REMARK  Name = 
REMARK  4 active torsions:
REMARK  status: ('A' for Active; 'I' for Inactive)
REMARK    1  A    between atoms: C_2  and  C_4
REMARK    2  A    between atoms: C_7  and  C_8
REMARK    3  A    between atoms: C_8  and  N_9
REMARK    4  A    between atoms: C_14  and  C_15
REMARK                            x       y       z     vdW  Elec       q    Type
REMARK                         _______ _______ _______ _____ _____    ______ ____
ROOT
ATOM      1  N   UNL     1      45.835   5.692  11.807  0.00  0.00    +0.000 N 
ATOM      2  C   UNL     1      46.393   5.024  12.889  0.00  0.00    +0.000 A 
ATOM      3  C   UNL     1      46.504   3.634  12.972  0.00  0.00    +0.000 A 
ATOM      4  N   UNL     1      47.077   2.980  14.007  0.00  0.00    +0.000 NA
ATOM      5  C   UNL     1      47.582   3.786  14.966  0.00  0.00    +0.000 A 
ATOM      6  C   UNL     1      47.515   5.175  14.917  0.00  0.00    +0.000 A 
ATOM      7  N   UNL     1      46.911   5.805  13.868  0.00  0.00    +0.000 NA
ATOM      8  H   UNL     1      45.671   6.660  12.074  0.00  0.00    +0.000 HD
ENDROOT
BRANCH   6   9
ATOM      9  C   UNL     1      48.130   6.019  15.953  0.00  0.00    +0.000 A 
ATOM     10  C   UNL     1      48.587   7.322  15.693  0.00  0.00    +0.000 A 
ATOM     11  C   UNL     1      49.074   8.128  16.722  0.00  0.00    +0.000 A 
ATOM     12  C   UNL     1      49.109   7.605  18.000  0.00  0.00    +0.000 A 
ATOM     13  N   UNL     1      48.714   6.351  18.302  0.00  0.00    +0.000 NA
ATOM     14  C   UNL     1      48.243   5.593  17.276  0.00  0.00    +0.000 A 
ENDBRANCH   6   9
BRANCH   1  15
ATOM     15  C   UNL     1      44.766   5.050  11.061  0.00  0.00    +0.000 C 
BRANCH  15  19
ATOM     16  C   UNL     1      46.302   2.964   7.589  0.00  0.00    +0.000 A 
ATOM     17  C   UNL     1      46.502   4.344   7.711  0.00  0.00    +0.000 A 
ATOM     18  C   UNL     1      46.001   5.028   8.824  0.00  0.00    +0.000 A 
ATOM     19  C   UNL     1      45.275   4.353   9.816  0.00  0.00    +0.000 A 
ATOM     20  C   UNL     1      45.095   2.966   9.690  0.00  0.00    +0.000 A 
ATOM     21  C   UNL     1      45.595   2.278   8.581  0.00  0.00    +0.000 A 
BRANCH  16  23
ATOM     22  N   UNL     1      47.029   2.885   5.266  0.00  0.00    +0.000 N 
ATOM     23  C   UNL     1      46.805   2.195   6.422  0.00  0.00    +0.000 C 
ATOM     24  O   UNL     1      47.049   0.997   6.499  0.00  0.00    +0.000 OA
ATOM     25  H   UNL     1      47.471   2.369   4.514  0.00  0.00    +0.000 HD
ATOM     26  H   UNL     1      47.086   3.893   5.238  0.00  0.00    +0.000 HD
ENDBRANCH  16  23
ENDBRANCH  15  19
ENDBRANCH   1  15
TORSDOF 4
ENDMDL
MODEL 6
REMARK VINA RESULT:    -6.331      3.795      8.503
REMARK INTER + INTRA:          -8.368
REMARK INTER:                  -7.960
REMARK INTRA:                  -0.408
REMARK UNBOUND:                -0.556
REMARK  Name = 
REMARK  4 active torsions:
REMARK  status: ('A' for Active; 'I' for Inactive)
REMARK    1  A    between atoms: C_2  and  C_4
REMARK    2  A    between atoms: C_7  and  C_8
REMARK    3  A    between atoms: C_8  and  N_9
REMARK    4  A    between atoms: C_14  and  C_15
REMARK                            x       y       z     vdW  Elec       q    Type
REMARK                         _______ _______ _______ _____ _____    ______ ____
ROOT
ATOM      1  N   UNL     1      47.192   3.379  16.095  0.00  0.00    +0.000 N 
ATOM      2  C   UNL     1      47.135   4.366  15.119  0.00  0.00    +0.000 A 
ATOM      3  C   UNL     1      47.949   5.500  15.111  0.00  0.00    +0.000 A 
ATOM      4  N   UNL     1      47.922   6.447  14.147  0.00  0.00    +0.000 NA
ATOM      5  C   UNL     1      47.053   6.196  13.143  0.00  0.00    +0.000 A 
ATOM      6  C   UNL     1      46.237   5.070  13.096  0.00  0.00    +0.000 A 
ATOM      7  N   UNL     1      46.274   4.143  14.097  0.00  0.00    +0.000 NA
ATOM      8  H   UNL     1      46.371   2.787  16.004  0.00  0.00    +0.000 HD
ENDROOT
BRANCH   6   9
ATOM      9  C   UNL     1      45.347   4.803  11.955  0.00  0.00    +0.000 A 
ATOM     10  C   UNL     1      45.572   5.343  10.678  0.00  0.00    +0.000 A 
ATOM     11  C   UNL     1      44.764   4.988   9.599  0.00  0.00    +0.000 A 
ATOM     12  C   UNL     1      43.728   4.103   9.822  0.00  0.00    +0.000 A 
ATOM     13  N   UNL     1      43.446   3.577  11.032  0.00  0.00    +0.000 NA
ATOM     14  C   UNL     1      44.254   3.943  12.063  0.00  0.00    +0.000 A 
ENDBRANCH   6   9
BRANCH   1  15
ATOM     15  C   UNL     1      47.560   3.752  17.450  0.00  0.00    +0.000 C 
BRANCH  15  19
ATOM     16  C   UNL     1      51.799   3.246  18.179  0.00  0.00    +0.000 A 
ATOM     17  C   UNL     1      51.108   2.290  17.427  0.00  0.00    +0.000 A 
ATOM     18  C   UNL     1      49.737   2.439  17.194  0.00  0.00    +0.000 A 
ATOM     19  C   UNL     1      49.031   3.528  17.727  0.00  0.00    +0.000 A 
ATOM     20  C   UNL     1      49.740   4.489  18.467  0.00  0.00    +0.000 A 
ATOM     21  C   UNL     1      51.110   4.345  18.700  0.00  0.00    +0.000 A 
BRANCH  16  23
ATOM     22  N   UNL     1      53.666   2.032  19.166  0.00  0.00    +0.000 N 
ATOM     23  C   UNL     1      53.252   3.127  18.463  0.00  0.00    +0.000 C 
ATOM     24  O   UNL     1      54.058   3.953  18.051  0.00  0.00    +0.000 OA
ATOM     25  H   UNL     1      54.668   1.910  19.258  0.00  0.00    +0.000 HD
ATOM     26  H   UNL     1      53.083   1.217  19.294  0.00  0.00    +0.000 HD
ENDBRANCH  16  23
ENDBRANCH  15  19
ENDBRANCH   1  15
TORSDOF 4
ENDMDL
MODEL 7
REMARK VINA RESULT:    -6.327      2.658      7.589
REMARK INTER + INTRA:          -8.363
REMARK INTER:                  -8.049
REMARK INTRA:                  -0.315
REMARK UNBOUND:                -0.556
REMARK  Name = 
REMARK  4 active torsions:
REMARK  status: ('A' for Active; 'I' for Inactive)
REMARK    1  A    between atoms: C_2  and  C_4
REMARK    2  A    between atoms: C_7  and  C_8
REMARK    3  A    between atoms: C_8  and  N_9
REMARK    4  A    between atoms: C_14  and  C_15
REMARK                            x       y       z     vdW  Elec       q    Type
REMARK                         _______ _______ _______ _____ _____    ______ ____
ROOT
ATOM      1  N   UNL     1      46.593   6.768  11.483  0.00  0.00    +0.000 N 
ATOM      2  C   UNL     1      45.652   5.902  10.941  0.00  0.00    +0.000 A 
ATOM      3  C   UNL     1      44.282   5.983  11.196  0.00  0.00    +0.000 A 
ATOM      4  N   UNL     1      43.358   5.164  10.646  0.00  0.00    +0.000 NA
ATOM      5  C   UNL     1      43.860   4.259   9.778  0.00  0.00    +0.000 A 
ATOM      6  C   UNL     1      45.214   4.154   9.475  0.00  0.00    +0.000 A 
ATOM      7  N   UNL     1      46.125   4.982  10.065  0.00  0.00    +0.000 NA
ATOM      8  H   UNL     1      47.519   6.377  11.328  0.00  0.00    +0.000 HD
ENDROOT
BRANCH   6   9
ATOM      9  C   UNL     1      45.715   3.194   8.479  0.00  0.00    +0.000 A 
ATOM     10  C   UNL     1      46.195   3.592   7.220  0.00  0.00    +0.000 A 
ATOM     11  C   UNL     1      46.753   2.664   6.341  0.00  0.00    +0.000 A 
ATOM     12  C   UNL     1      46.807   1.342   6.736  0.00  0.00    +0.000 A 
ATOM     13  N   UNL     1      46.333   0.898   7.918  0.00  0.00    +0.000 NA
ATOM     14  C   UNL     1      45.797   1.828   8.752  0.00  0.00    +0.000 A 
ENDBRANCH   6   9
BRANCH   1  15
ATOM     15  C   UNL     1      46.353   7.330  12.801  0.00  0.00    +0.000 C 
BRANCH  15  19
ATOM     16  C   UNL     1      47.973   4.787  15.911  0.00  0.00    +0.000 A 
ATOM     17  C   UNL     1      46.941   4.310  15.095  0.00  0.00    +0.000 A 
ATOM     18  C   UNL     1      46.404   5.127  14.094  0.00  0.00    +0.000 A 
ATOM     19  C   UNL     1      46.870   6.437  13.908  0.00  0.00    +0.000 A 
ATOM     20  C   UNL     1      47.917   6.898  14.723  0.00  0.00    +0.000 A 
ATOM     21  C   UNL     1      48.458   6.085  15.722  0.00  0.00    +0.000 A 
BRANCH  16  23
ATOM     22  N   UNL     1      47.800   3.729  18.098  0.00  0.00    +0.000 N 
ATOM     23  C   UNL     1      48.568   3.963  16.993  0.00  0.00    +0.000 C 
ATOM     24  O   UNL     1      49.687   3.476  16.888  0.00  0.00    +0.000 OA
ATOM     25  H   UNL     1      48.178   3.079  18.776  0.00  0.00    +0.000 HD
ATOM     26  H   UNL     1      46.803   3.891  18.109  0.00  0.00    +0.000 HD
ENDBRANCH  16  23
ENDBRANCH  15  19
ENDBRANCH   1  15
TORSDOF 4
ENDMDL
MODEL 8
REMARK VINA RESULT:    -6.104      3.716      8.337
REMARK INTER + INTRA:          -8.088
REMARK INTER:                  -7.644
REMARK INTRA:                  -0.444
REMARK UNBOUND:                -0.556
REMARK  Name = 
REMARK  4 active torsions:
REMARK  status: ('A' for Active; 'I' for Inactive)
REMARK    1  A    between atoms: C_2  and  C_4
REMARK    2  A    between atoms: C_7  and  C_8
REMARK    3  A    between atoms: C_8  and  N_9
REMARK    4  A    between atoms: C_14  and  C_15
REMARK                            x       y       z     vdW  Elec       q    Type
REMARK                         _______ _______ _______ _____ _____    ______ ____
ROOT
ATOM      1  N   UNL     1      48.433   7.050  13.633  0.00  0.00    +0.000 N 
ATOM      2  C   UNL     1      47.221   7.200  12.970  0.00  0.00    +0.000 A 
ATOM      3  C   UNL     1      46.468   8.376  12.981  0.00  0.00    +0.000 A 
ATOM      4  N   UNL     1      45.306   8.538  12.311  0.00  0.00    +0.000 NA
ATOM      5  C   UNL     1      44.929   7.467  11.579  0.00  0.00    +0.000 A 
ATOM      6  C   UNL     1      45.657   6.282  11.519  0.00  0.00    +0.000 A 
ATOM      7  N   UNL     1      46.816   6.143  12.225  0.00  0.00    +0.000 NA
ATOM      8  H   UNL     1      48.669   6.061  13.657  0.00  0.00    +0.000 HD
ENDROOT
BRANCH   6   9
ATOM      9  C   UNL     1      45.244   5.159  10.663  0.00  0.00    +0.000 A 
ATOM     10  C   UNL     1      45.607   5.069   9.309  0.00  0.00    +0.000 A 
ATOM     11  C   UNL     1      45.281   3.942   8.555  0.00  0.00    +0.000 A 
ATOM     12  C   UNL     1      44.579   2.924   9.171  0.00  0.00    +0.000 A 
ATOM     13  N   UNL     1      44.177   2.971  10.458  0.00  0.00    +0.000 NA
ATOM     14  C   UNL     1      44.513   4.083  11.165  0.00  0.00    +0.000 A 
ENDBRANCH   6   9
BRANCH   1  15
ATOM     15  C   UNL     1      48.653   7.785  14.867  0.00  0.00    +0.000 C 
BRANCH  15  19
ATOM     16  C   UNL     1      48.796   5.238  18.367  0.00  0.00    +0.000 A 
ATOM     17  C   UNL     1      48.466   4.687  17.124  0.00  0.00    +0.000 A 
ATOM     18  C   UNL     1      48.407   5.503  15.989  0.00  0.00    +0.000 A 
ATOM     19  C   UNL     1      48.653   6.881  16.081  0.00  0.00    +0.000 A 
ATOM     20  C   UNL     1      48.999   7.419  17.332  0.00  0.00    +0.000 A 
ATOM     21  C   UNL     1      49.061   6.607  18.467  0.00  0.00    +0.000 A 
BRANCH  16  23
ATOM     22  N   UNL     1      48.326   3.160  19.548  0.00  0.00    +0.000 N 
ATOM     23  C   UNL     1      48.862   4.415  19.602  0.00  0.00    +0.000 C 
ATOM     24  O   UNL     1      49.408   4.824  20.618  0.00  0.00    +0.000 OA
ATOM     25  H   UNL     1      48.473   2.575  20.361  0.00  0.00    +0.000 HD
ATOM     26  H   UNL     1      48.106   2.702  18.675  0.00  0.00    +0.000 HD
ENDBRANCH  16  23
ENDBRANCH  15  19
ENDBRANCH   1  15
TORSDOF 4
ENDMDL
MODEL 9
REMARK VINA RESULT:    -6.089      3.073      4.735
REMARK INTER + INTRA:          -8.070
REMARK INTER:                  -7.653
REMARK INTRA:                  -0.416
REMARK UNBOUND:                -0.556
REMARK  Name = 
REMARK  4 active torsions:
REMARK  status: ('A' for Active; 'I' for Inactive)
REMARK    1  A    between atoms: C_2  and  C_4
REMARK    2  A    between atoms: C_7  and  C_8
REMARK    3  A    between atoms: C_8  and  N_9
REMARK    4  A    between atoms: C_14  and  C_15
REMARK                            x       y       z     vdW  Elec       q    Type
REMARK                         _______ _______ _______ _____ _____    ______ ____
ROOT
ATOM      1  N   UNL     1      47.602   7.120  14.239  0.00  0.00    +0.000 N 
ATOM      2  C   UNL     1      48.928   7.177  14.649  0.00  0.00    +0.000 A 
ATOM      3  C   UNL     1      49.902   7.959  14.024  0.00  0.00    +0.000 A 
ATOM      4  N   UNL     1      51.186   8.045  14.438  0.00  0.00    +0.000 NA
ATOM      5  C   UNL     1      51.462   7.330  15.551  0.00  0.00    +0.000 A 
ATOM      6  C   UNL     1      50.521   6.554  16.220  0.00  0.00    +0.000 A 
ATOM      7  N   UNL     1      49.237   6.472  15.763  0.00  0.00    +0.000 NA
ATOM      8  H   UNL     1      47.154   6.333  14.701  0.00  0.00    +0.000 HD
ENDROOT
BRANCH   6   9
ATOM      9  C   UNL     1      50.847   5.837  17.463  0.00  0.00    +0.000 A 
ATOM     10  C   UNL     1      51.738   4.752  17.498  0.00  0.00    +0.000 A 
ATOM     11  C   UNL     1      52.098   4.161  18.709  0.00  0.00    +0.000 A 
ATOM     12  C   UNL     1      51.543   4.663  19.870  0.00  0.00    +0.000 A 
ATOM     13  N   UNL     1      50.659   5.681  19.893  0.00  0.00    +0.000 NA
ATOM     14  C   UNL     1      50.331   6.236  18.696  0.00  0.00    +0.000 A 
ENDBRANCH   6   9
BRANCH   1  15
ATOM     15  C   UNL     1      47.295   7.288  12.829  0.00  0.00    +0.000 C 
BRANCH  15  19
ATOM     16  C   UNL     1      44.898   4.007  11.329  0.00  0.00    +0.000 A 
ATOM     17  C   UNL     1      45.123   5.125  10.519  0.00  0.00    +0.000 A 
ATOM     18  C   UNL     1      45.888   6.195  10.998  0.00  0.00    +0.000 A 
ATOM     19  C   UNL     1      46.417   6.175  12.297  0.00  0.00    +0.000 A 
ATOM     20  C   UNL     1      46.198   5.039  13.094  0.00  0.00    +0.000 A 
ATOM     21  C   UNL     1      45.437   3.968  12.619  0.00  0.00    +0.000 A 
BRANCH  16  23
ATOM     22  N   UNL     1      44.587   2.100   9.846  0.00  0.00    +0.000 N 
ATOM     23  C   UNL     1      44.086   2.851  10.870  0.00  0.00    +0.000 C 
ATOM     24  O   UNL     1      43.027   2.555  11.410  0.00  0.00    +0.000 OA
ATOM     25  H   UNL     1      44.075   1.256   9.617  0.00  0.00    +0.000 HD
ATOM     26  H   UNL     1      45.553   2.155   9.556  0.00  0.00    +0.000 HD
ENDBRANCH  16  23
ENDBRANCH  15  19
ENDBRANCH   1  15
TORSDOF 4
ENDMDL
