MODEL 1
REMARK VINA RESULT:    -6.838      0.000      0.000
REMARK INTER + INTRA:          -9.984
REMARK INTER:                  -8.836
REMARK INTRA:                  -1.148
REMARK UNBOUND:                -1.148
REMARK  Name = 
REMARK  6 active torsions:
REMARK  status: ('A' for Active; 'I' for Inactive)
REMARK    1  A    between atoms: C_1  and  C_2
REMARK    2  A    between atoms: C_2  and  N_3
REMARK    3  A    between atoms: C_2  and  C_16
REMARK    4  A    between atoms: C_4  and  C_6
REMARK    5  A    between atoms: C_19  and  C_20
REMARK    6  A    between atoms: C_20  and  N_21
REMARK                            x       y       z     vdW  Elec       q    Type
REMARK                         _______ _______ _______ _____ _____    ______ ____
ROOT
ATOM      1  C   UNL     1      48.374   6.744  18.766  0.00  0.00    +0.000 C 
ATOM      2  C   UNL     1      49.304   6.401  17.602  0.00  0.00    +0.000 C 
ENDROOT
BRANCH   2   3
ATOM      3  C   UNL     1      48.559   5.927  16.360  0.00  0.00    +0.000 A 
ATOM      4  C   UNL     1      47.797   4.756  16.443  0.00  0.00    +0.000 A 
ATOM      5  C   UNL     1      47.062   4.293  15.348  0.00  0.00    +0.000 A 
ATOM      6  C   UNL     1      47.050   4.991  14.134  0.00  0.00    +0.000 A 
ATOM      7  C   UNL     1      47.821   6.160  14.042  0.00  0.00    +0.000 A 
ATOM      8  C   UNL     1      48.573   6.619  15.138  0.00  0.00    +0.000 A 
BRANCH   6   9
ATOM      9  C   UNL     1      46.312   4.416  12.944  0.00  0.00    +0.000 C 
BRANCH   9  10
ATOM     10  N   UNL     1      45.389   5.253  12.179  0.00  0.00    +0.000 NA
ATOM     11  C   UNL     1      44.272   5.855  12.906  0.00  0.00    +0.000 C 
ATOM     12  C   UNL     1      42.973   5.035  12.883  0.00  0.00    +0.000 C 
ATOM     13  O   UNL     1      42.599   4.648  11.555  0.00  0.00    +0.000 OA
ATOM     14  C   UNL     1      43.657   3.934  10.905  0.00  0.00    +0.000 C 
ATOM     15  C   UNL     1      44.954   4.756  10.872  0.00  0.00    +0.000 C 
ENDBRANCH   9  10
ENDBRANCH   6   9
ENDBRANCH   2   3
BRANCH   2  16
ATOM     16  N   UNL     1      50.292   5.415  17.991  0.00  0.00    +0.000 N 
ATOM     17  C   UNL     1      51.561   5.372  17.478  0.00  0.00    +0.000 C 
ATOM     18  O   UNL     1      51.938   6.160  16.616  0.00  0.00    +0.000 OA
ATOM     19  H   UNL     1      50.030   4.794  18.747  0.00  0.00    +0.000 HD
BRANCH  17  20
ATOM     20  C   UNL     1      52.452   4.318  17.995  0.00  0.00    +0.000 A 
ATOM     21  C   UNL     1      53.605   4.680  18.681  0.00  0.00    +0.000 A 
ATOM     22  S   UNL     1      54.551   3.355  19.188  0.00  0.00    +0.000 S 
ATOM     23  C   UNL     1      53.458   2.245  18.507  0.00  0.00    +0.000 A 
ATOM     24  N   UNL     1      53.694   0.907  18.575  0.00  0.00    +0.000 NA
ATOM     25  C   UNL     1      52.796   0.174  18.009  0.00  0.00    +0.000 A 
ATOM     26  N   UNL     1      51.674   0.657  17.391  0.00  0.00    +0.000 N 
ATOM     27  C   UNL     1      51.371   1.996  17.340  0.00  0.00    +0.000 A 
ATOM     28  O   UNL     1      50.313   2.376  16.849  0.00  0.00    +0.000 OA
ATOM     29  C   UNL     1      52.372   2.873  17.921  0.00  0.00    +0.000 A 
ATOM     30  H   UNL     1      50.995   0.031  16.986  0.00  0.00    +0.000 HD
ENDBRANCH  17  20
ENDBRANCH   2  16
TORSDOF 5
ENDMDL
MODEL 2
REMARK VINA RESULT:    -6.599      3.395      4.833
REMARK INTER + INTRA:          -9.676
REMARK INTER:                  -9.326
REMARK INTRA:                  -0.350
REMARK UNBOUND:                -1.148
REMARK  Name = 
REMARK  6 active torsions:
REMARK  status: ('A' for Active; 'I' for Inactive)
REMARK    1  A    between atoms: C_1  and  C_2
REMARK    2  A    between atoms: C_2  and  N_3
REMARK    3  A    between atoms: C_2  and  C_16
REMARK    4  A    between atoms: C_4  and  C_6
REMARK    5  A    between atoms: C_19  and  C_20
REMARK    6  A    between atoms: C_20  and  N_21
REMARK                            x       y       z     vdW  Elec       q    Type
REMARK                         _______ _______ _______ _____ _____    ______ ____
ROOT
ATOM      1  C   UNL     1      46.252   8.839  13.012  0.00  0.00    +0.000 C 
ATOM      2  C   UNL     1      46.982   7.496  12.977  0.00  0.00    +0.000 C 
ENDROOT
BRANCH   2   3
ATOM      3  C   UNL     1      46.167   6.389  12.319  0.00  0.00    +0.000 A 
ATOM      4  C   UNL     1      46.464   5.059  12.639  0.00  0.00    +0.000 A 
ATOM      5  C   UNL     1      45.726   4.003  12.097  0.00  0.00    +0.000 A 
ATOM      6  C   UNL     1      44.655   4.238  11.226  0.00  0.00    +0.000 A 
ATOM      7  C   UNL     1      44.359   5.569  10.893  0.00  0.00    +0.000 A 
ATOM      8  C   UNL     1      45.110   6.631  11.427  0.00  0.00    +0.000 A 
BRANCH   6   9
ATOM      9  C   UNL     1      43.932   3.068  10.591  0.00  0.00    +0.000 C 
BRANCH   9  10
ATOM     10  N   UNL     1      44.024   2.846   9.149  0.00  0.00    +0.000 NA
ATOM     11  C   UNL     1      44.565   1.562   8.703  0.00  0.00    +0.000 C 
ATOM     12  C   UNL     1      46.078   1.561   8.432  0.00  0.00    +0.000 C 
ATOM     13  O   UNL     1      46.475   2.637   7.573  0.00  0.00    +0.000 OA
ATOM     14  C   UNL     1      46.058   3.903   8.098  0.00  0.00    +0.000 C 
ATOM     15  C   UNL     1      44.541   3.944   8.330  0.00  0.00    +0.000 C 
ENDBRANCH   9  10
ENDBRANCH   6   9
ENDBRANCH   2   3
BRANCH   2  16
ATOM     16  N   UNL     1      47.391   7.085  14.305  0.00  0.00    +0.000 N 
ATOM     17  C   UNL     1      48.690   6.825  14.650  0.00  0.00    +0.000 C 
ATOM     18  O   UNL     1      49.603   6.893  13.832  0.00  0.00    +0.000 OA
ATOM     19  H   UNL     1      46.669   7.084  15.015  0.00  0.00    +0.000 HD
BRANCH  17  20
ATOM     20  C   UNL     1      48.942   6.438  16.049  0.00  0.00    +0.000 A 
ATOM     21  C   UNL     1      49.677   7.287  16.868  0.00  0.00    +0.000 A 
ATOM     22  S   UNL     1      49.915   6.690  18.447  0.00  0.00    +0.000 S 
ATOM     23  C   UNL     1      49.047   5.271  18.099  0.00  0.00    +0.000 A 
ATOM     24  N   UNL     1      48.889   4.303  19.043  0.00  0.00    +0.000 NA
ATOM     25  C   UNL     1      48.222   3.272  18.649  0.00  0.00    +0.000 A 
ATOM     26  N   UNL     1      47.685   3.124  17.398  0.00  0.00    +0.000 N 
ATOM     27  C   UNL     1      47.778   4.095  16.429  0.00  0.00    +0.000 A 
ATOM     28  O   UNL     1      47.209   3.954  15.352  0.00  0.00    +0.000 OA
ATOM     29  C   UNL     1      48.560   5.260  16.803  0.00  0.00    +0.000 A 
ATOM     30  H   UNL     1      47.152   2.304  17.156  0.00  0.00    +0.000 HD
ENDBRANCH  17  20
ENDBRANCH   2  16
TORSDOF 5
ENDMDL
MODEL 3
REMARK VINA RESULT:    -6.433      4.048      8.694
REMARK INTER + INTRA:          -9.461
REMARK INTER:                  -8.414
REMARK INTRA:                  -1.047
REMARK UNBOUND:                -1.148
REMARK  Name = 
REMARK  6 active torsions:
REMARK  status: ('A' for Active; 'I' for Inactive)
REMARK    1  A    between atoms: C_1  and  C_2
REMARK    2  A    between atoms: C_2  and  N_3
REMARK    3  A    between atoms: C_2  and  C_16
REMARK    4  A    between atoms: C_4  and  C_6
REMARK    5  A    between atoms: C_19  and  C_20
REMARK    6  A    between atoms: C_20  and  N_21
REMARK                            x       y       z     vdW  Elec       q    Type
REMARK                         _______ _______ _______ _____ _____    ______ ____
ROOT
ATOM      1  C   UNL     1      49.101   7.904  11.371  0.00  0.00    +0.000 C 
ATOM      2  C   UNL     1      47.961   7.828  12.387  0.00  0.00    +0.000 C 
ENDROOT
BRANCH   2   3
ATOM      3  C   UNL     1      48.445   7.842  13.831  0.00  0.00    +0.000 A 
ATOM      4  C   UNL     1      47.909   8.792  14.709  0.00  0.00    +0.000 A 
ATOM      5  C   UNL     1      48.286   8.828  16.054  0.00  0.00    +0.000 A 
ATOM      6  C   UNL     1      49.203   7.907  16.576  0.00  0.00    +0.000 A 
ATOM      7  C   UNL     1      49.753   6.959  15.699  0.00  0.00    +0.000 A 
ATOM      8  C   UNL     1      49.385   6.931  14.342  0.00  0.00    +0.000 A 
BRANCH   6   9
ATOM      9  C   UNL     1      49.653   8.029  18.017  0.00  0.00    +0.000 C 
BRANCH   9  10
ATOM     10  N   UNL     1      49.193   7.062  19.012  0.00  0.00    +0.000 NA
ATOM     11  C   UNL     1      50.107   5.975  19.363  0.00  0.00    +0.000 C 
ATOM     12  C   UNL     1      49.913   4.685  18.551  0.00  0.00    +0.000 C 
ATOM     13  O   UNL     1      48.547   4.252  18.541  0.00  0.00    +0.000 OA
ATOM     14  C   UNL     1      47.678   5.285  18.060  0.00  0.00    +0.000 C 
ATOM     15  C   UNL     1      47.819   6.570  18.889  0.00  0.00    +0.000 C 
ENDBRANCH   9  10
ENDBRANCH   6   9
ENDBRANCH   2   3
BRANCH   2  16
ATOM     16  N   UNL     1      47.130   6.664  12.157  0.00  0.00    +0.000 N 
ATOM     17  C   UNL     1      45.763   6.682  12.239  0.00  0.00    +0.000 C 
ATOM     18  O   UNL     1      45.146   7.697  12.550  0.00  0.00    +0.000 OA
ATOM     19  H   UNL     1      47.606   5.830  11.834  0.00  0.00    +0.000 HD
BRANCH  17  20
ATOM     20  C   UNL     1      45.062   5.417  11.954  0.00  0.00    +0.000 A 
ATOM     21  C   UNL     1      44.315   4.813  12.959  0.00  0.00    +0.000 A 
ATOM     22  S   UNL     1      43.591   3.342  12.491  0.00  0.00    +0.000 S 
ATOM     23  C   UNL     1      44.251   3.452  10.929  0.00  0.00    +0.000 A 
ATOM     24  N   UNL     1      44.025   2.475  10.009  0.00  0.00    +0.000 NA
ATOM     25  C   UNL     1      44.591   2.671   8.867  0.00  0.00    +0.000 A 
ATOM     26  N   UNL     1      45.355   3.764   8.555  0.00  0.00    +0.000 N 
ATOM     27  C   UNL     1      45.570   4.797   9.436  0.00  0.00    +0.000 A 
ATOM     28  O   UNL     1      46.192   5.795   9.084  0.00  0.00    +0.000 OA
ATOM     29  C   UNL     1      44.994   4.607  10.755  0.00  0.00    +0.000 A 
ATOM     30  H   UNL     1      45.753   3.873   7.635  0.00  0.00    +0.000 HD
ENDBRANCH  17  20
ENDBRANCH   2  16
TORSDOF 5
ENDMDL
MODEL 4
REMARK VINA RESULT:    -6.422      3.025      3.988
REMARK INTER + INTRA:          -9.447
REMARK INTER:                  -8.197
REMARK INTRA:                  -1.250
REMARK UNBOUND:                -1.148
REMARK  Name = 
REMARK  6 active torsions:
REMARK  status: ('A' for Active; 'I' for Inactive)
REMARK    1  A    between atoms: C_1  and  C_2
REMARK    2  A    between atoms: C_2  and  N_3
REMARK    3  A    between atoms: C_2  and  C_16
REMARK    4  A    between atoms: C_4  and  C_6
REMARK    5  A    between atoms: C_19  and  C_20
REMARK    6  A    between atoms: C_20  and  N_21
REMARK                            x       y       z     vdW  Elec       q    Type
REMARK                         _______ _______ _______ _____ _____    ______ ____
ROOT
ATOM      1  C   UNL     1      48.111   9.854  14.295  0.00  0.00    +0.000 C 
ATOM      2  C   UNL     1      48.294   8.393  13.882  0.00  0.00    +0.000 C 
ENDROOT
BRANCH   2   3
ATOM      3  C   UNL     1      47.175   7.881  12.984  0.00  0.00    +0.000 A 
ATOM      4  C   UNL     1      47.397   6.719  12.235  0.00  0.00    +0.000 A 
ATOM      5  C   UNL     1      46.395   6.181  11.423  0.00  0.00    +0.000 A 
ATOM      6  C   UNL     1      45.130   6.774  11.340  0.00  0.00    +0.000 A 
ATOM      7  C   UNL     1      44.905   7.945  12.080  0.00  0.00    +0.000 A 
ATOM      8  C   UNL     1      45.917   8.496  12.886  0.00  0.00    +0.000 A 
BRANCH   6   9
ATOM      9  C   UNL     1      44.097   6.213  10.386  0.00  0.00    +0.000 C 
BRANCH   9  10
ATOM     10  N   UNL     1      43.265   5.081  10.790  0.00  0.00    +0.000 NA
ATOM     11  C   UNL     1      42.650   5.141  12.116  0.00  0.00    +0.000 C 
ATOM     12  C   UNL     1      43.466   4.472  13.234  0.00  0.00    +0.000 C 
ATOM     13  O   UNL     1      43.866   3.140  12.890  0.00  0.00    +0.000 OA
ATOM     14  C   UNL     1      44.592   3.118  11.654  0.00  0.00    +0.000 C 
ATOM     15  C   UNL     1      43.775   3.736  10.510  0.00  0.00    +0.000 C 
ENDBRANCH   9  10
ENDBRANCH   6   9
ENDBRANCH   2   3
BRANCH   2  16
ATOM     16  N   UNL     1      48.430   7.533  15.040  0.00  0.00    +0.000 N 
ATOM     17  C   UNL     1      49.624   7.013  15.461  0.00  0.00    +0.000 C 
ATOM     18  O   UNL     1      50.671   7.221  14.853  0.00  0.00    +0.000 OA
ATOM     19  H   UNL     1      47.595   7.399  15.598  0.00  0.00    +0.000 HD
BRANCH  17  20
ATOM     20  C   UNL     1      49.595   6.173  16.671  0.00  0.00    +0.000 A 
ATOM     21  C   UNL     1      50.489   6.435  17.702  0.00  0.00    +0.000 A 
ATOM     22  S   UNL     1      50.359   5.361  19.019  0.00  0.00    +0.000 S 
ATOM     23  C   UNL     1      49.105   4.500  18.262  0.00  0.00    +0.000 A 
ATOM     24  N   UNL     1      48.542   3.417  18.865  0.00  0.00    +0.000 NA
ATOM     25  C   UNL     1      47.610   2.846  18.181  0.00  0.00    +0.000 A 
ATOM     26  N   UNL     1      47.179   3.265  16.951  0.00  0.00    +0.000 N 
ATOM     27  C   UNL     1      47.684   4.380  16.326  0.00  0.00    +0.000 A 
ATOM     28  O   UNL     1      47.208   4.767  15.264  0.00  0.00    +0.000 OA
ATOM     29  C   UNL     1      48.770   5.037  17.031  0.00  0.00    +0.000 A 
ATOM     30  H   UNL     1      46.427   2.790  16.475  0.00  0.00    +0.000 HD
ENDBRANCH  17  20
ENDBRANCH   2  16
TORSDOF 5
ENDMDL
MODEL 5
REMARK VINA RESULT:    -6.385      4.330      8.559
REMARK INTER + INTRA:          -9.400
REMARK INTER:                  -8.421
REMARK INTRA:                  -0.979
REMARK UNBOUND:                -1.148
REMARK  Name = 
REMARK  6 active torsions:
REMARK  status: ('A' for Active; 'I' for Inactive)
REMARK    1  A    between atoms: C_1  and  C_2
REMARK    2  A    between atoms: C_2  and  N_3
REMARK    3  A    between atoms: C_2  and  C_16
REMARK    4  A    between atoms: C_4  and  C_6
REMARK    5  A    between atoms: C_19  and  C_20
REMARK    6  A    between atoms: C_20  and  N_21
REMARK                            x       y       z     vdW  Elec       q    Type
REMARK                         _______ _______ _______ _____ _____    ______ ____
ROOT
ATOM      1  C   UNL     1      49.650   8.116  11.485  0.00  0.00    +0.000 C 
ATOM      2  C   UNL     1      48.505   7.673  12.395  0.00  0.00    +0.000 C 
ENDROOT
BRANCH   2   3
ATOM      3  C   UNL     1      48.975   7.209  13.767  0.00  0.00    +0.000 A 
ATOM      4  C   UNL     1      50.200   7.684  14.252  0.00  0.00    +0.000 A 
ATOM      5  C   UNL     1      50.664   7.322  15.519  0.00  0.00    +0.000 A 
ATOM      6  C   UNL     1      49.916   6.485  16.355  0.00  0.00    +0.000 A 
ATOM      7  C   UNL     1      48.693   5.997  15.871  0.00  0.00    +0.000 A 
ATOM      8  C   UNL     1      48.231   6.348  14.590  0.00  0.00    +0.000 A 
BRANCH   6   9
ATOM      9  C   UNL     1      50.490   6.046  17.687  0.00  0.00    +0.000 C 
BRANCH   9  10
ATOM     10  N   UNL     1      49.945   6.585  18.932  0.00  0.00    +0.000 NA
ATOM     11  C   UNL     1      48.926   5.790  19.618  0.00  0.00    +0.000 C 
ATOM     12  C   UNL     1      47.477   6.150  19.254  0.00  0.00    +0.000 C 
ATOM     13  O   UNL     1      47.223   7.555  19.366  0.00  0.00    +0.000 OA
ATOM     14  C   UNL     1      48.145   8.315  18.575  0.00  0.00    +0.000 C 
ATOM     15  C   UNL     1      49.601   8.008  18.957  0.00  0.00    +0.000 C 
ENDBRANCH   9  10
ENDBRANCH   6   9
ENDBRANCH   2   3
BRANCH   2  16
ATOM     16  N   UNL     1      47.708   6.636  11.770  0.00  0.00    +0.000 N 
ATOM     17  C   UNL     1      46.364   6.751  11.538  0.00  0.00    +0.000 C 
ATOM     18  O   UNL     1      45.730   7.745  11.881  0.00  0.00    +0.000 OA
ATOM     19  H   UNL     1      48.215   5.833  11.417  0.00  0.00    +0.000 HD
BRANCH  17  20
ATOM     20  C   UNL     1      45.704   5.614  10.873  0.00  0.00    +0.000 A 
ATOM     21  C   UNL     1      45.761   5.509   9.488  0.00  0.00    +0.000 A 
ATOM     22  S   UNL     1      44.924   4.162   8.861  0.00  0.00    +0.000 S 
ATOM     23  C   UNL     1      44.449   3.667  10.416  0.00  0.00    +0.000 A 
ATOM     24  N   UNL     1      43.675   2.561  10.586  0.00  0.00    +0.000 NA
ATOM     25  C   UNL     1      43.373   2.300  11.813  0.00  0.00    +0.000 A 
ATOM     26  N   UNL     1      43.786   3.039  12.889  0.00  0.00    +0.000 N 
ATOM     27  C   UNL     1      44.607   4.134  12.769  0.00  0.00    +0.000 A 
ATOM     28  O   UNL     1      45.020   4.714  13.768  0.00  0.00    +0.000 OA
ATOM     29  C   UNL     1      44.941   4.502  11.405  0.00  0.00    +0.000 A 
ATOM     30  H   UNL     1      43.537   2.770  13.829  0.00  0.00    +0.000 HD
ENDBRANCH  17  20
ENDBRANCH   2  16
TORSDOF 5
ENDMDL
MODEL 6
REMARK VINA RESULT:    -6.187      6.481      9.439
REMARK INTER + INTRA:          -9.144
REMARK INTER:                  -8.244
REMARK INTRA:                  -0.900
REMARK UNBOUND:                -1.148
REMARK  Name = 
REMARK  6 active torsions:
REMARK  status: ('A' for Active; 'I' for Inactive)
REMARK    1  A    between atoms: C_1  and  C_2
REMARK    2  A    between atoms: C_2  and  N_3
REMARK    3  A    between atoms: C_2  and  C_16
REMARK    4  A    between atoms: C_4  and  C_6
REMARK    5  A    between atoms: C_19  and  C_20
REMARK    6  A    between atoms: C_20  and  N_21
REMARK                            x       y       z     vdW  Elec       q    Type
REMARK                         _______ _______ _______ _____ _____    ______ ____
ROOT
ATOM      1  C   UNL     1      45.259   9.421  12.230  0.00  0.00    +0.000 C 
ATOM      2  C   UNL     1      46.096   8.196  12.595  0.00  0.00    +0.000 C 
ENDROOT
BRANCH   2   3
ATOM      3  C   UNL     1      47.562   8.333  12.203  0.00  0.00    +0.000 A 
ATOM      4  C   UNL     1      48.042   9.596  11.837  0.00  0.00    +0.000 A 
ATOM      5  C   UNL     1      49.385   9.790  11.504  0.00  0.00    +0.000 A 
ATOM      6  C   UNL     1      50.302   8.733  11.540  0.00  0.00    +0.000 A 
ATOM      7  C   UNL     1      49.825   7.462  11.896  0.00  0.00    +0.000 A 
ATOM      8  C   UNL     1      48.470   7.263  12.217  0.00  0.00    +0.000 A 
BRANCH   6   9
ATOM      9  C   UNL     1      51.731   8.961  11.092  0.00  0.00    +0.000 C 
BRANCH   9  10
ATOM     10  N   UNL     1      52.575   7.825  10.728  0.00  0.00    +0.000 NA
ATOM     11  C   UNL     1      53.988   7.894  11.100  0.00  0.00    +0.000 C 
ATOM     12  C   UNL     1      54.912   8.463  10.012  0.00  0.00    +0.000 C 
ATOM     13  O   UNL     1      54.723   7.815   8.747  0.00  0.00    +0.000 OA
ATOM     14  C   UNL     1      53.354   7.880   8.330  0.00  0.00    +0.000 C 
ATOM     15  C   UNL     1      52.415   7.270   9.382  0.00  0.00    +0.000 C 
ENDBRANCH   9  10
ENDBRANCH   6   9
ENDBRANCH   2   3
BRANCH   2  16
ATOM     16  N   UNL     1      45.542   6.989  12.015  0.00  0.00    +0.000 N 
ATOM     17  C   UNL     1      45.452   5.799  12.686  0.00  0.00    +0.000 C 
ATOM     18  O   UNL     1      45.874   5.668  13.831  0.00  0.00    +0.000 OA
ATOM     19  H   UNL     1      45.127   7.084  11.096  0.00  0.00    +0.000 HD
BRANCH  17  20
ATOM     20  C   UNL     1      44.842   4.670  11.960  0.00  0.00    +0.000 A 
ATOM     21  C   UNL     1      44.015   3.789  12.646  0.00  0.00    +0.000 A 
ATOM     22  S   UNL     1      43.411   2.517  11.684  0.00  0.00    +0.000 S 
ATOM     23  C   UNL     1      44.234   3.092  10.313  0.00  0.00    +0.000 A 
ATOM     24  N   UNL     1      44.154   2.432   9.126  0.00  0.00    +0.000 NA
ATOM     25  C   UNL     1      44.834   2.964   8.168  0.00  0.00    +0.000 A 
ATOM     26  N   UNL     1      45.580   4.106   8.285  0.00  0.00    +0.000 N 
ATOM     27  C   UNL     1      45.652   4.832   9.449  0.00  0.00    +0.000 A 
ATOM     28  O   UNL     1      46.265   5.894   9.483  0.00  0.00    +0.000 OA
ATOM     29  C   UNL     1      44.942   4.253  10.576  0.00  0.00    +0.000 A 
ATOM     30  H   UNL     1      46.072   4.487   7.491  0.00  0.00    +0.000 HD
ENDBRANCH  17  20
ENDBRANCH   2  16
TORSDOF 5
ENDMDL
MODEL 7
REMARK VINA RESULT:    -6.176      3.539      8.758
REMARK INTER + INTRA:          -9.129
REMARK INTER:                  -8.220
REMARK INTRA:                  -0.908
REMARK UNBOUND:                -1.148
REMARK  Name = 
REMARK  6 active torsions:
REMARK  status: ('A' for Active; 'I' for Inactive)
REMARK    1  A    between atoms: C_1  and  C_2
REMARK    2  A    between atoms: C_2  and  N_3
REMARK    3  A    between atoms: C_2  and  C_16
REMARK    4  A    between atoms: C_4  and  C_6
REMARK    5  A    between atoms: C_19  and  C_20
REMARK    6  A    between atoms: C_20  and  N_21
REMARK                            x       y       z     vdW  Elec       q    Type
REMARK                         _______ _______ _______ _____ _____    ______ ____
ROOT
ATOM      1  C   UNL     1      49.527   7.685  12.398  0.00  0.00    +0.000 C 
ATOM      2  C   UNL     1      48.208   7.344  13.091  0.00  0.00    +0.000 C 
ENDROOT
BRANCH   2   3
ATOM      3  C   UNL     1      48.391   6.866  14.525  0.00  0.00    +0.000 A 
ATOM      4  C   UNL     1      47.875   5.615  14.886  0.00  0.00    +0.000 A 
ATOM      5  C   UNL     1      48.045   5.108  16.177  0.00  0.00    +0.000 A 
ATOM      6  C   UNL     1      48.751   5.824  17.151  0.00  0.00    +0.000 A 
ATOM      7  C   UNL     1      49.262   7.083  16.799  0.00  0.00    +0.000 A 
ATOM      8  C   UNL     1      49.078   7.601  15.505  0.00  0.00    +0.000 A 
BRANCH   6   9
ATOM      9  C   UNL     1      48.843   5.282  18.563  0.00  0.00    +0.000 C 
BRANCH   9  10
ATOM     10  N   UNL     1      49.989   4.467  18.961  0.00  0.00    +0.000 NA
ATOM     11  C   UNL     1      50.815   4.963  20.061  0.00  0.00    +0.000 C 
ATOM     12  C   UNL     1      52.026   5.804  19.628  0.00  0.00    +0.000 C 
ATOM     13  O   UNL     1      52.811   5.147  18.625  0.00  0.00    +0.000 OA
ATOM     14  C   UNL     1      52.013   4.792  17.490  0.00  0.00    +0.000 C 
ATOM     15  C   UNL     1      50.823   3.909  17.893  0.00  0.00    +0.000 C 
ENDBRANCH   9  10
ENDBRANCH   6   9
ENDBRANCH   2   3
BRANCH   2  16
ATOM     16  N   UNL     1      47.456   6.362  12.336  0.00  0.00    +0.000 N 
ATOM     17  C   UNL     1      46.305   6.652  11.652  0.00  0.00    +0.000 C 
ATOM     18  O   UNL     1      45.812   7.776  11.662  0.00  0.00    +0.000 OA
ATOM     19  H   UNL     1      47.874   5.443  12.256  0.00  0.00    +0.000 HD
BRANCH  17  20
ATOM     20  C   UNL     1      45.672   5.544  10.916  0.00  0.00    +0.000 A 
ATOM     21  C   UNL     1      45.737   5.526   9.527  0.00  0.00    +0.000 A 
ATOM     22  S   UNL     1      44.931   4.203   8.816  0.00  0.00    +0.000 S 
ATOM     23  C   UNL     1      44.460   3.603  10.335  0.00  0.00    +0.000 A 
ATOM     24  N   UNL     1      43.709   2.473  10.434  0.00  0.00    +0.000 NA
ATOM     25  C   UNL     1      43.409   2.131  11.640  0.00  0.00    +0.000 A 
ATOM     26  N   UNL     1      43.802   2.812  12.762  0.00  0.00    +0.000 N 
ATOM     27  C   UNL     1      44.600   3.929  12.713  0.00  0.00    +0.000 A 
ATOM     28  O   UNL     1      44.997   4.456  13.747  0.00  0.00    +0.000 OA
ATOM     29  C   UNL     1      44.931   4.387  11.375  0.00  0.00    +0.000 A 
ATOM     30  H   UNL     1      43.555   2.481  13.682  0.00  0.00    +0.000 HD
ENDBRANCH  17  20
ENDBRANCH   2  16
TORSDOF 5
ENDMDL
MODEL 8
REMARK VINA RESULT:    -5.845      6.022      9.329
REMARK INTER + INTRA:          -8.702
REMARK INTER:                  -7.766
REMARK INTRA:                  -0.936
REMARK UNBOUND:                -1.148
REMARK  Name = 
REMARK  6 active torsions:
REMARK  status: ('A' for Active; 'I' for Inactive)
REMARK    1  A    between atoms: C_1  and  C_2
REMARK    2  A    between atoms: C_2  and  N_3
REMARK    3  A    between atoms: C_2  and  C_16
REMARK    4  A    between atoms: C_4  and  C_6
REMARK    5  A    between atoms: C_19  and  C_20
REMARK    6  A    between atoms: C_20  and  N_21
REMARK                            x       y       z     vdW  Elec       q    Type
REMARK                         _______ _______ _______ _____ _____    ______ ____
ROOT
ATOM      1  C   UNL     1      48.288  10.778  11.189  0.00  0.00    +0.000 C 
ATOM      2  C   UNL     1      48.930   9.606  11.932  0.00  0.00    +0.000 C 
ENDROOT
BRANCH   2   3
ATOM      3  C   UNL     1      50.286   9.208  11.364  0.00  0.00    +0.000 A 
ATOM      4  C   UNL     1      50.598   7.846  11.264  0.00  0.00    +0.000 A 
ATOM      5  C   UNL     1      51.811   7.421  10.716  0.00  0.00    +0.000 A 
ATOM      6  C   UNL     1      52.751   8.339  10.234  0.00  0.00    +0.000 A 
ATOM      7  C   UNL     1      52.450   9.705  10.340  0.00  0.00    +0.000 A 
ATOM      8  C   UNL     1      51.236  10.135  10.905  0.00  0.00    +0.000 A 
BRANCH   6   9
ATOM      9  C   UNL     1      54.090   7.845   9.725  0.00  0.00    +0.000 C 
BRANCH   9  10
ATOM     10  N   UNL     1      54.264   7.531   8.308  0.00  0.00    +0.000 NA
ATOM     11  C   UNL     1      53.148   7.831   7.412  0.00  0.00    +0.000 C 
ATOM     12  C   UNL     1      52.178   6.662   7.179  0.00  0.00    +0.000 C 
ATOM     13  O   UNL     1      52.860   5.460   6.799  0.00  0.00    +0.000 OA
ATOM     14  C   UNL     1      53.858   5.102   7.762  0.00  0.00    +0.000 C 
ATOM     15  C   UNL     1      54.869   6.239   7.975  0.00  0.00    +0.000 C 
ENDBRANCH   9  10
ENDBRANCH   6   9
ENDBRANCH   2   3
BRANCH   2  16
ATOM     16  N   UNL     1      48.049   8.455  11.958  0.00  0.00    +0.000 N 
ATOM     17  C   UNL     1      47.570   7.895  13.112  0.00  0.00    +0.000 C 
ATOM     18  O   UNL     1      47.887   8.322  14.219  0.00  0.00    +0.000 OA
ATOM     19  H   UNL     1      47.719   8.123  11.060  0.00  0.00    +0.000 HD
BRANCH  17  20
ATOM     20  C   UNL     1      46.666   6.741  12.967  0.00  0.00    +0.000 A 
ATOM     21  C   UNL     1      47.041   5.513  13.498  0.00  0.00    +0.000 A 
ATOM     22  S   UNL     1      45.912   4.266  13.222  0.00  0.00    +0.000 S 
ATOM     23  C   UNL     1      44.877   5.317  12.378  0.00  0.00    +0.000 A 
ATOM     24  N   UNL     1      43.710   4.864  11.845  0.00  0.00    +0.000 NA
ATOM     25  C   UNL     1      43.023   5.758  11.218  0.00  0.00    +0.000 A 
ATOM     26  N   UNL     1      43.391   7.071  11.086  0.00  0.00    +0.000 N 
ATOM     27  C   UNL     1      44.536   7.582  11.648  0.00  0.00    +0.000 A 
ATOM     28  O   UNL     1      44.782   8.782  11.574  0.00  0.00    +0.000 OA
ATOM     29  C   UNL     1      45.373   6.609  12.326  0.00  0.00    +0.000 A 
ATOM     30  H   UNL     1      42.798   7.729  10.604  0.00  0.00    +0.000 HD
ENDBRANCH  17  20
ENDBRANCH   2  16
TORSDOF 5
ENDMDL
MODEL 9
REMARK VINA RESULT:    -5.680      5.833      9.001
REMARK INTER + INTRA:          -8.488
REMARK INTER:                  -8.170
REMARK INTRA:                  -0.318
REMARK UNBOUND:                -1.148
REMARK  Name = 
REMARK  6 active torsions:
REMARK  status: ('A' for Active; 'I' for Inactive)
REMARK    1  A    between atoms: C_1  and  C_2
REMARK    2  A    between atoms: C_2  and  N_3
REMARK    3  A    between atoms: C_2  and  C_16
REMARK    4  A    between atoms: C_4  and  C_6
REMARK    5  A    between atoms: C_19  and  C_20
REMARK    6  A    between atoms: C_20  and  N_21
REMARK                            x       y       z     vdW  Elec       q    Type
REMARK                         _______ _______ _______ _____ _____    ______ ____
ROOT
ATOM      1  C   UNL     1      48.584   9.389  14.715  0.00  0.00    +0.000 C 
ATOM      2  C   UNL     1      48.797   8.055  13.999  0.00  0.00    +0.000 C 
ENDROOT
BRANCH   2   3
ATOM      3  C   UNL     1      49.951   8.086  13.006  0.00  0.00    +0.000 A 
ATOM      4  C   UNL     1      51.220   8.460  13.465  0.00  0.00    +0.000 A 
ATOM      5  C   UNL     1      52.324   8.470  12.609  0.00  0.00    +0.000 A 
ATOM      6  C   UNL     1      52.205   8.092  11.266  0.00  0.00    +0.000 A 
ATOM      7  C   UNL     1      50.934   7.726  10.797  0.00  0.00    +0.000 A 
ATOM      8  C   UNL     1      49.819   7.730  11.654  0.00  0.00    +0.000 A 
BRANCH   6   9
ATOM      9  C   UNL     1      53.405   8.196  10.347  0.00  0.00    +0.000 C 
BRANCH   9  10
ATOM     10  N   UNL     1      54.373   7.103  10.279  0.00  0.00    +0.000 NA
ATOM     11  C   UNL     1      55.635   7.367   9.589  0.00  0.00    +0.000 C 
ATOM     12  C   UNL     1      55.647   6.985   8.100  0.00  0.00    +0.000 C 
ATOM     13  O   UNL     1      55.189   5.645   7.882  0.00  0.00    +0.000 OA
ATOM     14  C   UNL     1      53.886   5.443   8.444  0.00  0.00    +0.000 C 
ATOM     15  C   UNL     1      53.864   5.771   9.944  0.00  0.00    +0.000 C 
ENDBRANCH   9  10
ENDBRANCH   6   9
ENDBRANCH   2   3
BRANCH   2  16
ATOM     16  N   UNL     1      47.586   7.617  13.334  0.00  0.00    +0.000 N 
ATOM     17  C   UNL     1      47.098   6.340  13.415  0.00  0.00    +0.000 C 
ATOM     18  O   UNL     1      47.683   5.461  14.041  0.00  0.00    +0.000 OA
ATOM     19  H   UNL     1      47.048   8.335  12.865  0.00  0.00    +0.000 HD
BRANCH  17  20
ATOM     20  C   UNL     1      45.842   6.061  12.697  0.00  0.00    +0.000 A 
ATOM     21  C   UNL     1      45.124   7.117  12.146  0.00  0.00    +0.000 A 
ATOM     22  S   UNL     1      43.678   6.642  11.377  0.00  0.00    +0.000 S 
ATOM     23  C   UNL     1      43.952   5.008  11.752  0.00  0.00    +0.000 A 
ATOM     24  N   UNL     1      43.056   4.051  11.386  0.00  0.00    +0.000 NA
ATOM     25  C   UNL     1      43.374   2.853  11.741  0.00  0.00    +0.000 A 
ATOM     26  N   UNL     1      44.516   2.520  12.421  0.00  0.00    +0.000 N 
ATOM     27  C   UNL     1      45.470   3.445  12.769  0.00  0.00    +0.000 A 
ATOM     28  O   UNL     1      46.516   3.088  13.302  0.00  0.00    +0.000 OA
ATOM     29  C   UNL     1      45.142   4.819  12.435  0.00  0.00    +0.000 A 
ATOM     30  H   UNL     1      44.721   1.560  12.650  0.00  0.00    +0.000 HD
ENDBRANCH  17  20
ENDBRANCH   2  16
TORSDOF 5
ENDMDL
