MODEL 1
REMARK VINA RESULT:    -8.185      0.000      0.000
REMARK INTER + INTRA:         -13.244
REMARK INTER:                 -12.013
REMARK INTRA:                  -1.231
REMARK UNBOUND:                -1.231
REMARK  Name = 
REMARK  9 active torsions:
REMARK  status: ('A' for Active; 'I' for Inactive)
REMARK    1  A    between atoms: C_1  and  O_2
REMARK    2  A    between atoms: O_2  and  C_3
REMARK    3  A    between atoms: C_10  and  C_11
REMARK    4  A    between atoms: N_13  and  C_14
REMARK    5  A    between atoms: C_14  and  C_15
REMARK    6  A    between atoms: C_18  and  C_19
REMARK    7  A    between atoms: C_19  and  N_20
REMARK    8  A    between atoms: N_20  and  C_21
REMARK    9  A    between atoms: C_21  and  C_22
REMARK                            x       y       z     vdW  Elec       q    Type
REMARK                         _______ _______ _______ _____ _____    ______ ____
ROOT
ATOM      1  C   UNL     1      48.023   6.698  13.271  0.00  0.00    +0.000 C 
ENDROOT
BRANCH   1   2
ATOM      2  C   UNL     1      46.888   5.924  12.676  0.00  0.00    +0.000 A 
ATOM      3  C   UNL     1      46.416   6.203  11.392  0.00  0.00    +0.000 A 
ATOM      4  C   UNL     1      45.367   5.461  10.862  0.00  0.00    +0.000 A 
ATOM      5  C   UNL     1      44.810   4.440  11.629  0.00  0.00    +0.000 A 
ATOM      6  N   UNL     1      45.295   4.110  12.858  0.00  0.00    +0.000 NA
ATOM      7  C   UNL     1      46.302   4.862  13.354  0.00  0.00    +0.000 A 
BRANCH   5   8
ATOM      8  C   UNL     1      43.623   3.655  11.092  0.00  0.00    +0.000 C 
BRANCH   8   9
ATOM      9  N   UNL     1      43.747   3.257   9.676  0.00  0.00    +0.000 NA
ATOM     10  H   UNL     1      44.241   4.032   9.226  0.00  0.00    +0.000 HD
BRANCH   9  11
ATOM     11  C   UNL     1      44.572   2.053   9.517  0.00  0.00    +0.000 C 
BRANCH  11  12
ATOM     12  C   UNL     1      45.839   2.325   8.674  0.00  0.00    +0.000 C 
ATOM     13  C   UNL     1      45.516   3.381   7.600  0.00  0.00    +0.000 C 
ATOM     14  C   UNL     1      46.708   3.666   6.690  0.00  0.00    +0.000 C 
ATOM     15  C   UNL     1      47.247   2.389   6.055  0.00  0.00    +0.000 C 
ATOM     16  C   UNL     1      47.596   1.354   7.116  0.00  0.00    +0.000 C 
ATOM     17  C   UNL     1      46.404   1.052   8.020  0.00  0.00    +0.000 C 
ENDBRANCH  11  12
ENDBRANCH   9  11
ENDBRANCH   8   9
ENDBRANCH   5   8
ENDBRANCH   1   2
BRANCH   1  20
ATOM     18  C   UNL     1      49.034   6.947  15.498  0.00  0.00    +0.000 C 
ATOM     19  O   UNL     1      50.143   7.154  15.010  0.00  0.00    +0.000 OA
ATOM     20  N   UNL     1      47.954   6.670  14.710  0.00  0.00    +0.000 N 
ATOM     21  H   UNL     1      47.040   6.570  15.132  0.00  0.00    +0.000 HD
BRANCH  18  29
ATOM     22  C   UNL     1      48.836   4.498  17.914  0.00  0.00    +0.000 A 
ATOM     23  N   UNL     1      48.730   3.768  19.042  0.00  0.00    +0.000 NA
ATOM     24  C   UNL     1      48.524   4.415  20.193  0.00  0.00    +0.000 A 
ATOM     25  N   UNL     1      48.406   5.729  20.363  0.00  0.00    +0.000 NA
ATOM     26  C   UNL     1      48.528   6.419  19.216  0.00  0.00    +0.000 A 
ATOM     27  S   UNL     1      48.394   8.113  19.245  0.00  0.00    +0.000 S 
ATOM     28  C   UNL     1      48.631   8.206  17.567  0.00  0.00    +0.000 A 
ATOM     29  C   UNL     1      48.821   6.974  16.953  0.00  0.00    +0.000 A 
ATOM     30  C   UNL     1      48.751   5.903  17.945  0.00  0.00    +0.000 A 
BRANCH  22  32
ATOM     31  C   UNL     1      47.939   3.073  16.286  0.00  0.00    +0.000 C 
ATOM     32  O   UNL     1      49.064   3.832  16.726  0.00  0.00    +0.000 OA
ENDBRANCH  22  32
ENDBRANCH  18  29
ENDBRANCH   1  20
TORSDOF 8
ENDMDL
MODEL 2
REMARK VINA RESULT:    -7.903      1.457      2.498
REMARK INTER + INTRA:         -12.830
REMARK INTER:                 -11.764
REMARK INTRA:                  -1.066
REMARK UNBOUND:                -1.231
REMARK  Name = 
REMARK  9 active torsions:
REMARK  status: ('A' for Active; 'I' for Inactive)
REMARK    1  A    between atoms: C_1  and  O_2
REMARK    2  A    between atoms: O_2  and  C_3
REMARK    3  A    between atoms: C_10  and  C_11
REMARK    4  A    between atoms: N_13  and  C_14
REMARK    5  A    between atoms: C_14  and  C_15
REMARK    6  A    between atoms: C_18  and  C_19
REMARK    7  A    between atoms: C_19  and  N_20
REMARK    8  A    between atoms: N_20  and  C_21
REMARK    9  A    between atoms: C_21  and  C_22
REMARK                            x       y       z     vdW  Elec       q    Type
REMARK                         _______ _______ _______ _____ _____    ______ ____
ROOT
ATOM      1  C   UNL     1      47.943   6.859  13.691  0.00  0.00    +0.000 C 
ENDROOT
BRANCH   1   2
ATOM      2  C   UNL     1      46.800   6.359  12.863  0.00  0.00    +0.000 A 
ATOM      3  C   UNL     1      46.763   6.563  11.482  0.00  0.00    +0.000 A 
ATOM      4  C   UNL     1      45.692   6.079  10.738  0.00  0.00    +0.000 A 
ATOM      5  C   UNL     1      44.676   5.387  11.393  0.00  0.00    +0.000 A 
ATOM      6  N   UNL     1      44.722   5.123  12.728  0.00  0.00    +0.000 NA
ATOM      7  C   UNL     1      45.765   5.624  13.428  0.00  0.00    +0.000 A 
BRANCH   5   8
ATOM      8  C   UNL     1      43.468   4.901  10.608  0.00  0.00    +0.000 C 
BRANCH   8   9
ATOM      9  N   UNL     1      43.783   4.391   9.259  0.00  0.00    +0.000 NA
ATOM     10  H   UNL     1      44.531   4.999   8.915  0.00  0.00    +0.000 HD
BRANCH   9  11
ATOM     11  C   UNL     1      44.310   3.021   9.303  0.00  0.00    +0.000 C 
BRANCH  11  12
ATOM     12  C   UNL     1      45.191   2.699   8.075  0.00  0.00    +0.000 C 
ATOM     13  C   UNL     1      46.074   1.477   8.390  0.00  0.00    +0.000 C 
ATOM     14  C   UNL     1      47.013   1.128   7.239  0.00  0.00    +0.000 C 
ATOM     15  C   UNL     1      47.865   2.323   6.828  0.00  0.00    +0.000 C 
ATOM     16  C   UNL     1      46.995   3.525   6.485  0.00  0.00    +0.000 C 
ATOM     17  C   UNL     1      46.063   3.890   7.638  0.00  0.00    +0.000 C 
ENDBRANCH  11  12
ENDBRANCH   9  11
ENDBRANCH   8   9
ENDBRANCH   5   8
ENDBRANCH   1   2
BRANCH   1  20
ATOM     18  C   UNL     1      48.952   6.294  15.860  0.00  0.00    +0.000 C 
ATOM     19  O   UNL     1      50.065   6.647  15.474  0.00  0.00    +0.000 OA
ATOM     20  N   UNL     1      47.870   6.326  15.026  0.00  0.00    +0.000 N 
ATOM     21  H   UNL     1      46.954   6.093  15.388  0.00  0.00    +0.000 HD
BRANCH  18  29
ATOM     22  C   UNL     1      47.912   7.803  18.778  0.00  0.00    +0.000 A 
ATOM     23  N   UNL     1      47.527   8.123  20.029  0.00  0.00    +0.000 NA
ATOM     24  C   UNL     1      47.525   7.157  20.952  0.00  0.00    +0.000 A 
ATOM     25  N   UNL     1      47.869   5.883  20.779  0.00  0.00    +0.000 NA
ATOM     26  C   UNL     1      48.235   5.606  19.517  0.00  0.00    +0.000 A 
ATOM     27  S   UNL     1      48.716   4.026  19.117  0.00  0.00    +0.000 S 
ATOM     28  C   UNL     1      49.001   4.472  17.504  0.00  0.00    +0.000 A 
ATOM     29  C   UNL     1      48.736   5.808  17.231  0.00  0.00    +0.000 A 
ATOM     30  C   UNL     1      48.284   6.488  18.443  0.00  0.00    +0.000 A 
BRANCH  22  32
ATOM     31  C   UNL     1      49.116   9.541  17.770  0.00  0.00    +0.000 C 
ATOM     32  O   UNL     1      47.899   8.798  17.819  0.00  0.00    +0.000 OA
ENDBRANCH  22  32
ENDBRANCH  18  29
ENDBRANCH   1  20
TORSDOF 8
ENDMDL
MODEL 3
REMARK VINA RESULT:    -7.684      1.840      2.295
REMARK INTER + INTRA:         -12.509
REMARK INTER:                 -11.397
REMARK INTRA:                  -1.113
REMARK UNBOUND:                -1.231
REMARK  Name = 
REMARK  9 active torsions:
REMARK  status: ('A' for Active; 'I' for Inactive)
REMARK    1  A    between atoms: C_1  and  O_2
REMARK    2  A    between atoms: O_2  and  C_3
REMARK    3  A    between atoms: C_10  and  C_11
REMARK    4  A    between atoms: N_13  and  C_14
REMARK    5  A    between atoms: C_14  and  C_15
REMARK    6  A    between atoms: C_18  and  C_19
REMARK    7  A    between atoms: C_19  and  N_20
REMARK    8  A    between atoms: N_20  and  C_21
REMARK    9  A    between atoms: C_21  and  C_22
REMARK                            x       y       z     vdW  Elec       q    Type
REMARK                         _______ _______ _______ _____ _____    ______ ____
ROOT
ATOM      1  C   UNL     1      46.875   7.285  13.577  0.00  0.00    +0.000 C 
ENDROOT
BRANCH   1   2
ATOM      2  C   UNL     1      46.029   6.145  13.101  0.00  0.00    +0.000 A 
ATOM      3  C   UNL     1      46.446   4.821  13.257  0.00  0.00    +0.000 A 
ATOM      4  C   UNL     1      45.634   3.783  12.813  0.00  0.00    +0.000 A 
ATOM      5  C   UNL     1      44.410   4.090  12.225  0.00  0.00    +0.000 A 
ATOM      6  N   UNL     1      43.957   5.370  12.118  0.00  0.00    +0.000 NA
ATOM      7  C   UNL     1      44.776   6.359  12.541  0.00  0.00    +0.000 A 
BRANCH   5   8
ATOM      8  C   UNL     1      43.534   2.973  11.679  0.00  0.00    +0.000 C 
BRANCH   8   9
ATOM      9  N   UNL     1      44.027   2.371  10.425  0.00  0.00    +0.000 NA
ATOM     10  H   UNL     1      43.222   1.867  10.040  0.00  0.00    +0.000 HD
BRANCH   9  11
ATOM     11  C   UNL     1      44.419   3.391   9.445  0.00  0.00    +0.000 C 
BRANCH  11  12
ATOM     12  C   UNL     1      45.124   2.776   8.216  0.00  0.00    +0.000 C 
ATOM     13  C   UNL     1      45.947   1.553   8.662  0.00  0.00    +0.000 C 
ATOM     14  C   UNL     1      46.717   0.919   7.508  0.00  0.00    +0.000 C 
ATOM     15  C   UNL     1      47.599   1.937   6.795  0.00  0.00    +0.000 C 
ATOM     16  C   UNL     1      46.785   3.135   6.325  0.00  0.00    +0.000 C 
ATOM     17  C   UNL     1      46.023   3.784   7.478  0.00  0.00    +0.000 C 
ENDBRANCH  11  12
ENDBRANCH   9  11
ENDBRANCH   8   9
ENDBRANCH   5   8
ENDBRANCH   1   2
BRANCH   1  20
ATOM     18  C   UNL     1      48.858   7.596  14.997  0.00  0.00    +0.000 C 
ATOM     19  O   UNL     1      48.633   8.799  15.108  0.00  0.00    +0.000 OA
ATOM     20  N   UNL     1      48.065   6.796  14.224  0.00  0.00    +0.000 N 
ATOM     21  H   UNL     1      48.232   5.798  14.203  0.00  0.00    +0.000 HD
BRANCH  18  29
ATOM     22  C   UNL     1      49.157   4.894  17.114  0.00  0.00    +0.000 A 
ATOM     23  N   UNL     1      49.560   3.900  17.929  0.00  0.00    +0.000 NA
ATOM     24  C   UNL     1      50.862   3.812  18.219  0.00  0.00    +0.000 A 
ATOM     25  N   UNL     1      51.833   4.613  17.789  0.00  0.00    +0.000 NA
ATOM     26  C   UNL     1      51.389   5.584  16.972  0.00  0.00    +0.000 A 
ATOM     27  S   UNL     1      52.495   6.707  16.336  0.00  0.00    +0.000 S 
ATOM     28  C   UNL     1      51.259   7.519  15.502  0.00  0.00    +0.000 A 
ATOM     29  C   UNL     1      49.998   6.964  15.678  0.00  0.00    +0.000 A 
ATOM     30  C   UNL     1      50.078   5.806  16.567  0.00  0.00    +0.000 A 
BRANCH  22  32
ATOM     31  C   UNL     1      47.108   3.760  17.050  0.00  0.00    +0.000 C 
ATOM     32  O   UNL     1      47.814   4.975  16.802  0.00  0.00    +0.000 OA
ENDBRANCH  22  32
ENDBRANCH  18  29
ENDBRANCH   1  20
TORSDOF 8
ENDMDL
MODEL 4
REMARK VINA RESULT:    -7.493      1.573      3.105
REMARK INTER + INTRA:         -12.228
REMARK INTER:                 -11.040
REMARK INTRA:                  -1.188
REMARK UNBOUND:                -1.231
REMARK  Name = 
REMARK  9 active torsions:
REMARK  status: ('A' for Active; 'I' for Inactive)
REMARK    1  A    between atoms: C_1  and  O_2
REMARK    2  A    between atoms: O_2  and  C_3
REMARK    3  A    between atoms: C_10  and  C_11
REMARK    4  A    between atoms: N_13  and  C_14
REMARK    5  A    between atoms: C_14  and  C_15
REMARK    6  A    between atoms: C_18  and  C_19
REMARK    7  A    between atoms: C_19  and  N_20
REMARK    8  A    between atoms: N_20  and  C_21
REMARK    9  A    between atoms: C_21  and  C_22
REMARK                            x       y       z     vdW  Elec       q    Type
REMARK                         _______ _______ _______ _____ _____    ______ ____
ROOT
ATOM      1  C   UNL     1      47.465   3.747  15.071  0.00  0.00    +0.000 C 
ENDROOT
BRANCH   1   2
ATOM      2  C   UNL     1      46.785   4.225  13.825  0.00  0.00    +0.000 A 
ATOM      3  C   UNL     1      45.947   3.384  13.091  0.00  0.00    +0.000 A 
ATOM      4  C   UNL     1      45.321   3.859  11.943  0.00  0.00    +0.000 A 
ATOM      5  C   UNL     1      45.541   5.178  11.554  0.00  0.00    +0.000 A 
ATOM      6  N   UNL     1      46.304   6.033  12.289  0.00  0.00    +0.000 NA
ATOM      7  C   UNL     1      46.915   5.537  13.388  0.00  0.00    +0.000 A 
BRANCH   5   8
ATOM      8  C   UNL     1      44.914   5.700  10.271  0.00  0.00    +0.000 C 
BRANCH   8   9
ATOM      9  N   UNL     1      45.459   5.098   9.038  0.00  0.00    +0.000 NA
ATOM     10  H   UNL     1      46.307   4.607   9.336  0.00  0.00    +0.000 HD
BRANCH   9  11
ATOM     11  C   UNL     1      44.546   4.098   8.468  0.00  0.00    +0.000 C 
BRANCH  11  12
ATOM     12  C   UNL     1      45.295   3.043   7.624  0.00  0.00    +0.000 C 
ATOM     13  C   UNL     1      45.809   1.924   8.551  0.00  0.00    +0.000 C 
ATOM     14  C   UNL     1      46.607   0.866   7.795  0.00  0.00    +0.000 C 
ATOM     15  C   UNL     1      47.753   1.486   7.003  0.00  0.00    +0.000 C 
ATOM     16  C   UNL     1      47.246   2.572   6.064  0.00  0.00    +0.000 C 
ATOM     17  C   UNL     1      46.459   3.643   6.815  0.00  0.00    +0.000 C 
ENDBRANCH  11  12
ENDBRANCH   9  11
ENDBRANCH   8   9
ENDBRANCH   5   8
ENDBRANCH   1   2
BRANCH   1  20
ATOM     18  C   UNL     1      48.569   4.892  16.945  0.00  0.00    +0.000 C 
ATOM     19  O   UNL     1      49.421   4.010  17.028  0.00  0.00    +0.000 OA
ATOM     20  N   UNL     1      47.550   4.810  16.039  0.00  0.00    +0.000 N 
ATOM     21  H   UNL     1      46.901   5.580  15.946  0.00  0.00    +0.000 HD
BRANCH  18  29
ATOM     22  C   UNL     1      48.805   8.281  16.370  0.00  0.00    +0.000 A 
ATOM     23  N   UNL     1      48.872   9.625  16.437  0.00  0.00    +0.000 NA
ATOM     24  C   UNL     1      48.845  10.197  17.644  0.00  0.00    +0.000 A 
ATOM     25  N   UNL     1      48.760   9.581  18.821  0.00  0.00    +0.000 NA
ATOM     26  C   UNL     1      48.686   8.244  18.708  0.00  0.00    +0.000 A 
ATOM     27  S   UNL     1      48.583   7.295  20.113  0.00  0.00    +0.000 S 
ATOM     28  C   UNL     1      48.541   5.865  19.199  0.00  0.00    +0.000 A 
ATOM     29  C   UNL     1      48.598   6.070  17.826  0.00  0.00    +0.000 A 
ATOM     30  C   UNL     1      48.692   7.499  17.534  0.00  0.00    +0.000 A 
BRANCH  22  32
ATOM     31  C   UNL     1      50.117   7.650  14.536  0.00  0.00    +0.000 C 
ATOM     32  O   UNL     1      48.817   7.690  15.122  0.00  0.00    +0.000 OA
ENDBRANCH  22  32
ENDBRANCH  18  29
ENDBRANCH   1  20
TORSDOF 8
ENDMDL
MODEL 5
REMARK VINA RESULT:    -7.006      3.333      8.277
REMARK INTER + INTRA:         -11.514
REMARK INTER:                  -9.822
REMARK INTRA:                  -1.692
REMARK UNBOUND:                -1.231
REMARK  Name = 
REMARK  9 active torsions:
REMARK  status: ('A' for Active; 'I' for Inactive)
REMARK    1  A    between atoms: C_1  and  O_2
REMARK    2  A    between atoms: O_2  and  C_3
REMARK    3  A    between atoms: C_10  and  C_11
REMARK    4  A    between atoms: N_13  and  C_14
REMARK    5  A    between atoms: C_14  and  C_15
REMARK    6  A    between atoms: C_18  and  C_19
REMARK    7  A    between atoms: C_19  and  N_20
REMARK    8  A    between atoms: N_20  and  C_21
REMARK    9  A    between atoms: C_21  and  C_22
REMARK                            x       y       z     vdW  Elec       q    Type
REMARK                         _______ _______ _______ _____ _____    ______ ____
ROOT
ATOM      1  C   UNL     1      48.497   7.968  11.839  0.00  0.00    +0.000 C 
ENDROOT
BRANCH   1   2
ATOM      2  C   UNL     1      48.567   7.977  13.335  0.00  0.00    +0.000 A 
ATOM      3  C   UNL     1      49.073   6.884  14.042  0.00  0.00    +0.000 A 
ATOM      4  C   UNL     1      49.135   6.926  15.431  0.00  0.00    +0.000 A 
ATOM      5  C   UNL     1      48.693   8.071  16.090  0.00  0.00    +0.000 A 
ATOM      6  N   UNL     1      48.253   9.170  15.418  0.00  0.00    +0.000 NA
ATOM      7  C   UNL     1      48.187   9.093  14.071  0.00  0.00    +0.000 A 
BRANCH   5   8
ATOM      8  C   UNL     1      48.696   8.114  17.610  0.00  0.00    +0.000 C 
BRANCH   8   9
ATOM      9  N   UNL     1      47.978   6.996  18.253  0.00  0.00    +0.000 NA
ATOM     10  H   UNL     1      47.600   6.444  17.477  0.00  0.00    +0.000 HD
BRANCH   9  11
ATOM     11  C   UNL     1      48.887   6.127  19.011  0.00  0.00    +0.000 C 
BRANCH  11  12
ATOM     12  C   UNL     1      48.703   4.637  18.648  0.00  0.00    +0.000 C 
ATOM     13  C   UNL     1      49.933   4.152  17.858  0.00  0.00    +0.000 C 
ATOM     14  C   UNL     1      49.803   2.697  17.417  0.00  0.00    +0.000 C 
ATOM     15  C   UNL     1      48.521   2.463  16.625  0.00  0.00    +0.000 C 
ATOM     16  C   UNL     1      47.299   2.913  17.415  0.00  0.00    +0.000 C 
ATOM     17  C   UNL     1      47.415   4.373  17.847  0.00  0.00    +0.000 C 
ENDBRANCH  11  12
ENDBRANCH   9  11
ENDBRANCH   8   9
ENDBRANCH   5   8
ENDBRANCH   1   2
BRANCH   1  20
ATOM     18  C   UNL     1      46.359   6.869  11.324  0.00  0.00    +0.000 C 
ATOM     19  O   UNL     1      45.722   7.830  11.749  0.00  0.00    +0.000 OA
ATOM     20  N   UNL     1      47.724   6.844  11.377  0.00  0.00    +0.000 N 
ATOM     21  H   UNL     1      48.226   6.071  10.960  0.00  0.00    +0.000 HD
BRANCH  18  29
ATOM     22  C   UNL     1      44.531   4.283  12.683  0.00  0.00    +0.000 A 
ATOM     23  N   UNL     1      43.785   3.190  12.934  0.00  0.00    +0.000 NA
ATOM     24  C   UNL     1      43.425   2.422  11.901  0.00  0.00    +0.000 A 
ATOM     25  N   UNL     1      43.726   2.613  10.619  0.00  0.00    +0.000 NA
ATOM     26  C   UNL     1      44.461   3.718  10.412  0.00  0.00    +0.000 A 
ATOM     27  S   UNL     1      44.945   4.112   8.831  0.00  0.00    +0.000 S 
ATOM     28  C   UNL     1      45.761   5.497   9.378  0.00  0.00    +0.000 A 
ATOM     29  C   UNL     1      45.683   5.695  10.751  0.00  0.00    +0.000 A 
ATOM     30  C   UNL     1      44.908   4.622  11.370  0.00  0.00    +0.000 A 
BRANCH  22  32
ATOM     31  C   UNL     1      46.177   4.769  14.277  0.00  0.00    +0.000 C 
ATOM     32  O   UNL     1      44.890   5.086  13.748  0.00  0.00    +0.000 OA
ENDBRANCH  22  32
ENDBRANCH  18  29
ENDBRANCH   1  20
TORSDOF 8
ENDMDL
MODEL 6
REMARK VINA RESULT:    -6.973      1.942      2.700
REMARK INTER + INTRA:         -11.465
REMARK INTER:                 -10.556
REMARK INTRA:                  -0.909
REMARK UNBOUND:                -1.231
REMARK  Name = 
REMARK  9 active torsions:
REMARK  status: ('A' for Active; 'I' for Inactive)
REMARK    1  A    between atoms: C_1  and  O_2
REMARK    2  A    between atoms: O_2  and  C_3
REMARK    3  A    between atoms: C_10  and  C_11
REMARK    4  A    between atoms: N_13  and  C_14
REMARK    5  A    between atoms: C_14  and  C_15
REMARK    6  A    between atoms: C_18  and  C_19
REMARK    7  A    between atoms: C_19  and  N_20
REMARK    8  A    between atoms: N_20  and  C_21
REMARK    9  A    between atoms: C_21  and  C_22
REMARK                            x       y       z     vdW  Elec       q    Type
REMARK                         _______ _______ _______ _____ _____    ______ ____
ROOT
ATOM      1  C   UNL     1      47.800   5.253  14.347  0.00  0.00    +0.000 C 
ENDROOT
BRANCH   1   2
ATOM      2  C   UNL     1      46.650   5.186  13.390  0.00  0.00    +0.000 A 
ATOM      3  C   UNL     1      45.586   4.306  13.598  0.00  0.00    +0.000 A 
ATOM      4  C   UNL     1      44.527   4.274  12.697  0.00  0.00    +0.000 A 
ATOM      5  C   UNL     1      44.550   5.133  11.602  0.00  0.00    +0.000 A 
ATOM      6  N   UNL     1      45.546   6.041  11.412  0.00  0.00    +0.000 NA
ATOM      7  C   UNL     1      46.571   6.036  12.294  0.00  0.00    +0.000 A 
BRANCH   5   8
ATOM      8  C   UNL     1      43.431   5.072  10.573  0.00  0.00    +0.000 C 
BRANCH   8   9
ATOM      9  N   UNL     1      43.809   4.426   9.300  0.00  0.00    +0.000 NA
ATOM     10  H   UNL     1      44.604   4.971   8.954  0.00  0.00    +0.000 HD
BRANCH   9  11
ATOM     11  C   UNL     1      44.272   3.048   9.503  0.00  0.00    +0.000 C 
BRANCH  11  12
ATOM     12  C   UNL     1      45.603   2.769   8.769  0.00  0.00    +0.000 C 
ATOM     13  C   UNL     1      45.721   3.711   7.556  0.00  0.00    +0.000 C 
ATOM     14  C   UNL     1      46.989   3.459   6.747  0.00  0.00    +0.000 C 
ATOM     15  C   UNL     1      47.100   2.001   6.316  0.00  0.00    +0.000 C 
ATOM     16  C   UNL     1      47.015   1.066   7.516  0.00  0.00    +0.000 C 
ATOM     17  C   UNL     1      45.740   1.302   8.322  0.00  0.00    +0.000 C 
ENDBRANCH  11  12
ENDBRANCH   9  11
ENDBRANCH   8   9
ENDBRANCH   5   8
ENDBRANCH   1   2
BRANCH   1  20
ATOM     18  C   UNL     1      48.874   6.971  15.739  0.00  0.00    +0.000 C 
ATOM     19  O   UNL     1      49.911   6.316  15.810  0.00  0.00    +0.000 OA
ATOM     20  N   UNL     1      47.778   6.493  15.077  0.00  0.00    +0.000 N 
ATOM     21  H   UNL     1      46.960   7.080  14.978  0.00  0.00    +0.000 HD
BRANCH  18  29
ATOM     22  C   UNL     1      47.679   8.039  18.790  0.00  0.00    +0.000 A 
ATOM     23  N   UNL     1      47.298   8.720  19.888  0.00  0.00    +0.000 NA
ATOM     24  C   UNL     1      47.459  10.047  19.893  0.00  0.00    +0.000 A 
ATOM     25  N   UNL     1      47.961  10.796  18.915  0.00  0.00    +0.000 NA
ATOM     26  C   UNL     1      48.337  10.076  17.844  0.00  0.00    +0.000 A 
ATOM     27  S   UNL     1      48.993  10.873  16.494  0.00  0.00    +0.000 S 
ATOM     28  C   UNL     1      49.177   9.406  15.660  0.00  0.00    +0.000 A 
ATOM     29  C   UNL     1      48.757   8.292  16.376  0.00  0.00    +0.000 A 
ATOM     30  C   UNL     1      48.247   8.698  17.684  0.00  0.00    +0.000 A 
BRANCH  22  32
ATOM     31  C   UNL     1      48.662   5.980  19.318  0.00  0.00    +0.000 C 
ATOM     32  O   UNL     1      47.528   6.666  18.791  0.00  0.00    +0.000 OA
ENDBRANCH  22  32
ENDBRANCH  18  29
ENDBRANCH   1  20
TORSDOF 8
ENDMDL
MODEL 7
REMARK VINA RESULT:    -6.835      2.029      3.655
REMARK INTER + INTRA:         -11.263
REMARK INTER:                 -10.091
REMARK INTRA:                  -1.172
REMARK UNBOUND:                -1.231
REMARK  Name = 
REMARK  9 active torsions:
REMARK  status: ('A' for Active; 'I' for Inactive)
REMARK    1  A    between atoms: C_1  and  O_2
REMARK    2  A    between atoms: O_2  and  C_3
REMARK    3  A    between atoms: C_10  and  C_11
REMARK    4  A    between atoms: N_13  and  C_14
REMARK    5  A    between atoms: C_14  and  C_15
REMARK    6  A    between atoms: C_18  and  C_19
REMARK    7  A    between atoms: C_19  and  N_20
REMARK    8  A    between atoms: N_20  and  C_21
REMARK    9  A    between atoms: C_21  and  C_22
REMARK                            x       y       z     vdW  Elec       q    Type
REMARK                         _______ _______ _______ _____ _____    ______ ____
ROOT
ATOM      1  C   UNL     1      47.237   4.597  14.653  0.00  0.00    +0.000 C 
ENDROOT
BRANCH   1   2
ATOM      2  C   UNL     1      46.235   4.729  13.548  0.00  0.00    +0.000 A 
ATOM      3  C   UNL     1      44.977   4.132  13.637  0.00  0.00    +0.000 A 
ATOM      4  C   UNL     1      44.064   4.280  12.598  0.00  0.00    +0.000 A 
ATOM      5  C   UNL     1      44.428   5.034  11.485  0.00  0.00    +0.000 A 
ATOM      6  N   UNL     1      45.627   5.675  11.404  0.00  0.00    +0.000 NA
ATOM      7  C   UNL     1      46.500   5.497  12.420  0.00  0.00    +0.000 A 
BRANCH   5   8
ATOM      8  C   UNL     1      43.468   5.159  10.312  0.00  0.00    +0.000 C 
BRANCH   8   9
ATOM      9  N   UNL     1      43.901   4.448   9.093  0.00  0.00    +0.000 NA
ATOM     10  H   UNL     1      44.733   4.954   8.773  0.00  0.00    +0.000 HD
BRANCH   9  11
ATOM     11  C   UNL     1      44.306   3.067   9.380  0.00  0.00    +0.000 C 
BRANCH  11  12
ATOM     12  C   UNL     1      45.656   2.708   8.718  0.00  0.00    +0.000 C 
ATOM     13  C   UNL     1      45.873   3.609   7.488  0.00  0.00    +0.000 C 
ATOM     14  C   UNL     1      47.165   3.278   6.748  0.00  0.00    +0.000 C 
ATOM     15  C   UNL     1      47.229   1.805   6.361  0.00  0.00    +0.000 C 
ATOM     16  C   UNL     1      47.045   0.910   7.579  0.00  0.00    +0.000 C 
ATOM     17  C   UNL     1      45.746   1.224   8.317  0.00  0.00    +0.000 C 
ENDBRANCH  11  12
ENDBRANCH   9  11
ENDBRANCH   8   9
ENDBRANCH   5   8
ENDBRANCH   1   2
BRANCH   1  20
ATOM     18  C   UNL     1      48.685   6.058  15.999  0.00  0.00    +0.000 C 
ATOM     19  O   UNL     1      49.224   5.091  16.533  0.00  0.00    +0.000 OA
ATOM     20  N   UNL     1      47.669   5.896  15.100  0.00  0.00    +0.000 N 
ATOM     21  H   UNL     1      47.288   6.705  14.626  0.00  0.00    +0.000 HD
BRANCH  18  29
ATOM     22  C   UNL     1      49.580   8.768  14.068  0.00  0.00    +0.000 A 
ATOM     23  N   UNL     1      49.951   9.964  13.571  0.00  0.00    +0.000 NA
ATOM     24  C   UNL     1      50.223  10.947  14.435  0.00  0.00    +0.000 A 
ATOM     25  N   UNL     1      50.171  10.883  15.762  0.00  0.00    +0.000 NA
ATOM     26  C   UNL     1      49.788   9.677  16.215  0.00  0.00    +0.000 A 
ATOM     27  S   UNL     1      49.677   9.413  17.890  0.00  0.00    +0.000 S 
ATOM     28  C   UNL     1      49.192   7.804  17.650  0.00  0.00    +0.000 A 
ATOM     29  C   UNL     1      49.098   7.435  16.313  0.00  0.00    +0.000 A 
ATOM     30  C   UNL     1      49.463   8.559  15.455  0.00  0.00    +0.000 A 
BRANCH  22  32
ATOM     31  C   UNL     1      49.001   8.235  11.862  0.00  0.00    +0.000 C 
ATOM     32  O   UNL     1      49.285   7.756  13.176  0.00  0.00    +0.000 OA
ENDBRANCH  22  32
ENDBRANCH  18  29
ENDBRANCH   1  20
TORSDOF 8
ENDMDL
MODEL 8
REMARK VINA RESULT:    -6.823      3.670      5.729
REMARK INTER + INTRA:         -11.245
REMARK INTER:                 -10.336
REMARK INTRA:                  -0.909
REMARK UNBOUND:                -1.231
REMARK  Name = 
REMARK  9 active torsions:
REMARK  status: ('A' for Active; 'I' for Inactive)
REMARK    1  A    between atoms: C_1  and  O_2
REMARK    2  A    between atoms: O_2  and  C_3
REMARK    3  A    between atoms: C_10  and  C_11
REMARK    4  A    between atoms: N_13  and  C_14
REMARK    5  A    between atoms: C_14  and  C_15
REMARK    6  A    between atoms: C_18  and  C_19
REMARK    7  A    between atoms: C_19  and  N_20
REMARK    8  A    between atoms: N_20  and  C_21
REMARK    9  A    between atoms: C_21  and  C_22
REMARK                            x       y       z     vdW  Elec       q    Type
REMARK                         _______ _______ _______ _____ _____    ______ ____
ROOT
ATOM      1  C   UNL     1      47.730   6.344  13.920  0.00  0.00    +0.000 C 
ENDROOT
BRANCH   1   2
ATOM      2  C   UNL     1      46.659   5.445  13.385  0.00  0.00    +0.000 A 
ATOM      3  C   UNL     1      46.865   4.070  13.259  0.00  0.00    +0.000 A 
ATOM      4  C   UNL     1      45.848   3.259  12.766  0.00  0.00    +0.000 A 
ATOM      5  C   UNL     1      44.634   3.842  12.415  0.00  0.00    +0.000 A 
ATOM      6  N   UNL     1      44.390   5.171  12.587  0.00  0.00    +0.000 NA
ATOM      7  C   UNL     1      45.404   5.936  13.048  0.00  0.00    +0.000 A 
BRANCH   5   8
ATOM      8  C   UNL     1      43.529   2.983  11.819  0.00  0.00    +0.000 C 
BRANCH   8   9
ATOM      9  N   UNL     1      43.846   2.416  10.494  0.00  0.00    +0.000 NA
ATOM     10  H   UNL     1      42.971   1.994  10.170  0.00  0.00    +0.000 HD
BRANCH   9  11
ATOM     11  C   UNL     1      44.218   3.458   9.529  0.00  0.00    +0.000 C 
BRANCH  11  12
ATOM     12  C   UNL     1      44.990   2.881   8.321  0.00  0.00    +0.000 C 
ATOM     13  C   UNL     1      45.774   1.633   8.768  0.00  0.00    +0.000 C 
ATOM     14  C   UNL     1      46.606   1.035   7.638  0.00  0.00    +0.000 C 
ATOM     15  C   UNL     1      47.538   2.070   7.018  0.00  0.00    +0.000 C 
ATOM     16  C   UNL     1      46.763   3.293   6.546  0.00  0.00    +0.000 C 
ATOM     17  C   UNL     1      45.940   3.907   7.676  0.00  0.00    +0.000 C 
ENDBRANCH  11  12
ENDBRANCH   9  11
ENDBRANCH   8   9
ENDBRANCH   5   8
ENDBRANCH   1   2
BRANCH   1  20
ATOM     18  C   UNL     1      48.656   8.555  13.374  0.00  0.00    +0.000 C 
ATOM     19  O   UNL     1      48.989   8.743  14.542  0.00  0.00    +0.000 OA
ATOM     20  N   UNL     1      47.992   7.421  13.001  0.00  0.00    +0.000 N 
ATOM     21  H   UNL     1      47.789   7.261  12.023  0.00  0.00    +0.000 HD
BRANCH  18  29
ATOM     22  C   UNL     1      51.483   9.358  11.574  0.00  0.00    +0.000 A 
ATOM     23  N   UNL     1      52.410   9.863  10.737  0.00  0.00    +0.000 NA
ATOM     24  C   UNL     1      52.047  10.858   9.922  0.00  0.00    +0.000 A 
ATOM     25  N   UNL     1      50.847  11.426   9.839  0.00  0.00    +0.000 NA
ATOM     26  C   UNL     1      49.951  10.887  10.683  0.00  0.00    +0.000 A 
ATOM     27  S   UNL     1      48.366  11.499  10.718  0.00  0.00    +0.000 S 
ATOM     28  C   UNL     1      47.919  10.398  11.929  0.00  0.00    +0.000 A 
ATOM     29  C   UNL     1      48.943   9.548  12.327  0.00  0.00    +0.000 A 
ATOM     30  C   UNL     1      50.164   9.848  11.582  0.00  0.00    +0.000 A 
BRANCH  22  32
ATOM     31  C   UNL     1      53.029   8.601  13.163  0.00  0.00    +0.000 C 
ATOM     32  O   UNL     1      51.853   8.319  12.405  0.00  0.00    +0.000 OA
ENDBRANCH  22  32
ENDBRANCH  18  29
ENDBRANCH   1  20
TORSDOF 8
ENDMDL
MODEL 9
REMARK VINA RESULT:    -6.611      4.444      9.213
REMARK INTER + INTRA:         -10.934
REMARK INTER:                  -9.963
REMARK INTRA:                  -0.971
REMARK UNBOUND:                -1.231
REMARK  Name = 
REMARK  9 active torsions:
REMARK  status: ('A' for Active; 'I' for Inactive)
REMARK    1  A    between atoms: C_1  and  O_2
REMARK    2  A    between atoms: O_2  and  C_3
REMARK    3  A    between atoms: C_10  and  C_11
REMARK    4  A    between atoms: N_13  and  C_14
REMARK    5  A    between atoms: C_14  and  C_15
REMARK    6  A    between atoms: C_18  and  C_19
REMARK    7  A    between atoms: C_19  and  N_20
REMARK    8  A    between atoms: N_20  and  C_21
REMARK    9  A    between atoms: C_21  and  C_22
REMARK                            x       y       z     vdW  Elec       q    Type
REMARK                         _______ _______ _______ _____ _____    ______ ____
ROOT
ATOM      1  C   UNL     1      47.116   3.336  16.763  0.00  0.00    +0.000 C 
ENDROOT
BRANCH   1   2
ATOM      2  C   UNL     1      48.523   3.425  17.266  0.00  0.00    +0.000 A 
ATOM      3  C   UNL     1      49.444   2.404  17.022  0.00  0.00    +0.000 A 
ATOM      4  C   UNL     1      50.747   2.519  17.495  0.00  0.00    +0.000 A 
ATOM      5  C   UNL     1      51.108   3.665  18.200  0.00  0.00    +0.000 A 
ATOM      6  N   UNL     1      50.244   4.698  18.396  0.00  0.00    +0.000 NA
ATOM      7  C   UNL     1      48.980   4.549  17.942  0.00  0.00    +0.000 A 
BRANCH   5   8
ATOM      8  C   UNL     1      52.511   3.784  18.776  0.00  0.00    +0.000 C 
BRANCH   8   9
ATOM      9  N   UNL     1      53.186   2.493  19.008  0.00  0.00    +0.000 NA
ATOM     10  H   UNL     1      52.741   1.841  18.355  0.00  0.00    +0.000 HD
BRANCH   9  11
ATOM     11  C   UNL     1      54.613   2.554  18.668  0.00  0.00    +0.000 C 
BRANCH  11  12
ATOM     12  C   UNL     1      55.119   1.233  18.046  0.00  0.00    +0.000 C 
ATOM     13  C   UNL     1      55.321   1.430  16.532  0.00  0.00    +0.000 C 
ATOM     14  C   UNL     1      55.772   0.149  15.836  0.00  0.00    +0.000 C 
ATOM     15  C   UNL     1      54.816  -1.006  16.111  0.00  0.00    +0.000 C 
ATOM     16  C   UNL     1      54.636  -1.224  17.607  0.00  0.00    +0.000 C 
ATOM     17  C   UNL     1      54.170   0.049  18.309  0.00  0.00    +0.000 C 
ENDBRANCH  11  12
ENDBRANCH   9  11
ENDBRANCH   8   9
ENDBRANCH   5   8
ENDBRANCH   1   2
BRANCH   1  20
ATOM     18  C   UNL     1      46.918   4.225  14.479  0.00  0.00    +0.000 C 
ATOM     19  O   UNL     1      47.303   3.164  13.995  0.00  0.00    +0.000 OA
ATOM     20  N   UNL     1      46.844   4.401  15.832  0.00  0.00    +0.000 N 
ATOM     21  H   UNL     1      46.461   5.260  16.204  0.00  0.00    +0.000 HD
BRANCH  18  29
ATOM     22  C   UNL     1      44.099   4.964  12.640  0.00  0.00    +0.000 A 
ATOM     23  N   UNL     1      43.139   5.503  11.863  0.00  0.00    +0.000 NA
ATOM     24  C   UNL     1      43.380   6.690  11.298  0.00  0.00    +0.000 A 
ATOM     25  N   UNL     1      44.485   7.422  11.412  0.00  0.00    +0.000 NA
ATOM     26  C   UNL     1      45.411   6.853  12.203  0.00  0.00    +0.000 A 
ATOM     27  S   UNL     1      46.892   7.647  12.454  0.00  0.00    +0.000 S 
ATOM     28  C   UNL     1      47.446   6.394  13.457  0.00  0.00    +0.000 A 
ATOM     29  C   UNL     1      46.532   5.361  13.628  0.00  0.00    +0.000 A 
ATOM     30  C   UNL     1      45.315   5.636  12.868  0.00  0.00    +0.000 A 
BRANCH  22  32
ATOM     31  C   UNL     1      43.530   2.718  12.298  0.00  0.00    +0.000 C 
ATOM     32  O   UNL     1      43.845   3.745  13.237  0.00  0.00    +0.000 OA
ENDBRANCH  22  32
ENDBRANCH  18  29
ENDBRANCH   1  20
TORSDOF 8
ENDMDL
