MODEL 1
REMARK VINA RESULT:    -8.250      0.000      0.000
REMARK INTER + INTRA:         -12.362
REMARK INTER:                 -11.625
REMARK INTRA:                  -0.737
REMARK UNBOUND:                -0.737
REMARK  Name = 
REMARK  7 active torsions:
REMARK  status: ('A' for Active; 'I' for Inactive)
REMARK    1  A    between atoms: C_2  and  C_4
REMARK    2  A    between atoms: C_7  and  O_8
REMARK    3  A    between atoms: O_8  and  C_9
REMARK    4  A    between atoms: C_9  and  C_10
REMARK    5  A    between atoms: C_10  and  C_11
REMARK    6  A    between atoms: C_15  and  O_16
REMARK    7  A    between atoms: O_16  and  C_17
REMARK                            x       y       z     vdW  Elec       q    Type
REMARK                         _______ _______ _______ _____ _____    ______ ____
ROOT
ATOM      1  C   UNL     1      43.483   4.050  11.273  0.00  0.00    +0.000 C 
ENDROOT
BRANCH   1   2
ATOM      2  O   UNL     1      43.720   4.655   9.995  0.00  0.00    +0.000 OA
BRANCH   2   6
ATOM      3  C   UNL     1      46.390   2.446   7.760  0.00  0.00    +0.000 A 
ATOM      4  C   UNL     1      45.618   1.812   8.736  0.00  0.00    +0.000 A 
ATOM      5  C   UNL     1      44.720   2.569   9.493  0.00  0.00    +0.000 A 
ATOM      6  C   UNL     1      44.629   3.932   9.244  0.00  0.00    +0.000 A 
ATOM      7  N   UNL     1      45.378   4.569   8.317  0.00  0.00    +0.000 NA
ATOM      8  C   UNL     1      46.247   3.816   7.604  0.00  0.00    +0.000 A 
BRANCH   3  10
ATOM      9  N   UNL     1      48.448   2.451   6.469  0.00  0.00    +0.000 N 
ATOM     10  C   UNL     1      47.361   1.743   6.895  0.00  0.00    +0.000 C 
ATOM     11  O   UNL     1      47.225   0.562   6.611  0.00  0.00    +0.000 OA
ATOM     12  H   UNL     1      49.163   1.917   5.990  0.00  0.00    +0.000 HD
ATOM     13  H   UNL     1      48.728   3.325   6.892  0.00  0.00    +0.000 HD
ENDBRANCH   3  10
ENDBRANCH   2   6
ENDBRANCH   1   2
BRANCH   1  14
ATOM     14  C   UNL     1      43.473   5.125  12.360  0.00  0.00    +0.000 C 
BRANCH  14  15
ATOM     15  C   UNL     1      44.877   5.515  12.755  0.00  0.00    +0.000 A 
ATOM     16  C   UNL     1      45.427   6.731  12.334  0.00  0.00    +0.000 A 
ATOM     17  C   UNL     1      46.705   7.111  12.753  0.00  0.00    +0.000 A 
ATOM     18  C   UNL     1      47.449   6.283  13.597  0.00  0.00    +0.000 A 
ATOM     19  C   UNL     1      46.912   5.067  14.017  0.00  0.00    +0.000 A 
ATOM     20  C   UNL     1      45.630   4.693  13.605  0.00  0.00    +0.000 A 
BRANCH  19  21
ATOM     21  O   UNL     1      47.532   4.187  14.866  0.00  0.00    +0.000 OA
BRANCH  21  22
ATOM     22  C   UNL     1      47.468   4.422  16.290  0.00  0.00    +0.000 C 
ATOM     23  C   UNL     1      48.776   4.726  17.033  0.00  0.00    +0.000 C 
ATOM     24  O   UNL     1      48.610   3.587  17.908  0.00  0.00    +0.000 OA
ATOM     25  C   UNL     1      47.453   3.155  17.156  0.00  0.00    +0.000 C 
ENDBRANCH  21  22
ENDBRANCH  19  21
ENDBRANCH  14  15
ENDBRANCH   1  14
TORSDOF 7
ENDMDL
MODEL 2
REMARK VINA RESULT:    -7.514      1.765      2.051
REMARK INTER + INTRA:         -11.325
REMARK INTER:                 -10.496
REMARK INTRA:                  -0.830
REMARK UNBOUND:                -0.737
REMARK  Name = 
REMARK  7 active torsions:
REMARK  status: ('A' for Active; 'I' for Inactive)
REMARK    1  A    between atoms: C_2  and  C_4
REMARK    2  A    between atoms: C_7  and  O_8
REMARK    3  A    between atoms: O_8  and  C_9
REMARK    4  A    between atoms: C_9  and  C_10
REMARK    5  A    between atoms: C_10  and  C_11
REMARK    6  A    between atoms: C_15  and  O_16
REMARK    7  A    between atoms: O_16  and  C_17
REMARK                            x       y       z     vdW  Elec       q    Type
REMARK                         _______ _______ _______ _____ _____    ______ ____
ROOT
ATOM      1  C   UNL     1      44.247   3.298  11.872  0.00  0.00    +0.000 C 
ENDROOT
BRANCH   1   2
ATOM      2  O   UNL     1      43.627   3.311  10.579  0.00  0.00    +0.000 OA
BRANCH   2   6
ATOM      3  C   UNL     1      46.371   2.642   7.574  0.00  0.00    +0.000 A 
ATOM      4  C   UNL     1      45.899   3.937   7.801  0.00  0.00    +0.000 A 
ATOM      5  C   UNL     1      44.964   4.154   8.817  0.00  0.00    +0.000 A 
ATOM      6  C   UNL     1      44.538   3.066   9.568  0.00  0.00    +0.000 A 
ATOM      7  N   UNL     1      44.968   1.803   9.355  0.00  0.00    +0.000 NA
ATOM      8  C   UNL     1      45.865   1.617   8.359  0.00  0.00    +0.000 A 
BRANCH   3  10
ATOM      9  N   UNL     1      47.289   2.969   5.349  0.00  0.00    +0.000 N 
ATOM     10  C   UNL     1      47.366   2.300   6.537  0.00  0.00    +0.000 C 
ATOM     11  O   UNL     1      48.254   1.486   6.747  0.00  0.00    +0.000 OA
ATOM     12  H   UNL     1      48.056   2.816   4.704  0.00  0.00    +0.000 HD
ATOM     13  H   UNL     1      46.753   3.818   5.237  0.00  0.00    +0.000 HD
ENDBRANCH   3  10
ENDBRANCH   2   6
ENDBRANCH   1   2
BRANCH   1  14
ATOM     14  C   UNL     1      44.147   4.683  12.508  0.00  0.00    +0.000 C 
BRANCH  14  15
ATOM     15  C   UNL     1      45.496   5.359  12.559  0.00  0.00    +0.000 A 
ATOM     16  C   UNL     1      45.932   6.168  11.504  0.00  0.00    +0.000 A 
ATOM     17  C   UNL     1      47.155   6.838  11.586  0.00  0.00    +0.000 A 
ATOM     18  C   UNL     1      47.959   6.709  12.722  0.00  0.00    +0.000 A 
ATOM     19  C   UNL     1      47.536   5.901  13.776  0.00  0.00    +0.000 A 
ATOM     20  C   UNL     1      46.308   5.240  13.696  0.00  0.00    +0.000 A 
BRANCH  19  21
ATOM     21  O   UNL     1      48.221   5.720  14.950  0.00  0.00    +0.000 OA
BRANCH  21  22
ATOM     22  C   UNL     1      49.185   6.715  15.360  0.00  0.00    +0.000 C 
ATOM     23  C   UNL     1      50.141   6.364  16.508  0.00  0.00    +0.000 C 
ATOM     24  O   UNL     1      49.679   7.477  17.308  0.00  0.00    +0.000 OA
ATOM     25  C   UNL     1      48.651   7.772  16.336  0.00  0.00    +0.000 C 
ENDBRANCH  21  22
ENDBRANCH  19  21
ENDBRANCH  14  15
ENDBRANCH   1  14
TORSDOF 7
ENDMDL
MODEL 3
REMARK VINA RESULT:    -7.105      2.264      3.745
REMARK INTER + INTRA:         -10.749
REMARK INTER:                 -10.022
REMARK INTRA:                  -0.727
REMARK UNBOUND:                -0.737
REMARK  Name = 
REMARK  7 active torsions:
REMARK  status: ('A' for Active; 'I' for Inactive)
REMARK    1  A    between atoms: C_2  and  C_4
REMARK    2  A    between atoms: C_7  and  O_8
REMARK    3  A    between atoms: O_8  and  C_9
REMARK    4  A    between atoms: C_9  and  C_10
REMARK    5  A    between atoms: C_10  and  C_11
REMARK    6  A    between atoms: C_15  and  O_16
REMARK    7  A    between atoms: O_16  and  C_17
REMARK                            x       y       z     vdW  Elec       q    Type
REMARK                         _______ _______ _______ _____ _____    ______ ____
ROOT
ATOM      1  C   UNL     1      43.614   4.626  11.270  0.00  0.00    +0.000 C 
ENDROOT
BRANCH   1   2
ATOM      2  O   UNL     1      43.457   4.646   9.844  0.00  0.00    +0.000 OA
BRANCH   2   6
ATOM      3  C   UNL     1      46.209   2.215   7.966  0.00  0.00    +0.000 A 
ATOM      4  C   UNL     1      46.202   3.584   7.696  0.00  0.00    +0.000 A 
ATOM      5  C   UNL     1      45.261   4.400   8.332  0.00  0.00    +0.000 A 
ATOM      6  C   UNL     1      44.365   3.813   9.215  0.00  0.00    +0.000 A 
ATOM      7  N   UNL     1      44.343   2.488   9.479  0.00  0.00    +0.000 NA
ATOM      8  C   UNL     1      45.256   1.718   8.843  0.00  0.00    +0.000 A 
BRANCH   3  10
ATOM      9  N   UNL     1      48.279   1.783   6.770  0.00  0.00    +0.000 N 
ATOM     10  C   UNL     1      47.163   1.262   7.361  0.00  0.00    +0.000 C 
ATOM     11  O   UNL     1      46.989   0.054   7.428  0.00  0.00    +0.000 OA
ATOM     12  H   UNL     1      48.980   1.111   6.480  0.00  0.00    +0.000 HD
ATOM     13  H   UNL     1      48.584   2.733   6.928  0.00  0.00    +0.000 HD
ENDBRANCH   3  10
ENDBRANCH   2   6
ENDBRANCH   1   2
BRANCH   1  14
ATOM     14  C   UNL     1      44.034   6.011  11.762  0.00  0.00    +0.000 C 
BRANCH  14  15
ATOM     15  C   UNL     1      45.273   5.933  12.621  0.00  0.00    +0.000 A 
ATOM     16  C   UNL     1      45.522   4.810  13.418  0.00  0.00    +0.000 A 
ATOM     17  C   UNL     1      46.700   4.720  14.163  0.00  0.00    +0.000 A 
ATOM     18  C   UNL     1      47.645   5.748  14.122  0.00  0.00    +0.000 A 
ATOM     19  C   UNL     1      47.403   6.874  13.336  0.00  0.00    +0.000 A 
ATOM     20  C   UNL     1      46.229   6.958  12.584  0.00  0.00    +0.000 A 
BRANCH  19  21
ATOM     21  O   UNL     1      48.265   7.930  13.193  0.00  0.00    +0.000 OA
BRANCH  21  22
ATOM     22  C   UNL     1      48.039   8.882  12.129  0.00  0.00    +0.000 C 
ATOM     23  C   UNL     1      49.261   9.538  11.473  0.00  0.00    +0.000 C 
ATOM     24  O   UNL     1      48.809  10.865  11.827  0.00  0.00    +0.000 OA
ATOM     25  C   UNL     1      47.717  10.309  12.594  0.00  0.00    +0.000 C 
ENDBRANCH  21  22
ENDBRANCH  19  21
ENDBRANCH  14  15
ENDBRANCH   1  14
TORSDOF 7
ENDMDL
MODEL 4
REMARK VINA RESULT:    -6.838      2.994      8.156
REMARK INTER + INTRA:         -10.373
REMARK INTER:                  -9.888
REMARK INTRA:                  -0.485
REMARK UNBOUND:                -0.737
REMARK  Name = 
REMARK  7 active torsions:
REMARK  status: ('A' for Active; 'I' for Inactive)
REMARK    1  A    between atoms: C_2  and  C_4
REMARK    2  A    between atoms: C_7  and  O_8
REMARK    3  A    between atoms: O_8  and  C_9
REMARK    4  A    between atoms: C_9  and  C_10
REMARK    5  A    between atoms: C_10  and  C_11
REMARK    6  A    between atoms: C_15  and  O_16
REMARK    7  A    between atoms: O_16  and  C_17
REMARK                            x       y       z     vdW  Elec       q    Type
REMARK                         _______ _______ _______ _____ _____    ______ ____
ROOT
ATOM      1  C   UNL     1      45.661   6.343  12.755  0.00  0.00    +0.000 C 
ENDROOT
BRANCH   1   2
ATOM      2  O   UNL     1      46.956   5.728  12.806  0.00  0.00    +0.000 OA
BRANCH   2   6
ATOM      3  C   UNL     1      48.024   4.764  16.671  0.00  0.00    +0.000 A 
ATOM      4  C   UNL     1      48.583   5.888  16.061  0.00  0.00    +0.000 A 
ATOM      5  C   UNL     1      48.221   6.204  14.749  0.00  0.00    +0.000 A 
ATOM      6  C   UNL     1      47.311   5.382  14.098  0.00  0.00    +0.000 A 
ATOM      7  N   UNL     1      46.770   4.280  14.662  0.00  0.00    +0.000 NA
ATOM      8  C   UNL     1      47.144   3.990  15.929  0.00  0.00    +0.000 A 
BRANCH   3  10
ATOM      9  N   UNL     1      49.168   3.280  18.218  0.00  0.00    +0.000 N 
ATOM     10  C   UNL     1      48.326   4.343  18.055  0.00  0.00    +0.000 C 
ATOM     11  O   UNL     1      47.880   4.950  19.018  0.00  0.00    +0.000 OA
ATOM     12  H   UNL     1      49.465   3.093  19.168  0.00  0.00    +0.000 HD
ATOM     13  H   UNL     1      49.755   2.933  17.472  0.00  0.00    +0.000 HD
ENDBRANCH   3  10
ENDBRANCH   2   6
ENDBRANCH   1   2
BRANCH   1  14
ATOM     14  C   UNL     1      45.271   6.606  11.301  0.00  0.00    +0.000 C 
BRANCH  14  15
ATOM     15  C   UNL     1      45.123   5.315  10.533  0.00  0.00    +0.000 A 
ATOM     16  C   UNL     1      44.316   4.281  11.021  0.00  0.00    +0.000 A 
ATOM     17  C   UNL     1      44.137   3.113  10.275  0.00  0.00    +0.000 A 
ATOM     18  C   UNL     1      44.760   2.963   9.034  0.00  0.00    +0.000 A 
ATOM     19  C   UNL     1      45.570   3.984   8.542  0.00  0.00    +0.000 A 
ATOM     20  C   UNL     1      45.740   5.156   9.285  0.00  0.00    +0.000 A 
BRANCH  19  21
ATOM     21  O   UNL     1      46.208   3.965   7.329  0.00  0.00    +0.000 OA
BRANCH  21  22
ATOM     22  C   UNL     1      46.396   2.701   6.654  0.00  0.00    +0.000 C 
ATOM     23  C   UNL     1      47.470   1.747   7.192  0.00  0.00    +0.000 C 
ATOM     24  O   UNL     1      48.178   1.742   5.931  0.00  0.00    +0.000 OA
ATOM     25  C   UNL     1      47.292   2.758   5.409  0.00  0.00    +0.000 C 
ENDBRANCH  21  22
ENDBRANCH  19  21
ENDBRANCH  14  15
ENDBRANCH   1  14
TORSDOF 7
ENDMDL
MODEL 5
REMARK VINA RESULT:    -6.502      3.614      8.039
REMARK INTER + INTRA:          -9.900
REMARK INTER:                  -9.423
REMARK INTRA:                  -0.477
REMARK UNBOUND:                -0.737
REMARK  Name = 
REMARK  7 active torsions:
REMARK  status: ('A' for Active; 'I' for Inactive)
REMARK    1  A    between atoms: C_2  and  C_4
REMARK    2  A    between atoms: C_7  and  O_8
REMARK    3  A    between atoms: O_8  and  C_9
REMARK    4  A    between atoms: C_9  and  C_10
REMARK    5  A    between atoms: C_10  and  C_11
REMARK    6  A    between atoms: C_15  and  O_16
REMARK    7  A    between atoms: O_16  and  C_17
REMARK                            x       y       z     vdW  Elec       q    Type
REMARK                         _______ _______ _______ _____ _____    ______ ____
ROOT
ATOM      1  C   UNL     1      46.896   4.383  14.380  0.00  0.00    +0.000 C 
ENDROOT
BRANCH   1   2
ATOM      2  O   UNL     1      47.023   4.582  15.795  0.00  0.00    +0.000 OA
BRANCH   2   6
ATOM      3  C   UNL     1      50.315   2.592  17.279  0.00  0.00    +0.000 A 
ATOM      4  C   UNL     1      49.281   1.866  16.686  0.00  0.00    +0.000 A 
ATOM      5  C   UNL     1      48.165   2.548  16.191  0.00  0.00    +0.000 A 
ATOM      6  C   UNL     1      48.130   3.931  16.309  0.00  0.00    +0.000 A 
ATOM      7  N   UNL     1      49.111   4.652  16.893  0.00  0.00    +0.000 NA
ATOM      8  C   UNL     1      50.175   3.968  17.374  0.00  0.00    +0.000 A 
BRANCH   3  10
ATOM      9  N   UNL     1      51.578   0.614  17.909  0.00  0.00    +0.000 N 
ATOM     10  C   UNL     1      51.544   1.977  17.825  0.00  0.00    +0.000 C 
ATOM     11  O   UNL     1      52.510   2.655  18.142  0.00  0.00    +0.000 OA
ATOM     12  H   UNL     1      52.473   0.210  18.160  0.00  0.00    +0.000 HD
ATOM     13  H   UNL     1      50.923   0.022  17.418  0.00  0.00    +0.000 HD
ENDBRANCH   3  10
ENDBRANCH   2   6
ENDBRANCH   1   2
BRANCH   1  14
ATOM     14  C   UNL     1      46.334   5.647  13.729  0.00  0.00    +0.000 C 
BRANCH  14  15
ATOM     15  C   UNL     1      45.317   5.308  12.666  0.00  0.00    +0.000 A 
ATOM     16  C   UNL     1      43.952   5.259  12.972  0.00  0.00    +0.000 A 
ATOM     17  C   UNL     1      43.013   5.004  11.969  0.00  0.00    +0.000 A 
ATOM     18  C   UNL     1      43.424   4.794  10.650  0.00  0.00    +0.000 A 
ATOM     19  C   UNL     1      44.781   4.834  10.337  0.00  0.00    +0.000 A 
ATOM     20  C   UNL     1      45.718   5.100  11.340  0.00  0.00    +0.000 A 
BRANCH  19  21
ATOM     21  O   UNL     1      45.302   4.674   9.079  0.00  0.00    +0.000 OA
BRANCH  21  22
ATOM     22  C   UNL     1      45.047   3.444   8.365  0.00  0.00    +0.000 C 
ATOM     23  C   UNL     1      45.248   2.119   9.112  0.00  0.00    +0.000 C 
ATOM     24  O   UNL     1      46.235   1.665   8.157  0.00  0.00    +0.000 OA
ATOM     25  C   UNL     1      46.209   2.949   7.493  0.00  0.00    +0.000 C 
ENDBRANCH  21  22
ENDBRANCH  19  21
ENDBRANCH  14  15
ENDBRANCH   1  14
TORSDOF 7
ENDMDL
MODEL 6
REMARK VINA RESULT:    -6.436      3.386      8.339
REMARK INTER + INTRA:          -9.806
REMARK INTER:                  -9.302
REMARK INTRA:                  -0.505
REMARK UNBOUND:                -0.737
REMARK  Name = 
REMARK  7 active torsions:
REMARK  status: ('A' for Active; 'I' for Inactive)
REMARK    1  A    between atoms: C_2  and  C_4
REMARK    2  A    between atoms: C_7  and  O_8
REMARK    3  A    between atoms: O_8  and  C_9
REMARK    4  A    between atoms: C_9  and  C_10
REMARK    5  A    between atoms: C_10  and  C_11
REMARK    6  A    between atoms: C_15  and  O_16
REMARK    7  A    between atoms: O_16  and  C_17
REMARK                            x       y       z     vdW  Elec       q    Type
REMARK                         _______ _______ _______ _____ _____    ______ ____
ROOT
ATOM      1  C   UNL     1      47.406   5.582  13.490  0.00  0.00    +0.000 C 
ENDROOT
BRANCH   1   2
ATOM      2  O   UNL     1      46.781   4.625  14.357  0.00  0.00    +0.000 OA
BRANCH   2   6
ATOM      3  C   UNL     1      48.603   4.403  18.049  0.00  0.00    +0.000 A 
ATOM      4  C   UNL     1      47.627   3.466  17.705  0.00  0.00    +0.000 A 
ATOM      5  C   UNL     1      47.009   3.553  16.454  0.00  0.00    +0.000 A 
ATOM      6  C   UNL     1      47.394   4.574  15.595  0.00  0.00    +0.000 A 
ATOM      7  N   UNL     1      48.324   5.501  15.913  0.00  0.00    +0.000 NA
ATOM      8  C   UNL     1      48.900   5.402  17.134  0.00  0.00    +0.000 A 
BRANCH   3  10
ATOM      9  N   UNL     1      48.657   3.935  20.433  0.00  0.00    +0.000 N 
ATOM     10  C   UNL     1      49.327   4.401  19.338  0.00  0.00    +0.000 C 
ATOM     11  O   UNL     1      50.495   4.753  19.414  0.00  0.00    +0.000 OA
ATOM     12  H   UNL     1      49.210   3.819  21.273  0.00  0.00    +0.000 HD
ATOM     13  H   UNL     1      47.805   3.397  20.360  0.00  0.00    +0.000 HD
ENDBRANCH   3  10
ENDBRANCH   2   6
ENDBRANCH   1   2
BRANCH   1  14
ATOM     14  C   UNL     1      46.353   6.538  12.930  0.00  0.00    +0.000 C 
BRANCH  14  15
ATOM     15  C   UNL     1      45.422   5.827  11.978  0.00  0.00    +0.000 A 
ATOM     16  C   UNL     1      44.120   5.492  12.367  0.00  0.00    +0.000 A 
ATOM     17  C   UNL     1      43.245   4.888  11.460  0.00  0.00    +0.000 A 
ATOM     18  C   UNL     1      43.658   4.611  10.155  0.00  0.00    +0.000 A 
ATOM     19  C   UNL     1      44.955   4.934   9.760  0.00  0.00    +0.000 A 
ATOM     20  C   UNL     1      45.825   5.548  10.665  0.00  0.00    +0.000 A 
BRANCH  19  21
ATOM     21  O   UNL     1      45.464   4.739   8.502  0.00  0.00    +0.000 OA
BRANCH  21  22
ATOM     22  C   UNL     1      45.294   3.452   7.867  0.00  0.00    +0.000 C 
ATOM     23  C   UNL     1      45.721   2.200   8.646  0.00  0.00    +0.000 C 
ATOM     24  O   UNL     1      46.663   1.814   7.619  0.00  0.00    +0.000 OA
ATOM     25  C   UNL     1      46.423   3.049   6.908  0.00  0.00    +0.000 C 
ENDBRANCH  21  22
ENDBRANCH  19  21
ENDBRANCH  14  15
ENDBRANCH   1  14
TORSDOF 7
ENDMDL
MODEL 7
REMARK VINA RESULT:    -6.425      3.037      7.595
REMARK INTER + INTRA:          -9.791
REMARK INTER:                  -9.214
REMARK INTRA:                  -0.577
REMARK UNBOUND:                -0.737
REMARK  Name = 
REMARK  7 active torsions:
REMARK  status: ('A' for Active; 'I' for Inactive)
REMARK    1  A    between atoms: C_2  and  C_4
REMARK    2  A    between atoms: C_7  and  O_8
REMARK    3  A    between atoms: O_8  and  C_9
REMARK    4  A    between atoms: C_9  and  C_10
REMARK    5  A    between atoms: C_10  and  C_11
REMARK    6  A    between atoms: C_15  and  O_16
REMARK    7  A    between atoms: O_16  and  C_17
REMARK                            x       y       z     vdW  Elec       q    Type
REMARK                         _______ _______ _______ _____ _____    ______ ____
ROOT
ATOM      1  C   UNL     1      47.793   6.583  12.262  0.00  0.00    +0.000 C 
ENDROOT
BRANCH   1   2
ATOM      2  O   UNL     1      48.172   7.141  13.528  0.00  0.00    +0.000 OA
BRANCH   2   6
ATOM      3  C   UNL     1      47.788   4.458  16.637  0.00  0.00    +0.000 A 
ATOM      4  C   UNL     1      48.603   5.581  16.792  0.00  0.00    +0.000 A 
ATOM      5  C   UNL     1      48.733   6.482  15.732  0.00  0.00    +0.000 A 
ATOM      6  C   UNL     1      48.041   6.224  14.556  0.00  0.00    +0.000 A 
ATOM      7  N   UNL     1      47.260   5.136  14.377  0.00  0.00    +0.000 NA
ATOM      8  C   UNL     1      47.159   4.273  15.415  0.00  0.00    +0.000 A 
BRANCH   3  10
ATOM      9  N   UNL     1      48.262   3.602  18.861  0.00  0.00    +0.000 N 
ATOM     10  C   UNL     1      47.570   3.448  17.693  0.00  0.00    +0.000 C 
ATOM     11  O   UNL     1      46.766   2.538  17.550  0.00  0.00    +0.000 OA
ATOM     12  H   UNL     1      48.000   2.979  19.615  0.00  0.00    +0.000 HD
ATOM     13  H   UNL     1      48.718   4.468  19.112  0.00  0.00    +0.000 HD
ENDBRANCH   3  10
ENDBRANCH   2   6
ENDBRANCH   1   2
BRANCH   1  14
ATOM     14  C   UNL     1      46.569   7.318  11.719  0.00  0.00    +0.000 C 
BRANCH  14  15
ATOM     15  C   UNL     1      45.417   6.368  11.493  0.00  0.00    +0.000 A 
ATOM     16  C   UNL     1      44.093   6.811  11.596  0.00  0.00    +0.000 A 
ATOM     17  C   UNL     1      43.035   5.939  11.327  0.00  0.00    +0.000 A 
ATOM     18  C   UNL     1      43.283   4.617  10.952  0.00  0.00    +0.000 A 
ATOM     19  C   UNL     1      44.598   4.165  10.853  0.00  0.00    +0.000 A 
ATOM     20  C   UNL     1      45.656   5.040  11.113  0.00  0.00    +0.000 A 
BRANCH  19  21
ATOM     21  O   UNL     1      44.966   2.902  10.467  0.00  0.00    +0.000 OA
BRANCH  21  22
ATOM     22  C   UNL     1      44.818   2.520   9.081  0.00  0.00    +0.000 C 
ATOM     23  C   UNL     1      45.990   1.802   8.400  0.00  0.00    +0.000 C 
ATOM     24  O   UNL     1      46.106   2.830   7.389  0.00  0.00    +0.000 OA
ATOM     25  C   UNL     1      45.113   3.633   8.066  0.00  0.00    +0.000 C 
ENDBRANCH  21  22
ENDBRANCH  19  21
ENDBRANCH  14  15
ENDBRANCH   1  14
TORSDOF 7
ENDMDL
MODEL 8
REMARK VINA RESULT:    -6.234      3.640      5.507
REMARK INTER + INTRA:          -9.523
REMARK INTER:                  -9.060
REMARK INTRA:                  -0.463
REMARK UNBOUND:                -0.737
REMARK  Name = 
REMARK  7 active torsions:
REMARK  status: ('A' for Active; 'I' for Inactive)
REMARK    1  A    between atoms: C_2  and  C_4
REMARK    2  A    between atoms: C_7  and  O_8
REMARK    3  A    between atoms: O_8  and  C_9
REMARK    4  A    between atoms: C_9  and  C_10
REMARK    5  A    between atoms: C_10  and  C_11
REMARK    6  A    between atoms: C_15  and  O_16
REMARK    7  A    between atoms: O_16  and  C_17
REMARK                            x       y       z     vdW  Elec       q    Type
REMARK                         _______ _______ _______ _____ _____    ______ ____
ROOT
ATOM      1  C   UNL     1      48.749   7.420  13.497  0.00  0.00    +0.000 C 
ENDROOT
BRANCH   1   2
ATOM      2  O   UNL     1      48.472   6.035  13.250  0.00  0.00    +0.000 OA
BRANCH   2   6
ATOM      3  C   UNL     1      44.582   5.439  12.019  0.00  0.00    +0.000 A 
ATOM      4  C   UNL     1      45.427   6.254  11.263  0.00  0.00    +0.000 A 
ATOM      5  C   UNL     1      46.742   6.456  11.691  0.00  0.00    +0.000 A 
ATOM      6  C   UNL     1      47.160   5.833  12.859  0.00  0.00    +0.000 A 
ATOM      7  N   UNL     1      46.356   5.054  13.615  0.00  0.00    +0.000 NA
ATOM      8  C   UNL     1      45.084   4.882  13.185  0.00  0.00    +0.000 A 
BRANCH   3  10
ATOM      9  N   UNL     1      42.287   6.179  11.721  0.00  0.00    +0.000 N 
ATOM     10  C   UNL     1      43.179   5.147  11.655  0.00  0.00    +0.000 C 
ATOM     11  O   UNL     1      42.838   4.041  11.264  0.00  0.00    +0.000 OA
ATOM     12  H   UNL     1      41.366   5.992  11.344  0.00  0.00    +0.000 HD
ATOM     13  H   UNL     1      42.577   7.146  11.778  0.00  0.00    +0.000 HD
ENDBRANCH   3  10
ENDBRANCH   2   6
ENDBRANCH   1   2
BRANCH   1  14
ATOM     14  C   UNL     1      48.592   7.722  14.987  0.00  0.00    +0.000 C 
BRANCH  14  15
ATOM     15  C   UNL     1      49.510   6.859  15.818  0.00  0.00    +0.000 A 
ATOM     16  C   UNL     1      50.896   7.051  15.787  0.00  0.00    +0.000 A 
ATOM     17  C   UNL     1      51.733   6.288  16.605  0.00  0.00    +0.000 A 
ATOM     18  C   UNL     1      51.198   5.324  17.464  0.00  0.00    +0.000 A 
ATOM     19  C   UNL     1      49.820   5.120  17.497  0.00  0.00    +0.000 A 
ATOM     20  C   UNL     1      48.983   5.892  16.686  0.00  0.00    +0.000 A 
BRANCH  19  21
ATOM     21  O   UNL     1      49.178   4.228  18.316  0.00  0.00    +0.000 OA
BRANCH  21  22
ATOM     22  C   UNL     1      49.092   2.843  17.916  0.00  0.00    +0.000 C 
ATOM     23  C   UNL     1      50.310   2.211  17.229  0.00  0.00    +0.000 C 
ATOM     24  O   UNL     1      49.546   1.887  16.045  0.00  0.00    +0.000 OA
ATOM     25  C   UNL     1      48.401   2.600  16.567  0.00  0.00    +0.000 C 
ENDBRANCH  21  22
ENDBRANCH  19  21
ENDBRANCH  14  15
ENDBRANCH   1  14
TORSDOF 7
ENDMDL
MODEL 9
REMARK VINA RESULT:    -6.105      3.740      7.841
REMARK INTER + INTRA:          -9.340
REMARK INTER:                  -8.723
REMARK INTRA:                  -0.617
REMARK UNBOUND:                -0.737
REMARK  Name = 
REMARK  7 active torsions:
REMARK  status: ('A' for Active; 'I' for Inactive)
REMARK    1  A    between atoms: C_2  and  C_4
REMARK    2  A    between atoms: C_7  and  O_8
REMARK    3  A    between atoms: O_8  and  C_9
REMARK    4  A    between atoms: C_9  and  C_10
REMARK    5  A    between atoms: C_10  and  C_11
REMARK    6  A    between atoms: C_15  and  O_16
REMARK    7  A    between atoms: O_16  and  C_17
REMARK                            x       y       z     vdW  Elec       q    Type
REMARK                         _______ _______ _______ _____ _____    ______ ____
ROOT
ATOM      1  C   UNL     1      47.130   4.609  15.067  0.00  0.00    +0.000 C 
ENDROOT
BRANCH   1   2
ATOM      2  O   UNL     1      47.470   4.662  16.460  0.00  0.00    +0.000 OA
BRANCH   2   6
ATOM      3  C   UNL     1      50.818   2.435  17.372  0.00  0.00    +0.000 A 
ATOM      4  C   UNL     1      50.784   3.792  17.696  0.00  0.00    +0.000 A 
ATOM      5  C   UNL     1      49.648   4.542  17.378  0.00  0.00    +0.000 A 
ATOM      6  C   UNL     1      48.589   3.902  16.747  0.00  0.00    +0.000 A 
ATOM      7  N   UNL     1      48.607   2.594  16.409  0.00  0.00    +0.000 NA
ATOM      8  C   UNL     1      49.722   1.893  16.718  0.00  0.00    +0.000 A 
BRANCH   3  10
ATOM      9  N   UNL     1      51.675   0.281  18.098  0.00  0.00    +0.000 N 
ATOM     10  C   UNL     1      51.961   1.546  17.671  0.00  0.00    +0.000 C 
ATOM     11  O   UNL     1      53.115   1.910  17.498  0.00  0.00    +0.000 OA
ATOM     12  H   UNL     1      52.465  -0.350  18.170  0.00  0.00    +0.000 HD
ATOM     13  H   UNL     1      50.760  -0.133  17.997  0.00  0.00    +0.000 HD
ENDBRANCH   3  10
ENDBRANCH   2   6
ENDBRANCH   1   2
BRANCH   1  14
ATOM     14  C   UNL     1      47.731   5.813  14.342  0.00  0.00    +0.000 C 
BRANCH  14  15
ATOM     15  C   UNL     1      46.751   6.400  13.355  0.00  0.00    +0.000 A 
ATOM     16  C   UNL     1      46.618   7.787  13.219  0.00  0.00    +0.000 A 
ATOM     17  C   UNL     1      45.753   8.322  12.261  0.00  0.00    +0.000 A 
ATOM     18  C   UNL     1      45.011   7.481  11.428  0.00  0.00    +0.000 A 
ATOM     19  C   UNL     1      45.132   6.099  11.560  0.00  0.00    +0.000 A 
ATOM     20  C   UNL     1      46.005   5.565  12.512  0.00  0.00    +0.000 A 
BRANCH  19  21
ATOM     21  O   UNL     1      44.481   5.176  10.783  0.00  0.00    +0.000 OA
BRANCH  21  22
ATOM     22  C   UNL     1      44.643   3.770  11.078  0.00  0.00    +0.000 C 
ATOM     23  C   UNL     1      44.552   2.772   9.916  0.00  0.00    +0.000 C 
ATOM     24  O   UNL     1      43.447   2.070  10.531  0.00  0.00    +0.000 OA
ATOM     25  C   UNL     1      43.376   3.063  11.580  0.00  0.00    +0.000 C 
ENDBRANCH  21  22
ENDBRANCH  19  21
ENDBRANCH  14  15
ENDBRANCH   1  14
TORSDOF 7
ENDMDL
