MODEL 1
REMARK VINA RESULT:    -8.550      0.000      0.000
REMARK INTER + INTRA:         -11.244
REMARK INTER:                 -10.550
REMARK INTRA:                  -0.694
REMARK UNBOUND:                -0.694
REMARK  Name = 
REMARK  4 active torsions:
REMARK  status: ('A' for Active; 'I' for Inactive)
REMARK    1  A    between atoms: C_2  and  C_5
REMARK    2  A    between atoms: C_9  and  C_10
REMARK    3  A    between atoms: N_15  and  C_16
REMARK    4  A    between atoms: C_16  and  C_17
REMARK                            x       y       z     vdW  Elec       q    Type
REMARK                         _______ _______ _______ _____ _____    ______ ____
ROOT
ATOM      1  C   UNL     1      45.664   4.678  12.957  0.00  0.00    +0.000 A 
ATOM      2  C   UNL     1      44.518   3.949  13.274  0.00  0.00    +0.000 A 
ATOM      3  C   UNL     1      43.668   3.561  12.255  0.00  0.00    +0.000 A 
ATOM      4  N   UNL     1      43.881   3.826  10.948  0.00  0.00    +0.000 NA
ATOM      5  C   UNL     1      44.971   4.544  10.632  0.00  0.00    +0.000 A 
ATOM      6  N   UNL     1      45.293   4.791   9.302  0.00  0.00    +0.000 N 
ATOM      7  C   UNL     1      45.860   4.994  11.604  0.00  0.00    +0.000 A 
ATOM      8  H   UNL     1      45.417   5.779   9.112  0.00  0.00    +0.000 HD
ENDROOT
BRANCH   1  13
ATOM      9  C   UNL     1      47.643   4.612  16.048  0.00  0.00    +0.000 A 
ATOM     10  C   UNL     1      48.465   5.734  15.952  0.00  0.00    +0.000 A 
ATOM     11  C   UNL     1      48.347   6.563  14.843  0.00  0.00    +0.000 A 
ATOM     12  C   UNL     1      47.422   6.250  13.851  0.00  0.00    +0.000 A 
ATOM     13  C   UNL     1      46.642   5.101  13.979  0.00  0.00    +0.000 A 
ATOM     14  N   UNL     1      46.742   4.300  15.071  0.00  0.00    +0.000 NA
BRANCH   9  16
ATOM     15  F   UNL     1      46.666   2.878  17.416  0.00  0.00    +0.000 F 
ATOM     16  C   UNL     1      47.749   3.701  17.263  0.00  0.00    +0.000 C 
ATOM     17  F   UNL     1      47.847   4.385  18.440  0.00  0.00    +0.000 F 
ATOM     18  F   UNL     1      48.829   2.869  17.219  0.00  0.00    +0.000 F 
ENDBRANCH   9  16
ENDBRANCH   1  13
BRANCH   6  19
ATOM     19  C   UNL     1      44.596   4.057   8.267  0.00  0.00    +0.000 C 
BRANCH  19  20
ATOM     20  C   UNL     1      45.562   3.026   7.748  0.00  0.00    +0.000 A 
ATOM     21  C   UNL     1      46.450   3.292   6.704  0.00  0.00    +0.000 A 
ATOM     22  C   UNL     1      47.383   2.326   6.335  0.00  0.00    +0.000 A 
ATOM     23  C   UNL     1      47.396   1.124   7.025  0.00  0.00    +0.000 A 
ATOM     24  N   UNL     1      46.554   0.830   8.038  0.00  0.00    +0.000 NA
ATOM     25  C   UNL     1      45.668   1.791   8.384  0.00  0.00    +0.000 A 
ENDBRANCH  19  20
ENDBRANCH   6  19
TORSDOF 4
ENDMDL
MODEL 2
REMARK VINA RESULT:    -8.183      1.768      2.195
REMARK INTER + INTRA:         -10.790
REMARK INTER:                 -10.037
REMARK INTRA:                  -0.753
REMARK UNBOUND:                -0.694
REMARK  Name = 
REMARK  4 active torsions:
REMARK  status: ('A' for Active; 'I' for Inactive)
REMARK    1  A    between atoms: C_2  and  C_5
REMARK    2  A    between atoms: C_9  and  C_10
REMARK    3  A    between atoms: N_15  and  C_16
REMARK    4  A    between atoms: C_16  and  C_17
REMARK                            x       y       z     vdW  Elec       q    Type
REMARK                         _______ _______ _______ _____ _____    ______ ____
ROOT
ATOM      1  C   UNL     1      46.609   5.963  12.556  0.00  0.00    +0.000 A 
ATOM      2  C   UNL     1      45.793   5.154  13.347  0.00  0.00    +0.000 A 
ATOM      3  C   UNL     1      44.804   4.402  12.740  0.00  0.00    +0.000 A 
ATOM      4  N   UNL     1      44.580   4.380  11.409  0.00  0.00    +0.000 NA
ATOM      5  C   UNL     1      45.346   5.169  10.638  0.00  0.00    +0.000 A 
ATOM      6  N   UNL     1      45.220   5.140   9.253  0.00  0.00    +0.000 N 
ATOM      7  C   UNL     1      46.344   5.975  11.178  0.00  0.00    +0.000 A 
ATOM      8  H   UNL     1      45.059   6.061   8.862  0.00  0.00    +0.000 HD
ENDROOT
BRANCH   1  13
ATOM      9  C   UNL     1      49.256   7.016  14.871  0.00  0.00    +0.000 A 
ATOM     10  C   UNL     1      49.808   8.146  14.268  0.00  0.00    +0.000 A 
ATOM     11  C   UNL     1      49.273   8.599  13.069  0.00  0.00    +0.000 A 
ATOM     12  C   UNL     1      48.210   7.911  12.491  0.00  0.00    +0.000 A 
ATOM     13  C   UNL     1      47.710   6.770  13.118  0.00  0.00    +0.000 A 
ATOM     14  N   UNL     1      48.219   6.336  14.301  0.00  0.00    +0.000 NA
BRANCH   9  16
ATOM     15  F   UNL     1      49.267   5.331  16.601  0.00  0.00    +0.000 F 
ATOM     16  C   UNL     1      49.820   6.514  16.193  0.00  0.00    +0.000 C 
ATOM     17  F   UNL     1      49.615   7.380  17.227  0.00  0.00    +0.000 F 
ATOM     18  F   UNL     1      51.164   6.287  16.153  0.00  0.00    +0.000 F 
ENDBRANCH   9  16
ENDBRANCH   1  13
BRANCH   6  19
ATOM     19  C   UNL     1      44.449   4.078   8.643  0.00  0.00    +0.000 C 
BRANCH  19  20
ATOM     20  C   UNL     1      45.440   3.113   8.053  0.00  0.00    +0.000 A 
ATOM     21  C   UNL     1      46.353   3.489   7.065  0.00  0.00    +0.000 A 
ATOM     22  C   UNL     1      47.307   2.572   6.629  0.00  0.00    +0.000 A 
ATOM     23  C   UNL     1      47.315   1.308   7.197  0.00  0.00    +0.000 A 
ATOM     24  N   UNL     1      46.451   0.907   8.152  0.00  0.00    +0.000 NA
ATOM     25  C   UNL     1      45.543   1.821   8.566  0.00  0.00    +0.000 A 
ENDBRANCH  19  20
ENDBRANCH   6  19
TORSDOF 4
ENDMDL
MODEL 3
REMARK VINA RESULT:    -7.883      3.855      4.407
REMARK INTER + INTRA:         -10.421
REMARK INTER:                  -9.674
REMARK INTRA:                  -0.747
REMARK UNBOUND:                -0.694
REMARK  Name = 
REMARK  4 active torsions:
REMARK  status: ('A' for Active; 'I' for Inactive)
REMARK    1  A    between atoms: C_2  and  C_5
REMARK    2  A    between atoms: C_9  and  C_10
REMARK    3  A    between atoms: N_15  and  C_16
REMARK    4  A    between atoms: C_16  and  C_17
REMARK                            x       y       z     vdW  Elec       q    Type
REMARK                         _______ _______ _______ _____ _____    ______ ____
ROOT
ATOM      1  C   UNL     1      46.552   6.240  12.441  0.00  0.00    +0.000 A 
ATOM      2  C   UNL     1      45.722   5.496  13.280  0.00  0.00    +0.000 A 
ATOM      3  C   UNL     1      44.751   4.689  12.717  0.00  0.00    +0.000 A 
ATOM      4  N   UNL     1      44.556   4.551  11.388  0.00  0.00    +0.000 NA
ATOM      5  C   UNL     1      45.337   5.277  10.570  0.00  0.00    +0.000 A 
ATOM      6  N   UNL     1      45.242   5.130   9.190  0.00  0.00    +0.000 N 
ATOM      7  C   UNL     1      46.318   6.133  11.061  0.00  0.00    +0.000 A 
ATOM      8  H   UNL     1      45.086   6.013   8.718  0.00  0.00    +0.000 HD
ENDROOT
BRANCH   1  13
ATOM      9  C   UNL     1      48.983   8.987  12.577  0.00  0.00    +0.000 A 
ATOM     10  C   UNL     1      49.614   8.824  13.810  0.00  0.00    +0.000 A 
ATOM     11  C   UNL     1      49.249   7.754  14.617  0.00  0.00    +0.000 A 
ATOM     12  C   UNL     1      48.257   6.879  14.186  0.00  0.00    +0.000 A 
ATOM     13  C   UNL     1      47.635   7.099  12.957  0.00  0.00    +0.000 A 
ATOM     14  N   UNL     1      48.004   8.133  12.157  0.00  0.00    +0.000 NA
BRANCH   9  16
ATOM     15  F   UNL     1      50.426   9.846  10.842  0.00  0.00    +0.000 F 
ATOM     16  C   UNL     1      49.380  10.145  11.672  0.00  0.00    +0.000 C 
ATOM     17  F   UNL     1      49.777  11.253  12.362  0.00  0.00    +0.000 F 
ATOM     18  F   UNL     1      48.373  10.554  10.849  0.00  0.00    +0.000 F 
ENDBRANCH   9  16
ENDBRANCH   1  13
BRANCH   6  19
ATOM     19  C   UNL     1      44.490   4.014   8.656  0.00  0.00    +0.000 C 
BRANCH  19  20
ATOM     20  C   UNL     1      45.494   3.074   8.045  0.00  0.00    +0.000 A 
ATOM     21  C   UNL     1      46.414   3.486   7.080  0.00  0.00    +0.000 A 
ATOM     22  C   UNL     1      47.378   2.589   6.626  0.00  0.00    +0.000 A 
ATOM     23  C   UNL     1      47.388   1.308   7.153  0.00  0.00    +0.000 A 
ATOM     24  N   UNL     1      46.515   0.872   8.085  0.00  0.00    +0.000 NA
ATOM     25  C   UNL     1      45.599   1.767   8.518  0.00  0.00    +0.000 A 
ENDBRANCH  19  20
ENDBRANCH   6  19
TORSDOF 4
ENDMDL
MODEL 4
REMARK VINA RESULT:    -7.441      1.152      1.902
REMARK INTER + INTRA:          -9.875
REMARK INTER:                  -9.314
REMARK INTRA:                  -0.561
REMARK UNBOUND:                -0.694
REMARK  Name = 
REMARK  4 active torsions:
REMARK  status: ('A' for Active; 'I' for Inactive)
REMARK    1  A    between atoms: C_2  and  C_5
REMARK    2  A    between atoms: C_9  and  C_10
REMARK    3  A    between atoms: N_15  and  C_16
REMARK    4  A    between atoms: C_16  and  C_17
REMARK                            x       y       z     vdW  Elec       q    Type
REMARK                         _______ _______ _______ _____ _____    ______ ____
ROOT
ATOM      1  C   UNL     1      46.894   5.396  13.486  0.00  0.00    +0.000 A 
ATOM      2  C   UNL     1      46.710   6.550  12.724  0.00  0.00    +0.000 A 
ATOM      3  C   UNL     1      46.079   6.449  11.498  0.00  0.00    +0.000 A 
ATOM      4  N   UNL     1      45.603   5.296  10.983  0.00  0.00    +0.000 NA
ATOM      5  C   UNL     1      45.790   4.174  11.699  0.00  0.00    +0.000 A 
ATOM      6  N   UNL     1      45.261   2.963  11.266  0.00  0.00    +0.000 N 
ATOM      7  C   UNL     1      46.440   4.190  12.930  0.00  0.00    +0.000 A 
ATOM      8  H   UNL     1      45.963   2.236  11.205  0.00  0.00    +0.000 HD
ENDROOT
BRANCH   1  13
ATOM      9  C   UNL     1      48.057   4.194  16.754  0.00  0.00    +0.000 A 
ATOM     10  C   UNL     1      48.708   5.294  17.311  0.00  0.00    +0.000 A 
ATOM     11  C   UNL     1      48.743   6.487  16.600  0.00  0.00    +0.000 A 
ATOM     12  C   UNL     1      48.140   6.555  15.348  0.00  0.00    +0.000 A 
ATOM     13  C   UNL     1      47.525   5.420  14.820  0.00  0.00    +0.000 A 
ATOM     14  N   UNL     1      47.473   4.257  15.521  0.00  0.00    +0.000 NA
BRANCH   9  16
ATOM     15  F   UNL     1      48.659   1.860  16.904  0.00  0.00    +0.000 F 
ATOM     16  C   UNL     1      47.995   2.882  17.525  0.00  0.00    +0.000 C 
ATOM     17  F   UNL     1      46.722   2.426  17.705  0.00  0.00    +0.000 F 
ATOM     18  F   UNL     1      48.546   2.965  18.770  0.00  0.00    +0.000 F 
ENDBRANCH   9  16
ENDBRANCH   1  13
BRANCH   6  19
ATOM     19  C   UNL     1      44.297   2.968  10.186  0.00  0.00    +0.000 C 
BRANCH  19  20
ATOM     20  C   UNL     1      45.069   2.718   8.919  0.00  0.00    +0.000 A 
ATOM     21  C   UNL     1      45.261   3.708   7.954  0.00  0.00    +0.000 A 
ATOM     22  C   UNL     1      46.067   3.440   6.849  0.00  0.00    +0.000 A 
ATOM     23  C   UNL     1      46.653   2.188   6.749  0.00  0.00    +0.000 A 
ATOM     24  N   UNL     1      46.491   1.207   7.660  0.00  0.00    +0.000 NA
ATOM     25  C   UNL     1      45.715   1.499   8.729  0.00  0.00    +0.000 A 
ENDBRANCH  19  20
ENDBRANCH   6  19
TORSDOF 4
ENDMDL
MODEL 5
REMARK VINA RESULT:    -7.372      1.951      2.807
REMARK INTER + INTRA:          -9.791
REMARK INTER:                  -9.205
REMARK INTRA:                  -0.586
REMARK UNBOUND:                -0.694
REMARK  Name = 
REMARK  4 active torsions:
REMARK  status: ('A' for Active; 'I' for Inactive)
REMARK    1  A    between atoms: C_2  and  C_5
REMARK    2  A    between atoms: C_9  and  C_10
REMARK    3  A    between atoms: N_15  and  C_16
REMARK    4  A    between atoms: C_16  and  C_17
REMARK                            x       y       z     vdW  Elec       q    Type
REMARK                         _______ _______ _______ _____ _____    ______ ____
ROOT
ATOM      1  C   UNL     1      46.860   4.840  14.052  0.00  0.00    +0.000 A 
ATOM      2  C   UNL     1      46.812   6.094  13.443  0.00  0.00    +0.000 A 
ATOM      3  C   UNL     1      46.243   6.207  12.188  0.00  0.00    +0.000 A 
ATOM      4  N   UNL     1      45.702   5.176  11.505  0.00  0.00    +0.000 NA
ATOM      5  C   UNL     1      45.759   3.960  12.073  0.00  0.00    +0.000 A 
ATOM      6  N   UNL     1      45.157   2.866  11.460  0.00  0.00    +0.000 N 
ATOM      7  C   UNL     1      46.340   3.760  13.321  0.00  0.00    +0.000 A 
ATOM      8  H   UNL     1      45.799   2.093  11.334  0.00  0.00    +0.000 HD
ENDROOT
BRANCH   1  13
ATOM      9  C   UNL     1      49.006   5.334  16.989  0.00  0.00    +0.000 A 
ATOM     10  C   UNL     1      48.533   4.408  17.918  0.00  0.00    +0.000 A 
ATOM     11  C   UNL     1      47.487   3.567  17.558  0.00  0.00    +0.000 A 
ATOM     12  C   UNL     1      46.929   3.675  16.288  0.00  0.00    +0.000 A 
ATOM     13  C   UNL     1      47.418   4.636  15.403  0.00  0.00    +0.000 A 
ATOM     14  N   UNL     1      48.453   5.446  15.746  0.00  0.00    +0.000 NA
BRANCH   9  16
ATOM     15  F   UNL     1      51.364   5.839  16.857  0.00  0.00    +0.000 F 
ATOM     16  C   UNL     1      50.161   6.254  17.361  0.00  0.00    +0.000 C 
ATOM     17  F   UNL     1      50.353   6.357  18.707  0.00  0.00    +0.000 F 
ATOM     18  F   UNL     1      50.001   7.529  16.904  0.00  0.00    +0.000 F 
ENDBRANCH   9  16
ENDBRANCH   1  13
BRANCH   6  19
ATOM     19  C   UNL     1      44.256   3.095  10.350  0.00  0.00    +0.000 C 
BRANCH  19  20
ATOM     20  C   UNL     1      45.060   2.891   9.095  0.00  0.00    +0.000 A 
ATOM     21  C   UNL     1      45.367   3.939   8.226  0.00  0.00    +0.000 A 
ATOM     22  C   UNL     1      46.197   3.702   7.132  0.00  0.00    +0.000 A 
ATOM     23  C   UNL     1      46.691   2.420   6.945  0.00  0.00    +0.000 A 
ATOM     24  N   UNL     1      46.417   1.382   7.762  0.00  0.00    +0.000 NA
ATOM     25  C   UNL     1      45.620   1.644   8.823  0.00  0.00    +0.000 A 
ENDBRANCH  19  20
ENDBRANCH   6  19
TORSDOF 4
ENDMDL
MODEL 6
REMARK VINA RESULT:    -7.258      1.935      3.071
REMARK INTER + INTRA:          -9.649
REMARK INTER:                  -9.155
REMARK INTRA:                  -0.494
REMARK UNBOUND:                -0.694
REMARK  Name = 
REMARK  4 active torsions:
REMARK  status: ('A' for Active; 'I' for Inactive)
REMARK    1  A    between atoms: C_2  and  C_5
REMARK    2  A    between atoms: C_9  and  C_10
REMARK    3  A    between atoms: N_15  and  C_16
REMARK    4  A    between atoms: C_16  and  C_17
REMARK                            x       y       z     vdW  Elec       q    Type
REMARK                         _______ _______ _______ _____ _____    ______ ____
ROOT
ATOM      1  C   UNL     1      47.080   4.572  14.586  0.00  0.00    +0.000 A 
ATOM      2  C   UNL     1      47.260   5.838  14.027  0.00  0.00    +0.000 A 
ATOM      3  C   UNL     1      46.734   6.100  12.776  0.00  0.00    +0.000 A 
ATOM      4  N   UNL     1      46.027   5.208  12.050  0.00  0.00    +0.000 NA
ATOM      5  C   UNL     1      45.861   3.979  12.568  0.00  0.00    +0.000 A 
ATOM      6  N   UNL     1      45.082   3.034  11.910  0.00  0.00    +0.000 N 
ATOM      7  C   UNL     1      46.385   3.631  13.810  0.00  0.00    +0.000 A 
ATOM      8  H   UNL     1      45.580   2.165  11.754  0.00  0.00    +0.000 HD
ENDROOT
BRANCH   1  13
ATOM      9  C   UNL     1      47.945   4.951  18.133  0.00  0.00    +0.000 A 
ATOM     10  C   UNL     1      48.428   3.696  18.503  0.00  0.00    +0.000 A 
ATOM     11  C   UNL     1      48.500   2.693  17.545  0.00  0.00    +0.000 A 
ATOM     12  C   UNL     1      48.080   2.957  16.245  0.00  0.00    +0.000 A 
ATOM     13  C   UNL     1      47.579   4.220  15.930  0.00  0.00    +0.000 A 
ATOM     14  N   UNL     1      47.525   5.208  16.859  0.00  0.00    +0.000 NA
BRANCH   9  16
ATOM     15  F   UNL     1      46.812   5.944  20.020  0.00  0.00    +0.000 F 
ATOM     16  C   UNL     1      47.873   6.067  19.166  0.00  0.00    +0.000 C 
ATOM     17  F   UNL     1      47.743   7.306  18.609  0.00  0.00    +0.000 F 
ATOM     18  F   UNL     1      48.975   6.128  19.968  0.00  0.00    +0.000 F 
ENDBRANCH   9  16
ENDBRANCH   1  13
BRANCH   6  19
ATOM     19  C   UNL     1      44.248   3.462  10.807  0.00  0.00    +0.000 C 
BRANCH  19  20
ATOM     20  C   UNL     1      45.066   3.288   9.557  0.00  0.00    +0.000 A 
ATOM     21  C   UNL     1      45.456   2.032   9.088  0.00  0.00    +0.000 A 
ATOM     22  C   UNL     1      46.130   1.933   7.873  0.00  0.00    +0.000 A 
ATOM     23  C   UNL     1      46.392   3.097   7.168  0.00  0.00    +0.000 A 
ATOM     24  N   UNL     1      46.033   4.328   7.588  0.00  0.00    +0.000 NA
ATOM     25  C   UNL     1      45.368   4.393   8.764  0.00  0.00    +0.000 A 
ENDBRANCH  19  20
ENDBRANCH   6  19
TORSDOF 4
ENDMDL
MODEL 7
REMARK VINA RESULT:    -6.715      3.740      7.768
REMARK INTER + INTRA:          -8.980
REMARK INTER:                  -8.257
REMARK INTRA:                  -0.723
REMARK UNBOUND:                -0.694
REMARK  Name = 
REMARK  4 active torsions:
REMARK  status: ('A' for Active; 'I' for Inactive)
REMARK    1  A    between atoms: C_2  and  C_5
REMARK    2  A    between atoms: C_9  and  C_10
REMARK    3  A    between atoms: N_15  and  C_16
REMARK    4  A    between atoms: C_16  and  C_17
REMARK                            x       y       z     vdW  Elec       q    Type
REMARK                         _______ _______ _______ _____ _____    ______ ____
ROOT
ATOM      1  C   UNL     1      47.661   6.154  13.692  0.00  0.00    +0.000 A 
ATOM      2  C   UNL     1      48.664   7.109  13.531  0.00  0.00    +0.000 A 
ATOM      3  C   UNL     1      49.546   7.337  14.571  0.00  0.00    +0.000 A 
ATOM      4  N   UNL     1      49.517   6.676  15.747  0.00  0.00    +0.000 NA
ATOM      5  C   UNL     1      48.544   5.766  15.923  0.00  0.00    +0.000 A 
ATOM      6  N   UNL     1      48.498   4.995  17.079  0.00  0.00    +0.000 N 
ATOM      7  C   UNL     1      47.602   5.500  14.933  0.00  0.00    +0.000 A 
ATOM      8  H   UNL     1      47.599   5.052  17.545  0.00  0.00    +0.000 HD
ENDROOT
BRANCH   1  13
ATOM      9  C   UNL     1      44.758   4.637  12.033  0.00  0.00    +0.000 A 
ATOM     10  C   UNL     1      44.798   5.152  10.738  0.00  0.00    +0.000 A 
ATOM     11  C   UNL     1      45.833   6.008  10.384  0.00  0.00    +0.000 A 
ATOM     12  C   UNL     1      46.798   6.342  11.330  0.00  0.00    +0.000 A 
ATOM     13  C   UNL     1      46.700   5.823  12.621  0.00  0.00    +0.000 A 
ATOM     14  N   UNL     1      45.700   4.971  12.964  0.00  0.00    +0.000 NA
BRANCH   9  16
ATOM     15  F   UNL     1      44.065   2.397  12.611  0.00  0.00    +0.000 F 
ATOM     16  C   UNL     1      43.640   3.686  12.434  0.00  0.00    +0.000 C 
ATOM     17  F   UNL     1      42.642   3.609  11.506  0.00  0.00    +0.000 F 
ATOM     18  F   UNL     1      43.037   4.030  13.608  0.00  0.00    +0.000 F 
ENDBRANCH   9  16
ENDBRANCH   1  13
BRANCH   6  19
ATOM     19  C   UNL     1      49.642   4.996  17.966  0.00  0.00    +0.000 C 
BRANCH  19  20
ATOM     20  C   UNL     1      50.401   3.727  17.689  0.00  0.00    +0.000 A 
ATOM     21  C   UNL     1      51.754   3.582  18.000  0.00  0.00    +0.000 A 
ATOM     22  C   UNL     1      52.374   2.350  17.806  0.00  0.00    +0.000 A 
ATOM     23  C   UNL     1      51.616   1.302  17.307  0.00  0.00    +0.000 A 
ATOM     24  N   UNL     1      50.308   1.403  16.994  0.00  0.00    +0.000 NA
ATOM     25  C   UNL     1      49.728   2.607  17.205  0.00  0.00    +0.000 A 
ENDBRANCH  19  20
ENDBRANCH   6  19
TORSDOF 4
ENDMDL
MODEL 8
REMARK VINA RESULT:    -6.609      4.403      8.612
REMARK INTER + INTRA:          -8.849
REMARK INTER:                  -8.255
REMARK INTRA:                  -0.594
REMARK UNBOUND:                -0.694
REMARK  Name = 
REMARK  4 active torsions:
REMARK  status: ('A' for Active; 'I' for Inactive)
REMARK    1  A    between atoms: C_2  and  C_5
REMARK    2  A    between atoms: C_9  and  C_10
REMARK    3  A    between atoms: N_15  and  C_16
REMARK    4  A    between atoms: C_16  and  C_17
REMARK                            x       y       z     vdW  Elec       q    Type
REMARK                         _______ _______ _______ _____ _____    ______ ____
ROOT
ATOM      1  C   UNL     1      45.392   6.184  11.670  0.00  0.00    +0.000 A 
ATOM      2  C   UNL     1      44.810   7.414  11.359  0.00  0.00    +0.000 A 
ATOM      3  C   UNL     1      45.222   8.542  12.043  0.00  0.00    +0.000 A 
ATOM      4  N   UNL     1      46.178   8.543  12.996  0.00  0.00    +0.000 NA
ATOM      5  C   UNL     1      46.733   7.363  13.319  0.00  0.00    +0.000 A 
ATOM      6  N   UNL     1      47.774   7.300  14.238  0.00  0.00    +0.000 N 
ATOM      7  C   UNL     1      46.352   6.179  12.694  0.00  0.00    +0.000 A 
ATOM      8  H   UNL     1      47.584   6.650  14.992  0.00  0.00    +0.000 HD
ENDROOT
BRANCH   1  13
ATOM      9  C   UNL     1      45.405   3.585   9.078  0.00  0.00    +0.000 A 
ATOM     10  C   UNL     1      44.513   2.625   9.552  0.00  0.00    +0.000 A 
ATOM     11  C   UNL     1      43.858   2.850  10.756  0.00  0.00    +0.000 A 
ATOM     12  C   UNL     1      44.115   4.019  11.466  0.00  0.00    +0.000 A 
ATOM     13  C   UNL     1      45.036   4.937  10.964  0.00  0.00    +0.000 A 
ATOM     14  N   UNL     1      45.664   4.729   9.778  0.00  0.00    +0.000 NA
BRANCH   9  16
ATOM     15  F   UNL     1      45.266   3.243   6.691  0.00  0.00    +0.000 F 
ATOM     16  C   UNL     1      46.121   3.362   7.753  0.00  0.00    +0.000 C 
ATOM     17  F   UNL     1      46.875   2.225   7.735  0.00  0.00    +0.000 F 
ATOM     18  F   UNL     1      46.967   4.379   7.421  0.00  0.00    +0.000 F 
ENDBRANCH   9  16
ENDBRANCH   1  13
BRANCH   6  19
ATOM     19  C   UNL     1      48.423   8.528  14.644  0.00  0.00    +0.000 C 
BRANCH  19  20
ATOM     20  C   UNL     1      48.544   8.475  16.143  0.00  0.00    +0.000 A 
ATOM     21  C   UNL     1      47.990   9.452  16.972  0.00  0.00    +0.000 A 
ATOM     22  C   UNL     1      48.054   9.294  18.355  0.00  0.00    +0.000 A 
ATOM     23  C   UNL     1      48.672   8.162  18.861  0.00  0.00    +0.000 A 
ATOM     24  N   UNL     1      49.219   7.197  18.093  0.00  0.00    +0.000 NA
ATOM     25  C   UNL     1      49.131   7.369  16.754  0.00  0.00    +0.000 A 
ENDBRANCH  19  20
ENDBRANCH   6  19
TORSDOF 4
ENDMDL
MODEL 9
REMARK VINA RESULT:    -6.497      5.188      7.311
REMARK INTER + INTRA:          -8.710
REMARK INTER:                  -8.035
REMARK INTRA:                  -0.675
REMARK UNBOUND:                -0.694
REMARK  Name = 
REMARK  4 active torsions:
REMARK  status: ('A' for Active; 'I' for Inactive)
REMARK    1  A    between atoms: C_2  and  C_5
REMARK    2  A    between atoms: C_9  and  C_10
REMARK    3  A    between atoms: N_15  and  C_16
REMARK    4  A    between atoms: C_16  and  C_17
REMARK                            x       y       z     vdW  Elec       q    Type
REMARK                         _______ _______ _______ _____ _____    ______ ____
ROOT
ATOM      1  C   UNL     1      45.697   6.565  11.882  0.00  0.00    +0.000 A 
ATOM      2  C   UNL     1      45.030   7.782  12.021  0.00  0.00    +0.000 A 
ATOM      3  C   UNL     1      45.769   8.932  12.225  0.00  0.00    +0.000 A 
ATOM      4  N   UNL     1      47.117   8.966  12.281  0.00  0.00    +0.000 NA
ATOM      5  C   UNL     1      47.772   7.798  12.168  0.00  0.00    +0.000 A 
ATOM      6  N   UNL     1      49.162   7.768  12.142  0.00  0.00    +0.000 N 
ATOM      7  C   UNL     1      47.097   6.595  11.987  0.00  0.00    +0.000 A 
ATOM      8  H   UNL     1      49.546   7.140  12.839  0.00  0.00    +0.000 HD
ENDROOT
BRANCH   1  13
ATOM      9  C   UNL     1      44.661   3.503  10.142  0.00  0.00    +0.000 A 
ATOM     10  C   UNL     1      43.777   2.889  11.029  0.00  0.00    +0.000 A 
ATOM     11  C   UNL     1      43.486   3.517  12.233  0.00  0.00    +0.000 A 
ATOM     12  C   UNL     1      44.090   4.734  12.533  0.00  0.00    +0.000 A 
ATOM     13  C   UNL     1      44.988   5.296  11.626  0.00  0.00    +0.000 A 
ATOM     14  N   UNL     1      45.260   4.694  10.439  0.00  0.00    +0.000 NA
BRANCH   9  16
ATOM     15  F   UNL     1      44.771   1.485   8.820  0.00  0.00    +0.000 F 
ATOM     16  C   UNL     1      44.980   2.837   8.811  0.00  0.00    +0.000 C 
ATOM     17  F   UNL     1      46.280   2.996   8.430  0.00  0.00    +0.000 F 
ATOM     18  F   UNL     1      44.225   3.311   7.779  0.00  0.00    +0.000 F 
ENDBRANCH   9  16
ENDBRANCH   1  13
BRANCH   6  19
ATOM     19  C   UNL     1      49.886   9.010  11.979  0.00  0.00    +0.000 C 
BRANCH  19  20
ATOM     20  C   UNL     1      51.057   8.710  11.083  0.00  0.00    +0.000 A 
ATOM     21  C   UNL     1      51.368   7.414  10.669  0.00  0.00    +0.000 A 
ATOM     22  C   UNL     1      52.408   7.216   9.763  0.00  0.00    +0.000 A 
ATOM     23  C   UNL     1      53.101   8.323   9.302  0.00  0.00    +0.000 A 
ATOM     24  N   UNL     1      52.831   9.590   9.679  0.00  0.00    +0.000 NA
ATOM     25  C   UNL     1      51.808   9.755  10.549  0.00  0.00    +0.000 A 
ENDBRANCH  19  20
ENDBRANCH   6  19
TORSDOF 4
ENDMDL
