MODEL 1
REMARK VINA RESULT:    -7.241      0.000      0.000
REMARK INTER + INTRA:          -9.958
REMARK INTER:                  -9.146
REMARK INTRA:                  -0.813
REMARK UNBOUND:                -0.813
REMARK  Name = 
REMARK  5 active torsions:
REMARK  status: ('A' for Active; 'I' for Inactive)
REMARK    1  A    between atoms: N_1  and  C_2
REMARK    2  A    between atoms: C_2  and  C_3
REMARK    3  A    between atoms: C_6  and  C_7
REMARK    4  A    between atoms: C_7  and  N_8
REMARK    5  A    between atoms: C_13  and  C_14
REMARK                            x       y       z     vdW  Elec       q    Type
REMARK                         _______ _______ _______ _____ _____    ______ ____
ROOT
ATOM      1  N   UNL     1      44.394   4.728  10.529  0.00  0.00    +0.000 N 
ATOM      2  C   UNL     1      43.683   3.705  11.109  0.00  0.00    +0.000 A 
ATOM      3  C   UNL     1      44.087   2.524  10.531  0.00  0.00    +0.000 A 
ATOM      4  C   UNL     1      44.994   2.846   9.488  0.00  0.00    +0.000 A 
ATOM      5  C   UNL     1      45.687   2.065   8.540  0.00  0.00    +0.000 A 
ATOM      6  C   UNL     1      46.485   2.700   7.579  0.00  0.00    +0.000 A 
ATOM      7  C   UNL     1      46.637   4.090   7.596  0.00  0.00    +0.000 A 
ATOM      8  C   UNL     1      45.982   4.879   8.548  0.00  0.00    +0.000 A 
ATOM      9  C   UNL     1      45.154   4.235   9.484  0.00  0.00    +0.000 A 
ENDROOT
BRANCH   6  10
ATOM     10  C   UNL     1      47.188   1.924   6.524  0.00  0.00    +0.000 C 
ATOM     11  N   UNL     1      47.914   2.629   5.604  0.00  0.00    +0.000 N 
ATOM     12  O   UNL     1      47.166   0.699   6.499  0.00  0.00    +0.000 OA
ATOM     13  H   UNL     1      48.159   3.599   5.736  0.00  0.00    +0.000 HD
ATOM     14  H   UNL     1      48.482   2.083   4.968  0.00  0.00    +0.000 HD
ENDBRANCH   6  10
BRANCH   1  15
ATOM     15  C   UNL     1      44.349   6.112  10.992  0.00  0.00    +0.000 C 
BRANCH  15  19
ATOM     16  C   UNL     1      47.431   8.156  12.165  0.00  0.00    +0.000 C 
ATOM     17  C   UNL     1      47.473   6.694  11.687  0.00  0.00    +0.000 C 
ATOM     18  C   UNL     1      46.473   5.796  12.413  0.00  0.00    +0.000 C 
ATOM     19  C   UNL     1      45.029   6.324  12.366  0.00  0.00    +0.000 C 
ATOM     20  C   UNL     1      44.975   7.798  12.801  0.00  0.00    +0.000 C 
ATOM     21  C   UNL     1      45.990   8.686  12.082  0.00  0.00    +0.000 C 
BRANCH  16  22
ATOM     22  C   UNL     1      48.022   8.361  13.577  0.00  0.00    +0.000 C 
BRANCH  22  23
ATOM     23  N   UNL     1      47.872   9.737  14.042  0.00  0.00    +0.000 NA
ATOM     24  H   UNL     1      47.797   9.745  15.059  0.00  0.00    +0.000 HD
ATOM     25  H   UNL     1      46.997  10.126  13.691  0.00  0.00    +0.000 HD
ENDBRANCH  22  23
ENDBRANCH  16  22
ENDBRANCH  15  19
ENDBRANCH   1  15
TORSDOF 5
ENDMDL
MODEL 2
REMARK VINA RESULT:    -6.703      2.670      6.780
REMARK INTER + INTRA:          -9.279
REMARK INTER:                  -8.498
REMARK INTRA:                  -0.781
REMARK UNBOUND:                -0.813
REMARK  Name = 
REMARK  5 active torsions:
REMARK  status: ('A' for Active; 'I' for Inactive)
REMARK    1  A    between atoms: N_1  and  C_2
REMARK    2  A    between atoms: C_2  and  C_3
REMARK    3  A    between atoms: C_6  and  C_7
REMARK    4  A    between atoms: C_7  and  N_8
REMARK    5  A    between atoms: C_13  and  C_14
REMARK                            x       y       z     vdW  Elec       q    Type
REMARK                         _______ _______ _______ _____ _____    ______ ____
ROOT
ATOM      1  N   UNL     1      44.313   4.183  10.951  0.00  0.00    +0.000 N 
ATOM      2  C   UNL     1      42.969   4.356  11.176  0.00  0.00    +0.000 A 
ATOM      3  C   UNL     1      42.763   5.668  11.536  0.00  0.00    +0.000 A 
ATOM      4  C   UNL     1      44.036   6.287  11.642  0.00  0.00    +0.000 A 
ATOM      5  C   UNL     1      44.446   7.585  12.010  0.00  0.00    +0.000 A 
ATOM      6  C   UNL     1      45.815   7.880  12.073  0.00  0.00    +0.000 A 
ATOM      7  C   UNL     1      46.761   6.914  11.717  0.00  0.00    +0.000 A 
ATOM      8  C   UNL     1      46.371   5.631  11.318  0.00  0.00    +0.000 A 
ATOM      9  C   UNL     1      44.998   5.334  11.296  0.00  0.00    +0.000 A 
ENDROOT
BRANCH   6  10
ATOM     10  C   UNL     1      46.298   9.215  12.513  0.00  0.00    +0.000 C 
ATOM     11  N   UNL     1      45.502  10.293  12.238  0.00  0.00    +0.000 N 
ATOM     12  O   UNL     1      47.340   9.351  13.142  0.00  0.00    +0.000 OA
ATOM     13  H   UNL     1      44.538  10.196  11.953  0.00  0.00    +0.000 HD
ATOM     14  H   UNL     1      45.783  11.174  12.648  0.00  0.00    +0.000 HD
ENDBRANCH   6  10
BRANCH   1  15
ATOM     15  C   UNL     1      44.893   2.960  10.402  0.00  0.00    +0.000 C 
BRANCH  15  19
ATOM     16  C   UNL     1      47.134   2.973   7.234  0.00  0.00    +0.000 C 
ATOM     17  C   UNL     1      46.441   4.211   7.828  0.00  0.00    +0.000 C 
ATOM     18  C   UNL     1      44.943   4.013   8.051  0.00  0.00    +0.000 C 
ATOM     19  C   UNL     1      44.608   2.769   8.892  0.00  0.00    +0.000 C 
ATOM     20  C   UNL     1      45.327   1.528   8.335  0.00  0.00    +0.000 C 
ATOM     21  C   UNL     1      46.823   1.740   8.100  0.00  0.00    +0.000 C 
BRANCH  16  22
ATOM     22  C   UNL     1      46.780   2.719   5.752  0.00  0.00    +0.000 C 
BRANCH  22  23
ATOM     23  N   UNL     1      47.969   2.537   4.926  0.00  0.00    +0.000 NA
ATOM     24  H   UNL     1      47.690   2.273   3.981  0.00  0.00    +0.000 HD
ATOM     25  H   UNL     1      48.523   1.759   5.284  0.00  0.00    +0.000 HD
ENDBRANCH  22  23
ENDBRANCH  16  22
ENDBRANCH  15  19
ENDBRANCH   1  15
TORSDOF 5
ENDMDL
MODEL 3
REMARK VINA RESULT:    -6.335      1.364      1.657
REMARK INTER + INTRA:          -8.814
REMARK INTER:                  -8.029
REMARK INTRA:                  -0.786
REMARK UNBOUND:                -0.813
REMARK  Name = 
REMARK  5 active torsions:
REMARK  status: ('A' for Active; 'I' for Inactive)
REMARK    1  A    between atoms: N_1  and  C_2
REMARK    2  A    between atoms: C_2  and  C_3
REMARK    3  A    between atoms: C_6  and  C_7
REMARK    4  A    between atoms: C_7  and  N_8
REMARK    5  A    between atoms: C_13  and  C_14
REMARK                            x       y       z     vdW  Elec       q    Type
REMARK                         _______ _______ _______ _____ _____    ______ ____
ROOT
ATOM      1  N   UNL     1      44.107   5.912  11.392  0.00  0.00    +0.000 N 
ATOM      2  C   UNL     1      43.145   5.246  12.111  0.00  0.00    +0.000 A 
ATOM      3  C   UNL     1      43.189   3.919  11.753  0.00  0.00    +0.000 A 
ATOM      4  C   UNL     1      44.133   3.790  10.701  0.00  0.00    +0.000 A 
ATOM      5  C   UNL     1      44.561   2.696   9.921  0.00  0.00    +0.000 A 
ATOM      6  C   UNL     1      45.491   2.907   8.894  0.00  0.00    +0.000 A 
ATOM      7  C   UNL     1      46.032   4.179   8.684  0.00  0.00    +0.000 A 
ATOM      8  C   UNL     1      45.642   5.271   9.468  0.00  0.00    +0.000 A 
ATOM      9  C   UNL     1      44.681   5.056  10.470  0.00  0.00    +0.000 A 
ENDROOT
BRANCH   6  10
ATOM     10  C   UNL     1      45.928   1.797   8.008  0.00  0.00    +0.000 C 
ATOM     11  N   UNL     1      46.555   2.135   6.840  0.00  0.00    +0.000 N 
ATOM     12  O   UNL     1      45.784   0.622   8.324  0.00  0.00    +0.000 OA
ATOM     13  H   UNL     1      46.913   3.063   6.666  0.00  0.00    +0.000 HD
ATOM     14  H   UNL     1      46.953   1.371   6.308  0.00  0.00    +0.000 HD
ENDBRANCH   6  10
BRANCH   1  15
ATOM     15  C   UNL     1      44.464   7.311  11.615  0.00  0.00    +0.000 C 
BRANCH  15  19
ATOM     16  C   UNL     1      48.235   8.023  12.189  0.00  0.00    +0.000 C 
ATOM     17  C   UNL     1      47.603   6.622  12.123  0.00  0.00    +0.000 C 
ATOM     18  C   UNL     1      46.413   6.456  13.066  0.00  0.00    +0.000 C 
ATOM     19  C   UNL     1      45.328   7.531  12.880  0.00  0.00    +0.000 C 
ATOM     20  C   UNL     1      45.950   8.937  12.902  0.00  0.00    +0.000 C 
ATOM     21  C   UNL     1      47.150   9.091  11.968  0.00  0.00    +0.000 C 
BRANCH  16  22
ATOM     22  C   UNL     1      49.021   8.286  13.493  0.00  0.00    +0.000 C 
BRANCH  22  23
ATOM     23  N   UNL     1      49.859   7.152  13.868  0.00  0.00    +0.000 NA
ATOM     24  H   UNL     1      49.577   6.811  14.787  0.00  0.00    +0.000 HD
ATOM     25  H   UNL     1      50.827   7.457  13.965  0.00  0.00    +0.000 HD
ENDBRANCH  22  23
ENDBRANCH  16  22
ENDBRANCH  15  19
ENDBRANCH   1  15
TORSDOF 5
ENDMDL
MODEL 4
REMARK VINA RESULT:    -5.783      5.010      8.443
REMARK INTER + INTRA:          -8.117
REMARK INTER:                  -7.559
REMARK INTRA:                  -0.558
REMARK UNBOUND:                -0.813
REMARK  Name = 
REMARK  5 active torsions:
REMARK  status: ('A' for Active; 'I' for Inactive)
REMARK    1  A    between atoms: N_1  and  C_2
REMARK    2  A    between atoms: C_2  and  C_3
REMARK    3  A    between atoms: C_6  and  C_7
REMARK    4  A    between atoms: C_7  and  N_8
REMARK    5  A    between atoms: C_13  and  C_14
REMARK                            x       y       z     vdW  Elec       q    Type
REMARK                         _______ _______ _______ _____ _____    ______ ____
ROOT
ATOM      1  N   UNL     1      48.192   6.349  14.439  0.00  0.00    +0.000 N 
ATOM      2  C   UNL     1      48.813   7.569  14.560  0.00  0.00    +0.000 A 
ATOM      3  C   UNL     1      49.350   7.649  15.823  0.00  0.00    +0.000 A 
ATOM      4  C   UNL     1      48.949   6.488  16.534  0.00  0.00    +0.000 A 
ATOM      5  C   UNL     1      49.159   6.049  17.857  0.00  0.00    +0.000 A 
ATOM      6  C   UNL     1      48.571   4.852  18.286  0.00  0.00    +0.000 A 
ATOM      7  C   UNL     1      47.832   4.071  17.392  0.00  0.00    +0.000 A 
ATOM      8  C   UNL     1      47.639   4.475  16.066  0.00  0.00    +0.000 A 
ATOM      9  C   UNL     1      48.201   5.695  15.658  0.00  0.00    +0.000 A 
ENDROOT
BRANCH   6  10
ATOM     10  C   UNL     1      48.714   4.378  19.687  0.00  0.00    +0.000 C 
ATOM     11  N   UNL     1      48.354   3.086  19.954  0.00  0.00    +0.000 N 
ATOM     12  O   UNL     1      49.183   5.092  20.566  0.00  0.00    +0.000 OA
ATOM     13  H   UNL     1      48.206   2.403  19.225  0.00  0.00    +0.000 HD
ATOM     14  H   UNL     1      48.571   2.743  20.882  0.00  0.00    +0.000 HD
ENDBRANCH   6  10
BRANCH   1  15
ATOM     15  C   UNL     1      47.639   5.841  13.187  0.00  0.00    +0.000 C 
BRANCH  15  19
ATOM     16  C   UNL     1      44.937   4.397  10.805  0.00  0.00    +0.000 C 
ATOM     17  C   UNL     1      45.735   5.688  10.553  0.00  0.00    +0.000 C 
ATOM     18  C   UNL     1      45.684   6.665  11.726  0.00  0.00    +0.000 C 
ATOM     19  C   UNL     1      46.109   6.037  13.065  0.00  0.00    +0.000 C 
ATOM     20  C   UNL     1      45.349   4.723  13.313  0.00  0.00    +0.000 C 
ATOM     21  C   UNL     1      45.392   3.757  12.128  0.00  0.00    +0.000 C 
BRANCH  16  22
ATOM     22  C   UNL     1      43.406   4.602  10.780  0.00  0.00    +0.000 C 
BRANCH  22  23
ATOM     23  N   UNL     1      42.694   3.509  11.434  0.00  0.00    +0.000 NA
ATOM     24  H   UNL     1      41.973   3.150  10.808  0.00  0.00    +0.000 HD
ATOM     25  H   UNL     1      42.204   3.860  12.257  0.00  0.00    +0.000 HD
ENDBRANCH  22  23
ENDBRANCH  16  22
ENDBRANCH  15  19
ENDBRANCH   1  15
TORSDOF 5
ENDMDL
MODEL 5
REMARK VINA RESULT:    -5.614      4.287      6.120
REMARK INTER + INTRA:          -7.904
REMARK INTER:                  -7.275
REMARK INTRA:                  -0.629
REMARK UNBOUND:                -0.813
REMARK  Name = 
REMARK  5 active torsions:
REMARK  status: ('A' for Active; 'I' for Inactive)
REMARK    1  A    between atoms: N_1  and  C_2
REMARK    2  A    between atoms: C_2  and  C_3
REMARK    3  A    between atoms: C_6  and  C_7
REMARK    4  A    between atoms: C_7  and  N_8
REMARK    5  A    between atoms: C_13  and  C_14
REMARK                            x       y       z     vdW  Elec       q    Type
REMARK                         _______ _______ _______ _____ _____    ______ ____
ROOT
ATOM      1  N   UNL     1      47.738   6.376  14.048  0.00  0.00    +0.000 N 
ATOM      2  C   UNL     1      47.649   7.684  13.638  0.00  0.00    +0.000 A 
ATOM      3  C   UNL     1      46.590   7.786  12.766  0.00  0.00    +0.000 A 
ATOM      4  C   UNL     1      46.085   6.477  12.551  0.00  0.00    +0.000 A 
ATOM      5  C   UNL     1      45.052   5.966  11.739  0.00  0.00    +0.000 A 
ATOM      6  C   UNL     1      44.828   4.583  11.702  0.00  0.00    +0.000 A 
ATOM      7  C   UNL     1      45.584   3.725  12.507  0.00  0.00    +0.000 A 
ATOM      8  C   UNL     1      46.593   4.218  13.343  0.00  0.00    +0.000 A 
ATOM      9  C   UNL     1      46.834   5.601  13.344  0.00  0.00    +0.000 A 
ENDROOT
BRANCH   6  10
ATOM     10  C   UNL     1      43.791   3.991  10.818  0.00  0.00    +0.000 C 
ATOM     11  N   UNL     1      43.747   4.428   9.522  0.00  0.00    +0.000 N 
ATOM     12  O   UNL     1      43.033   3.111  11.208  0.00  0.00    +0.000 OA
ATOM     13  H   UNL     1      44.499   4.955   9.102  0.00  0.00    +0.000 HD
ATOM     14  H   UNL     1      43.119   3.932   8.903  0.00  0.00    +0.000 HD
ENDBRANCH   6  10
BRANCH   1  15
ATOM     15  C   UNL     1      48.646   5.914  15.095  0.00  0.00    +0.000 C 
BRANCH  15  19
ATOM     16  C   UNL     1      49.678   4.369  18.501  0.00  0.00    +0.000 C 
ATOM     17  C   UNL     1      48.798   3.672  17.448  0.00  0.00    +0.000 C 
ATOM     18  C   UNL     1      47.611   4.523  17.000  0.00  0.00    +0.000 C 
ATOM     19  C   UNL     1      48.012   5.924  16.507  0.00  0.00    +0.000 C 
ATOM     20  C   UNL     1      48.926   6.618  17.531  0.00  0.00    +0.000 C 
ATOM     21  C   UNL     1      50.103   5.754  17.986  0.00  0.00    +0.000 C 
BRANCH  16  22
ATOM     22  C   UNL     1      49.014   4.469  19.892  0.00  0.00    +0.000 C 
BRANCH  22  23
ATOM     23  N   UNL     1      48.351   3.226  20.276  0.00  0.00    +0.000 NA
ATOM     24  H   UNL     1      48.036   3.294  21.244  0.00  0.00    +0.000 HD
ATOM     25  H   UNL     1      49.019   2.457  20.250  0.00  0.00    +0.000 HD
ENDBRANCH  22  23
ENDBRANCH  16  22
ENDBRANCH  15  19
ENDBRANCH   1  15
TORSDOF 5
ENDMDL
MODEL 6
REMARK VINA RESULT:    -5.564      4.037      6.805
REMARK INTER + INTRA:          -7.841
REMARK INTER:                  -7.315
REMARK INTRA:                  -0.526
REMARK UNBOUND:                -0.813
REMARK  Name = 
REMARK  5 active torsions:
REMARK  status: ('A' for Active; 'I' for Inactive)
REMARK    1  A    between atoms: N_1  and  C_2
REMARK    2  A    between atoms: C_2  and  C_3
REMARK    3  A    between atoms: C_6  and  C_7
REMARK    4  A    between atoms: C_7  and  N_8
REMARK    5  A    between atoms: C_13  and  C_14
REMARK                            x       y       z     vdW  Elec       q    Type
REMARK                         _______ _______ _______ _____ _____    ______ ____
ROOT
ATOM      1  N   UNL     1      46.234   8.553  12.387  0.00  0.00    +0.000 N 
ATOM      2  C   UNL     1      45.891   9.861  12.145  0.00  0.00    +0.000 A 
ATOM      3  C   UNL     1      47.005  10.514  11.673  0.00  0.00    +0.000 A 
ATOM      4  C   UNL     1      48.092   9.603  11.732  0.00  0.00    +0.000 A 
ATOM      5  C   UNL     1      49.463   9.720  11.424  0.00  0.00    +0.000 A 
ATOM      6  C   UNL     1      50.313   8.628  11.648  0.00  0.00    +0.000 A 
ATOM      7  C   UNL     1      49.795   7.418  12.118  0.00  0.00    +0.000 A 
ATOM      8  C   UNL     1      48.432   7.273  12.399  0.00  0.00    +0.000 A 
ATOM      9  C   UNL     1      47.596   8.385  12.207  0.00  0.00    +0.000 A 
ENDROOT
BRANCH   6  10
ATOM     10  C   UNL     1      51.775   8.723  11.395  0.00  0.00    +0.000 C 
ATOM     11  N   UNL     1      52.446   7.557  11.150  0.00  0.00    +0.000 N 
ATOM     12  O   UNL     1      52.356   9.801  11.355  0.00  0.00    +0.000 OA
ATOM     13  H   UNL     1      51.971   6.694  10.928  0.00  0.00    +0.000 HD
ATOM     14  H   UNL     1      53.412   7.648  10.861  0.00  0.00    +0.000 HD
ENDBRANCH   6  10
BRANCH   1  15
ATOM     15  C   UNL     1      45.274   7.515  12.751  0.00  0.00    +0.000 C 
BRANCH  15  19
ATOM     16  C   UNL     1      43.725   3.963  12.557  0.00  0.00    +0.000 C 
ATOM     17  C   UNL     1      45.230   4.264  12.657  0.00  0.00    +0.000 C 
ATOM     18  C   UNL     1      45.716   5.254  11.600  0.00  0.00    +0.000 C 
ATOM     19  C   UNL     1      44.917   6.569  11.579  0.00  0.00    +0.000 C 
ATOM     20  C   UNL     1      43.407   6.285  11.521  0.00  0.00    +0.000 C 
ATOM     21  C   UNL     1      42.932   5.280  12.572  0.00  0.00    +0.000 C 
BRANCH  16  22
ATOM     22  C   UNL     1      43.347   3.096  11.336  0.00  0.00    +0.000 C 
BRANCH  22  23
ATOM     23  N   UNL     1      42.969   1.740  11.719  0.00  0.00    +0.000 NA
ATOM     24  H   UNL     1      42.950   1.667  12.736  0.00  0.00    +0.000 HD
ATOM     25  H   UNL     1      43.680   1.081  11.402  0.00  0.00    +0.000 HD
ENDBRANCH  22  23
ENDBRANCH  16  22
ENDBRANCH  15  19
ENDBRANCH   1  15
TORSDOF 5
ENDMDL
MODEL 7
REMARK VINA RESULT:    -5.363      2.904      4.810
REMARK INTER + INTRA:          -7.586
REMARK INTER:                  -6.911
REMARK INTRA:                  -0.675
REMARK UNBOUND:                -0.813
REMARK  Name = 
REMARK  5 active torsions:
REMARK  status: ('A' for Active; 'I' for Inactive)
REMARK    1  A    between atoms: N_1  and  C_2
REMARK    2  A    between atoms: C_2  and  C_3
REMARK    3  A    between atoms: C_6  and  C_7
REMARK    4  A    between atoms: C_7  and  N_8
REMARK    5  A    between atoms: C_13  and  C_14
REMARK                            x       y       z     vdW  Elec       q    Type
REMARK                         _______ _______ _______ _____ _____    ______ ____
ROOT
ATOM      1  N   UNL     1      47.564   6.329  13.961  0.00  0.00    +0.000 N 
ATOM      2  C   UNL     1      47.621   5.362  14.936  0.00  0.00    +0.000 A 
ATOM      3  C   UNL     1      46.928   4.263  14.485  0.00  0.00    +0.000 A 
ATOM      4  C   UNL     1      46.337   4.609  13.242  0.00  0.00    +0.000 A 
ATOM      5  C   UNL     1      45.495   3.913  12.350  0.00  0.00    +0.000 A 
ATOM      6  C   UNL     1      45.022   4.565  11.203  0.00  0.00    +0.000 A 
ATOM      7  C   UNL     1      45.427   5.871  10.918  0.00  0.00    +0.000 A 
ATOM      8  C   UNL     1      46.287   6.567  11.775  0.00  0.00    +0.000 A 
ATOM      9  C   UNL     1      46.725   5.918  12.941  0.00  0.00    +0.000 A 
ENDROOT
BRANCH   6  10
ATOM     10  C   UNL     1      44.086   3.893  10.265  0.00  0.00    +0.000 C 
ATOM     11  N   UNL     1      43.946   4.439   9.018  0.00  0.00    +0.000 N 
ATOM     12  O   UNL     1      43.496   2.862  10.566  0.00  0.00    +0.000 OA
ATOM     13  H   UNL     1      44.590   5.124   8.652  0.00  0.00    +0.000 HD
ATOM     14  H   UNL     1      43.401   3.904   8.353  0.00  0.00    +0.000 HD
ENDBRANCH   6  10
BRANCH   1  15
ATOM     15  C   UNL     1      48.314   7.581  14.016  0.00  0.00    +0.000 C 
BRANCH  15  19
ATOM     16  C   UNL     1      50.625  10.128  12.220  0.00  0.00    +0.000 C 
ATOM     17  C   UNL     1      49.583   9.239  11.520  0.00  0.00    +0.000 C 
ATOM     18  C   UNL     1      49.726   7.758  11.869  0.00  0.00    +0.000 C 
ATOM     19  C   UNL     1      49.723   7.482  13.383  0.00  0.00    +0.000 C 
ATOM     20  C   UNL     1      50.731   8.394  14.102  0.00  0.00    +0.000 C 
ATOM     21  C   UNL     1      50.592   9.871  13.736  0.00  0.00    +0.000 C 
BRANCH  16  22
ATOM     22  C   UNL     1      52.054   9.965  11.657  0.00  0.00    +0.000 C 
BRANCH  22  23
ATOM     23  N   UNL     1      52.111  10.209  10.219  0.00  0.00    +0.000 NA
ATOM     24  H   UNL     1      52.508  11.133  10.046  0.00  0.00    +0.000 HD
ATOM     25  H   UNL     1      51.166  10.232   9.836  0.00  0.00    +0.000 HD
ENDBRANCH  22  23
ENDBRANCH  16  22
ENDBRANCH  15  19
ENDBRANCH   1  15
TORSDOF 5
ENDMDL
MODEL 8
REMARK VINA RESULT:    -5.179      3.637      5.812
REMARK INTER + INTRA:          -7.354
REMARK INTER:                  -6.875
REMARK INTRA:                  -0.479
REMARK UNBOUND:                -0.813
REMARK  Name = 
REMARK  5 active torsions:
REMARK  status: ('A' for Active; 'I' for Inactive)
REMARK    1  A    between atoms: N_1  and  C_2
REMARK    2  A    between atoms: C_2  and  C_3
REMARK    3  A    between atoms: C_6  and  C_7
REMARK    4  A    between atoms: C_7  and  N_8
REMARK    5  A    between atoms: C_13  and  C_14
REMARK                            x       y       z     vdW  Elec       q    Type
REMARK                         _______ _______ _______ _____ _____    ______ ____
ROOT
ATOM      1  N   UNL     1      47.883   6.397  13.783  0.00  0.00    +0.000 N 
ATOM      2  C   UNL     1      48.351   7.392  12.960  0.00  0.00    +0.000 A 
ATOM      3  C   UNL     1      47.583   7.399  11.820  0.00  0.00    +0.000 A 
ATOM      4  C   UNL     1      46.688   6.300  11.900  0.00  0.00    +0.000 A 
ATOM      5  C   UNL     1      45.710   5.790  11.022  0.00  0.00    +0.000 A 
ATOM      6  C   UNL     1      45.012   4.626  11.372  0.00  0.00    +0.000 A 
ATOM      7  C   UNL     1      45.242   4.012  12.607  0.00  0.00    +0.000 A 
ATOM      8  C   UNL     1      46.186   4.522  13.505  0.00  0.00    +0.000 A 
ATOM      9  C   UNL     1      46.908   5.667  13.127  0.00  0.00    +0.000 A 
ENDROOT
BRANCH   6  10
ATOM     10  C   UNL     1      44.015   4.017  10.454  0.00  0.00    +0.000 C 
ATOM     11  N   UNL     1      43.968   4.493   9.172  0.00  0.00    +0.000 N 
ATOM     12  O   UNL     1      43.293   3.091  10.805  0.00  0.00    +0.000 OA
ATOM     13  H   UNL     1      44.701   5.066   8.780  0.00  0.00    +0.000 HD
ATOM     14  H   UNL     1      43.372   3.988   8.529  0.00  0.00    +0.000 HD
ENDBRANCH   6  10
BRANCH   1  15
ATOM     15  C   UNL     1      48.349   6.187  15.151  0.00  0.00    +0.000 C 
BRANCH  15  19
ATOM     16  C   UNL     1      49.856   7.081  18.613  0.00  0.00    +0.000 C 
ATOM     17  C   UNL     1      48.552   7.665  18.042  0.00  0.00    +0.000 C 
ATOM     18  C   UNL     1      48.720   8.254  16.642  0.00  0.00    +0.000 C 
ATOM     19  C   UNL     1      49.342   7.271  15.635  0.00  0.00    +0.000 C 
ATOM     20  C   UNL     1      50.625   6.647  16.208  0.00  0.00    +0.000 C 
ATOM     21  C   UNL     1      50.453   6.074  17.615  0.00  0.00    +0.000 C 
BRANCH  16  22
ATOM     22  C   UNL     1      50.892   8.155  19.011  0.00  0.00    +0.000 C 
BRANCH  22  23
ATOM     23  N   UNL     1      52.173   7.570  19.394  0.00  0.00    +0.000 NA
ATOM     24  H   UNL     1      52.229   7.511  20.410  0.00  0.00    +0.000 HD
ATOM     25  H   UNL     1      52.933   8.186  19.105  0.00  0.00    +0.000 HD
ENDBRANCH  22  23
ENDBRANCH  16  22
ENDBRANCH  15  19
ENDBRANCH   1  15
TORSDOF 5
ENDMDL
MODEL 9
REMARK VINA RESULT:    -4.923      4.315      8.423
REMARK INTER + INTRA:          -7.030
REMARK INTER:                  -6.440
REMARK INTRA:                  -0.590
REMARK UNBOUND:                -0.813
REMARK  Name = 
REMARK  5 active torsions:
REMARK  status: ('A' for Active; 'I' for Inactive)
REMARK    1  A    between atoms: N_1  and  C_2
REMARK    2  A    between atoms: C_2  and  C_3
REMARK    3  A    between atoms: C_6  and  C_7
REMARK    4  A    between atoms: C_7  and  N_8
REMARK    5  A    between atoms: C_13  and  C_14
REMARK                            x       y       z     vdW  Elec       q    Type
REMARK                         _______ _______ _______ _____ _____    ______ ____
ROOT
ATOM      1  N   UNL     1      47.750   7.604  13.416  0.00  0.00    +0.000 N 
ATOM      2  C   UNL     1      47.828   8.960  13.211  0.00  0.00    +0.000 A 
ATOM      3  C   UNL     1      48.530   9.509  14.258  0.00  0.00    +0.000 A 
ATOM      4  C   UNL     1      48.795   8.470  15.188  0.00  0.00    +0.000 A 
ATOM      5  C   UNL     1      49.431   8.444  16.446  0.00  0.00    +0.000 A 
ATOM      6  C   UNL     1      49.486   7.241  17.163  0.00  0.00    +0.000 A 
ATOM      7  C   UNL     1      48.967   6.067  16.610  0.00  0.00    +0.000 A 
ATOM      8  C   UNL     1      48.360   6.068  15.349  0.00  0.00    +0.000 A 
ATOM      9  C   UNL     1      48.276   7.286  14.656  0.00  0.00    +0.000 A 
ENDROOT
BRANCH   6  10
ATOM     10  C   UNL     1      50.094   7.177  18.518  0.00  0.00    +0.000 C 
ATOM     11  N   UNL     1      49.780   6.096  19.296  0.00  0.00    +0.000 N 
ATOM     12  O   UNL     1      50.885   8.025  18.913  0.00  0.00    +0.000 OA
ATOM     13  H   UNL     1      49.344   5.267  18.921  0.00  0.00    +0.000 HD
ATOM     14  H   UNL     1      50.294   6.005  20.164  0.00  0.00    +0.000 HD
ENDBRANCH   6  10
BRANCH   1  15
ATOM     15  C   UNL     1      47.212   6.665  12.436  0.00  0.00    +0.000 C 
BRANCH  15  19
ATOM     16  C   UNL     1      44.875   3.777  11.319  0.00  0.00    +0.000 C 
ATOM     17  C   UNL     1      45.158   5.048  10.500  0.00  0.00    +0.000 C 
ATOM     18  C   UNL     1      44.929   6.335  11.290  0.00  0.00    +0.000 C 
ATOM     19  C   UNL     1      45.701   6.383  12.620  0.00  0.00    +0.000 C 
ATOM     20  C   UNL     1      45.461   5.099  13.433  0.00  0.00    +0.000 C 
ATOM     21  C   UNL     1      45.677   3.816  12.630  0.00  0.00    +0.000 C 
BRANCH  16  22
ATOM     22  C   UNL     1      43.372   3.538  11.589  0.00  0.00    +0.000 C 
BRANCH  22  23
ATOM     23  N   UNL     1      43.042   2.117  11.643  0.00  0.00    +0.000 NA
ATOM     24  H   UNL     1      42.802   1.788  10.708  0.00  0.00    +0.000 HD
ATOM     25  H   UNL     1      42.208   1.979  12.214  0.00  0.00    +0.000 HD
ENDBRANCH  22  23
ENDBRANCH  16  22
ENDBRANCH  15  19
ENDBRANCH   1  15
TORSDOF 5
ENDMDL
