MODEL 1
REMARK VINA RESULT:    -7.869      0.000      0.000
REMARK INTER + INTRA:         -11.055
REMARK INTER:                 -10.169
REMARK INTRA:                  -0.886
REMARK UNBOUND:                -0.886
REMARK  Name = 
REMARK  6 active torsions:
REMARK  status: ('A' for Active; 'I' for Inactive)
REMARK    1  A    between atoms: C_1  and  C_2
REMARK    2  A    between atoms: C_4  and  C_5
REMARK    3  A    between atoms: C_10  and  N_11
REMARK    4  A    between atoms: N_11  and  C_12
REMARK    5  A    between atoms: C_12  and  C_13
REMARK    6  A    between atoms: C_17  and  C_18
REMARK                            x       y       z     vdW  Elec       q    Type
REMARK                         _______ _______ _______ _____ _____    ______ ____
ROOT
ATOM      1  N   UNL     1      44.516   5.037  10.322  0.00  0.00    +0.000 N 
ATOM      2  H   UNL     1      43.773   5.656  10.013  0.00  0.00    +0.000 HD
ENDROOT
BRANCH   1   9
ATOM      3  C   UNL     1      44.110   2.164   9.984  0.00  0.00    +0.000 C 
ATOM      4  C   UNL     1      45.055   2.970   9.141  0.00  0.00    +0.000 A 
ATOM      5  C   UNL     1      45.849   2.287   8.207  0.00  0.00    +0.000 A 
ATOM      6  C   UNL     1      46.718   3.003   7.400  0.00  0.00    +0.000 A 
ATOM      7  N   UNL     1      46.836   4.355   7.443  0.00  0.00    +0.000 NA
ATOM      8  C   UNL     1      46.065   4.989   8.375  0.00  0.00    +0.000 A 
ATOM      9  C   UNL     1      45.170   4.374   9.259  0.00  0.00    +0.000 A 
BRANCH   6  10
ATOM     10  C   UNL     1      47.583   2.247   6.435  0.00  0.00    +0.000 C 
ATOM     11  N   UNL     1      47.998   2.932   5.326  0.00  0.00    +0.000 N 
ATOM     12  O   UNL     1      47.921   1.083   6.625  0.00  0.00    +0.000 OA
ATOM     13  H   UNL     1      47.723   3.900   5.197  0.00  0.00    +0.000 HD
ATOM     14  H   UNL     1      48.597   2.470   4.660  0.00  0.00    +0.000 HD
ENDBRANCH   6  10
ENDBRANCH   1   9
BRANCH   1  15
ATOM     15  C   UNL     1      45.068   5.301  11.666  0.00  0.00    +0.000 C 
ATOM     16  C   UNL     1      45.441   4.150  12.585  0.00  0.00    +0.000 C 
ATOM     17  C   UNL     1      44.197   4.922  12.863  0.00  0.00    +0.000 C 
BRANCH  15  18
ATOM     18  C   UNL     1      45.775   6.653  11.783  0.00  0.00    +0.000 A 
ATOM     19  C   UNL     1      45.056   7.847  11.947  0.00  0.00    +0.000 A 
ATOM     20  C   UNL     1      45.702   9.076  12.089  0.00  0.00    +0.000 A 
ATOM     21  C   UNL     1      47.094   9.142  12.092  0.00  0.00    +0.000 A 
ATOM     22  C   UNL     1      47.855   7.978  11.935  0.00  0.00    +0.000 A 
ATOM     23  C   UNL     1      47.184   6.751  11.757  0.00  0.00    +0.000 A 
BRANCH  22  24
ATOM     24  C   UNL     1      49.364   8.027  11.985  0.00  0.00    +0.000 C 
ATOM     25  F   UNL     1      49.968   7.371  10.954  0.00  0.00    +0.000 F 
ATOM     26  F   UNL     1      49.841   9.304  11.941  0.00  0.00    +0.000 F 
ATOM     27  F   UNL     1      49.874   7.480  13.122  0.00  0.00    +0.000 F 
ENDBRANCH  22  24
ENDBRANCH  15  18
ENDBRANCH   1  15
TORSDOF 5
ENDMDL
MODEL 2
REMARK VINA RESULT:    -7.712      2.332      2.880
REMARK INTER + INTRA:         -10.852
REMARK INTER:                  -9.914
REMARK INTRA:                  -0.938
REMARK UNBOUND:                -0.886
REMARK  Name = 
REMARK  6 active torsions:
REMARK  status: ('A' for Active; 'I' for Inactive)
REMARK    1  A    between atoms: C_1  and  C_2
REMARK    2  A    between atoms: C_4  and  C_5
REMARK    3  A    between atoms: C_10  and  N_11
REMARK    4  A    between atoms: N_11  and  C_12
REMARK    5  A    between atoms: C_12  and  C_13
REMARK    6  A    between atoms: C_17  and  C_18
REMARK                            x       y       z     vdW  Elec       q    Type
REMARK                         _______ _______ _______ _____ _____    ______ ____
ROOT
ATOM      1  N   UNL     1      44.137   4.685  10.167  0.00  0.00    +0.000 N 
ATOM      2  H   UNL     1      43.362   5.236   9.812  0.00  0.00    +0.000 HD
ENDROOT
BRANCH   1   9
ATOM      3  C   UNL     1      44.045   1.797   9.735  0.00  0.00    +0.000 C 
ATOM      4  C   UNL     1      44.970   2.715   8.989  0.00  0.00    +0.000 A 
ATOM      5  C   UNL     1      45.897   2.140   8.109  0.00  0.00    +0.000 A 
ATOM      6  C   UNL     1      46.752   2.960   7.389  0.00  0.00    +0.000 A 
ATOM      7  N   UNL     1      46.732   4.315   7.471  0.00  0.00    +0.000 NA
ATOM      8  C   UNL     1      45.832   4.844   8.351  0.00  0.00    +0.000 A 
ATOM      9  C   UNL     1      44.935   4.119   9.146  0.00  0.00    +0.000 A 
BRANCH   6  10
ATOM     10  C   UNL     1      47.760   2.319   6.482  0.00  0.00    +0.000 C 
ATOM     11  N   UNL     1      48.005   2.960   5.299  0.00  0.00    +0.000 N 
ATOM     12  O   UNL     1      48.353   1.287   6.778  0.00  0.00    +0.000 OA
ATOM     13  H   UNL     1      47.519   3.824   5.080  0.00  0.00    +0.000 HD
ATOM     14  H   UNL     1      48.690   2.577   4.666  0.00  0.00    +0.000 HD
ENDBRANCH   6  10
ENDBRANCH   1   9
BRANCH   1  15
ATOM     15  C   UNL     1      44.555   4.963  11.556  0.00  0.00    +0.000 C 
ATOM     16  C   UNL     1      44.951   3.827  12.483  0.00  0.00    +0.000 C 
ATOM     17  C   UNL     1      43.625   4.483  12.670  0.00  0.00    +0.000 C 
BRANCH  15  18
ATOM     18  C   UNL     1      45.130   6.367  11.753  0.00  0.00    +0.000 A 
ATOM     19  C   UNL     1      46.424   6.567  12.258  0.00  0.00    +0.000 A 
ATOM     20  C   UNL     1      46.962   7.847  12.404  0.00  0.00    +0.000 A 
ATOM     21  C   UNL     1      46.223   8.967  12.027  0.00  0.00    +0.000 A 
ATOM     22  C   UNL     1      44.930   8.818  11.515  0.00  0.00    +0.000 A 
ATOM     23  C   UNL     1      44.391   7.519  11.409  0.00  0.00    +0.000 A 
BRANCH  22  24
ATOM     24  C   UNL     1      44.135  10.019  11.056  0.00  0.00    +0.000 C 
ATOM     25  F   UNL     1      43.154   9.716  10.160  0.00  0.00    +0.000 F 
ATOM     26  F   UNL     1      43.509  10.649  12.091  0.00  0.00    +0.000 F 
ATOM     27  F   UNL     1      44.907  10.966  10.457  0.00  0.00    +0.000 F 
ENDBRANCH  22  24
ENDBRANCH  15  18
ENDBRANCH   1  15
TORSDOF 5
ENDMDL
MODEL 3
REMARK VINA RESULT:    -7.536      2.292      3.029
REMARK INTER + INTRA:         -10.626
REMARK INTER:                 -10.878
REMARK INTRA:                   0.252
REMARK UNBOUND:                -0.886
REMARK  Name = 
REMARK  6 active torsions:
REMARK  status: ('A' for Active; 'I' for Inactive)
REMARK    1  A    between atoms: C_1  and  C_2
REMARK    2  A    between atoms: C_4  and  C_5
REMARK    3  A    between atoms: C_10  and  N_11
REMARK    4  A    between atoms: N_11  and  C_12
REMARK    5  A    between atoms: C_12  and  C_13
REMARK    6  A    between atoms: C_17  and  C_18
REMARK                            x       y       z     vdW  Elec       q    Type
REMARK                         _______ _______ _______ _____ _____    ______ ____
ROOT
ATOM      1  N   UNL     1      44.193   4.994  10.161  0.00  0.00    +0.000 N 
ATOM      2  H   UNL     1      43.895   5.919   9.866  0.00  0.00    +0.000 HD
ENDROOT
BRANCH   1   9
ATOM      3  C   UNL     1      44.036   2.082   9.999  0.00  0.00    +0.000 C 
ATOM      4  C   UNL     1      44.970   2.907   9.161  0.00  0.00    +0.000 A 
ATOM      5  C   UNL     1      45.874   2.233   8.328  0.00  0.00    +0.000 A 
ATOM      6  C   UNL     1      46.737   2.965   7.527  0.00  0.00    +0.000 A 
ATOM      7  N   UNL     1      46.745   4.322   7.483  0.00  0.00    +0.000 NA
ATOM      8  C   UNL     1      45.867   4.949   8.320  0.00  0.00    +0.000 A 
ATOM      9  C   UNL     1      44.966   4.320   9.189  0.00  0.00    +0.000 A 
BRANCH   6  10
ATOM     10  C   UNL     1      47.720   2.221   6.672  0.00  0.00    +0.000 C 
ATOM     11  N   UNL     1      48.170   2.874   5.557  0.00  0.00    +0.000 N 
ATOM     12  O   UNL     1      48.121   1.097   6.953  0.00  0.00    +0.000 OA
ATOM     13  H   UNL     1      47.840   3.812   5.352  0.00  0.00    +0.000 HD
ATOM     14  H   UNL     1      48.846   2.421   4.964  0.00  0.00    +0.000 HD
ENDBRANCH   6  10
ENDBRANCH   1   9
BRANCH   1  15
ATOM     15  C   UNL     1      44.196   4.742  11.616  0.00  0.00    +0.000 C 
ATOM     16  C   UNL     1      43.293   3.676  12.214  0.00  0.00    +0.000 C 
ATOM     17  C   UNL     1      42.930   5.111  12.388  0.00  0.00    +0.000 C 
BRANCH  15  18
ATOM     18  C   UNL     1      45.508   5.127  12.301  0.00  0.00    +0.000 A 
ATOM     19  C   UNL     1      46.349   6.120  11.774  0.00  0.00    +0.000 A 
ATOM     20  C   UNL     1      47.528   6.496  12.418  0.00  0.00    +0.000 A 
ATOM     21  C   UNL     1      47.890   5.902  13.626  0.00  0.00    +0.000 A 
ATOM     22  C   UNL     1      47.083   4.911  14.193  0.00  0.00    +0.000 A 
ATOM     23  C   UNL     1      45.914   4.519  13.509  0.00  0.00    +0.000 A 
BRANCH  22  24
ATOM     24  C   UNL     1      47.436   4.293  15.526  0.00  0.00    +0.000 C 
ATOM     25  F   UNL     1      46.424   4.340  16.437  0.00  0.00    +0.000 F 
ATOM     26  F   UNL     1      47.768   2.975  15.411  0.00  0.00    +0.000 F 
ATOM     27  F   UNL     1      48.502   4.893  16.122  0.00  0.00    +0.000 F 
ENDBRANCH  22  24
ENDBRANCH  15  18
ENDBRANCH   1  15
TORSDOF 5
ENDMDL
MODEL 4
REMARK VINA RESULT:    -7.348      1.662      2.306
REMARK INTER + INTRA:         -10.382
REMARK INTER:                  -9.304
REMARK INTRA:                  -1.078
REMARK UNBOUND:                -0.886
REMARK  Name = 
REMARK  6 active torsions:
REMARK  status: ('A' for Active; 'I' for Inactive)
REMARK    1  A    between atoms: C_1  and  C_2
REMARK    2  A    between atoms: C_4  and  C_5
REMARK    3  A    between atoms: C_10  and  N_11
REMARK    4  A    between atoms: N_11  and  C_12
REMARK    5  A    between atoms: C_12  and  C_13
REMARK    6  A    between atoms: C_17  and  C_18
REMARK                            x       y       z     vdW  Elec       q    Type
REMARK                         _______ _______ _______ _____ _____    ______ ____
ROOT
ATOM      1  N   UNL     1      43.746   4.793   9.980  0.00  0.00    +0.000 N 
ATOM      2  H   UNL     1      43.440   5.455   9.274  0.00  0.00    +0.000 HD
ENDROOT
BRANCH   1   9
ATOM      3  C   UNL     1      46.233   5.602   8.679  0.00  0.00    +0.000 C 
ATOM      4  C   UNL     1      45.768   4.176   8.760  0.00  0.00    +0.000 A 
ATOM      5  C   UNL     1      46.525   3.200   8.095  0.00  0.00    +0.000 A 
ATOM      6  C   UNL     1      46.135   1.872   8.166  0.00  0.00    +0.000 A 
ATOM      7  N   UNL     1      45.055   1.447   8.871  0.00  0.00    +0.000 NA
ATOM      8  C   UNL     1      44.328   2.423   9.490  0.00  0.00    +0.000 A 
ATOM      9  C   UNL     1      44.609   3.796   9.473  0.00  0.00    +0.000 A 
BRANCH   6  10
ATOM     10  C   UNL     1      46.939   0.851   7.416  0.00  0.00    +0.000 C 
ATOM     11  N   UNL     1      47.875   1.337   6.545  0.00  0.00    +0.000 N 
ATOM     12  O   UNL     1      46.787  -0.355   7.576  0.00  0.00    +0.000 OA
ATOM     13  H   UNL     1      47.999   2.339   6.440  0.00  0.00    +0.000 HD
ATOM     14  H   UNL     1      48.452   0.687   6.034  0.00  0.00    +0.000 HD
ENDBRANCH   6  10
ENDBRANCH   1   9
BRANCH   1  15
ATOM     15  C   UNL     1      43.652   5.243  11.384  0.00  0.00    +0.000 C 
ATOM     16  C   UNL     1      43.053   4.336  12.445  0.00  0.00    +0.000 C 
ATOM     17  C   UNL     1      42.251   5.487  11.942  0.00  0.00    +0.000 C 
BRANCH  15  18
ATOM     18  C   UNL     1      44.691   6.302  11.758  0.00  0.00    +0.000 A 
ATOM     19  C   UNL     1      44.531   7.649  11.398  0.00  0.00    +0.000 A 
ATOM     20  C   UNL     1      45.461   8.620  11.771  0.00  0.00    +0.000 A 
ATOM     21  C   UNL     1      46.573   8.272  12.535  0.00  0.00    +0.000 A 
ATOM     22  C   UNL     1      46.774   6.943  12.921  0.00  0.00    +0.000 A 
ATOM     23  C   UNL     1      45.842   5.970  12.505  0.00  0.00    +0.000 A 
BRANCH  22  24
ATOM     24  C   UNL     1      47.948   6.558  13.791  0.00  0.00    +0.000 C 
ATOM     25  F   UNL     1      47.781   5.372  14.443  0.00  0.00    +0.000 F 
ATOM     26  F   UNL     1      49.101   6.426  13.074  0.00  0.00    +0.000 F 
ATOM     27  F   UNL     1      48.216   7.478  14.757  0.00  0.00    +0.000 F 
ENDBRANCH  22  24
ENDBRANCH  15  18
ENDBRANCH   1  15
TORSDOF 5
ENDMDL
MODEL 5
REMARK VINA RESULT:    -6.941      3.922      6.694
REMARK INTER + INTRA:          -9.857
REMARK INTER:                  -9.683
REMARK INTRA:                  -0.174
REMARK UNBOUND:                -0.886
REMARK  Name = 
REMARK  6 active torsions:
REMARK  status: ('A' for Active; 'I' for Inactive)
REMARK    1  A    between atoms: C_1  and  C_2
REMARK    2  A    between atoms: C_4  and  C_5
REMARK    3  A    between atoms: C_10  and  N_11
REMARK    4  A    between atoms: N_11  and  C_12
REMARK    5  A    between atoms: C_12  and  C_13
REMARK    6  A    between atoms: C_17  and  C_18
REMARK                            x       y       z     vdW  Elec       q    Type
REMARK                         _______ _______ _______ _____ _____    ______ ____
ROOT
ATOM      1  N   UNL     1      44.987   6.573  11.259  0.00  0.00    +0.000 N 
ATOM      2  H   UNL     1      44.733   7.431  10.781  0.00  0.00    +0.000 HD
ENDROOT
BRANCH   1   9
ATOM      3  C   UNL     1      45.271   9.166  12.574  0.00  0.00    +0.000 C 
ATOM      4  C   UNL     1      46.221   8.023  12.787  0.00  0.00    +0.000 A 
ATOM      5  C   UNL     1      47.351   8.248  13.587  0.00  0.00    +0.000 A 
ATOM      6  C   UNL     1      48.238   7.209  13.819  0.00  0.00    +0.000 A 
ATOM      7  N   UNL     1      48.065   5.955  13.328  0.00  0.00    +0.000 NA
ATOM      8  C   UNL     1      46.967   5.773  12.537  0.00  0.00    +0.000 A 
ATOM      9  C   UNL     1      46.015   6.748  12.213  0.00  0.00    +0.000 A 
BRANCH   6  10
ATOM     10  C   UNL     1      49.458   7.485  14.647  0.00  0.00    +0.000 C 
ATOM     11  N   UNL     1      50.647   7.547  13.974  0.00  0.00    +0.000 N 
ATOM     12  O   UNL     1      49.406   7.663  15.859  0.00  0.00    +0.000 OA
ATOM     13  H   UNL     1      50.666   7.415  12.967  0.00  0.00    +0.000 HD
ATOM     14  H   UNL     1      51.491   7.749  14.486  0.00  0.00    +0.000 HD
ENDBRANCH   6  10
ENDBRANCH   1   9
BRANCH   1  15
ATOM     15  C   UNL     1      43.981   5.491  11.239  0.00  0.00    +0.000 C 
ATOM     16  C   UNL     1      42.512   5.801  11.469  0.00  0.00    +0.000 C 
ATOM     17  C   UNL     1      43.294   5.156  12.562  0.00  0.00    +0.000 C 
BRANCH  15  18
ATOM     18  C   UNL     1      44.402   4.280  10.404  0.00  0.00    +0.000 A 
ATOM     19  C   UNL     1      43.858   3.006  10.630  0.00  0.00    +0.000 A 
ATOM     20  C   UNL     1      44.216   1.909   9.844  0.00  0.00    +0.000 A 
ATOM     21  C   UNL     1      45.117   2.062   8.792  0.00  0.00    +0.000 A 
ATOM     22  C   UNL     1      45.683   3.313   8.525  0.00  0.00    +0.000 A 
ATOM     23  C   UNL     1      45.337   4.401   9.352  0.00  0.00    +0.000 A 
BRANCH  22  24
ATOM     24  C   UNL     1      46.623   3.505   7.358  0.00  0.00    +0.000 C 
ATOM     25  F   UNL     1      46.012   3.416   6.143  0.00  0.00    +0.000 F 
ATOM     26  F   UNL     1      47.229   4.726   7.379  0.00  0.00    +0.000 F 
ATOM     27  F   UNL     1      47.631   2.591   7.334  0.00  0.00    +0.000 F 
ENDBRANCH  22  24
ENDBRANCH  15  18
ENDBRANCH   1  15
TORSDOF 5
ENDMDL
MODEL 6
REMARK VINA RESULT:    -6.716      4.565      7.051
REMARK INTER + INTRA:          -9.565
REMARK INTER:                  -9.294
REMARK INTRA:                  -0.271
REMARK UNBOUND:                -0.886
REMARK  Name = 
REMARK  6 active torsions:
REMARK  status: ('A' for Active; 'I' for Inactive)
REMARK    1  A    between atoms: C_1  and  C_2
REMARK    2  A    between atoms: C_4  and  C_5
REMARK    3  A    between atoms: C_10  and  N_11
REMARK    4  A    between atoms: N_11  and  C_12
REMARK    5  A    between atoms: C_12  and  C_13
REMARK    6  A    between atoms: C_17  and  C_18
REMARK                            x       y       z     vdW  Elec       q    Type
REMARK                         _______ _______ _______ _____ _____    ______ ____
ROOT
ATOM      1  N   UNL     1      47.523   6.651  12.866  0.00  0.00    +0.000 N 
ATOM      2  H   UNL     1      48.442   7.058  12.727  0.00  0.00    +0.000 HD
ENDROOT
BRANCH   1   9
ATOM      3  C   UNL     1      48.952   7.493  15.271  0.00  0.00    +0.000 C 
ATOM      4  C   UNL     1      48.196   6.200  15.169  0.00  0.00    +0.000 A 
ATOM      5  C   UNL     1      48.260   5.314  16.254  0.00  0.00    +0.000 A 
ATOM      6  C   UNL     1      47.559   4.120  16.201  0.00  0.00    +0.000 A 
ATOM      7  N   UNL     1      46.780   3.758  15.150  0.00  0.00    +0.000 NA
ATOM      8  C   UNL     1      46.754   4.631  14.101  0.00  0.00    +0.000 A 
ATOM      9  C   UNL     1      47.435   5.853  14.030  0.00  0.00    +0.000 A 
BRANCH   6  10
ATOM     10  C   UNL     1      47.673   3.173  17.359  0.00  0.00    +0.000 C 
ATOM     11  N   UNL     1      48.890   3.119  17.981  0.00  0.00    +0.000 N 
ATOM     12  O   UNL     1      46.732   2.491  17.748  0.00  0.00    +0.000 OA
ATOM     13  H   UNL     1      49.652   3.706  17.656  0.00  0.00    +0.000 HD
ATOM     14  H   UNL     1      49.008   2.511  18.776  0.00  0.00    +0.000 HD
ENDBRANCH   6  10
ENDBRANCH   1   9
BRANCH   1  15
ATOM     15  C   UNL     1      46.402   7.312  12.168  0.00  0.00    +0.000 C 
ATOM     16  C   UNL     1      46.525   8.754  11.707  0.00  0.00    +0.000 C 
ATOM     17  C   UNL     1      45.696   8.449  12.907  0.00  0.00    +0.000 C 
BRANCH  15  18
ATOM     18  C   UNL     1      45.473   6.338  11.442  0.00  0.00    +0.000 A 
ATOM     19  C   UNL     1      44.126   6.194  11.809  0.00  0.00    +0.000 A 
ATOM     20  C   UNL     1      43.270   5.331  11.124  0.00  0.00    +0.000 A 
ATOM     21  C   UNL     1      43.735   4.599  10.032  0.00  0.00    +0.000 A 
ATOM     22  C   UNL     1      45.068   4.712   9.626  0.00  0.00    +0.000 A 
ATOM     23  C   UNL     1      45.927   5.562  10.353  0.00  0.00    +0.000 A 
BRANCH  22  24
ATOM     24  C   UNL     1      45.575   3.963   8.415  0.00  0.00    +0.000 C 
ATOM     25  F   UNL     1      46.644   4.557   7.812  0.00  0.00    +0.000 F 
ATOM     26  F   UNL     1      45.980   2.698   8.722  0.00  0.00    +0.000 F 
ATOM     27  F   UNL     1      44.631   3.825   7.445  0.00  0.00    +0.000 F 
ENDBRANCH  22  24
ENDBRANCH  15  18
ENDBRANCH   1  15
TORSDOF 5
ENDMDL
MODEL 7
REMARK VINA RESULT:    -6.482      5.305      7.439
REMARK INTER + INTRA:          -9.263
REMARK INTER:                  -8.363
REMARK INTRA:                  -0.900
REMARK UNBOUND:                -0.886
REMARK  Name = 
REMARK  6 active torsions:
REMARK  status: ('A' for Active; 'I' for Inactive)
REMARK    1  A    between atoms: C_1  and  C_2
REMARK    2  A    between atoms: C_4  and  C_5
REMARK    3  A    between atoms: C_10  and  N_11
REMARK    4  A    between atoms: N_11  and  C_12
REMARK    5  A    between atoms: C_12  and  C_13
REMARK    6  A    between atoms: C_17  and  C_18
REMARK                            x       y       z     vdW  Elec       q    Type
REMARK                         _______ _______ _______ _____ _____    ______ ____
ROOT
ATOM      1  N   UNL     1      46.775   5.491  15.044  0.00  0.00    +0.000 N 
ATOM      2  H   UNL     1      45.851   5.529  15.464  0.00  0.00    +0.000 HD
ENDROOT
BRANCH   1   9
ATOM      3  C   UNL     1      48.638   6.669  16.962  0.00  0.00    +0.000 C 
ATOM      4  C   UNL     1      48.637   5.212  16.598  0.00  0.00    +0.000 A 
ATOM      5  C   UNL     1      49.644   4.399  17.140  0.00  0.00    +0.000 A 
ATOM      6  C   UNL     1      49.661   3.047  16.840  0.00  0.00    +0.000 A 
ATOM      7  N   UNL     1      48.732   2.443  16.055  0.00  0.00    +0.000 NA
ATOM      8  C   UNL     1      47.777   3.265  15.526  0.00  0.00    +0.000 A 
ATOM      9  C   UNL     1      47.670   4.645  15.738  0.00  0.00    +0.000 A 
BRANCH   6  10
ATOM     10  C   UNL     1      50.769   2.205  17.402  0.00  0.00    +0.000 C 
ATOM     11  N   UNL     1      51.632   2.831  18.259  0.00  0.00    +0.000 N 
ATOM     12  O   UNL     1      50.897   1.016  17.130  0.00  0.00    +0.000 OA
ATOM     13  H   UNL     1      51.498   3.811  18.487  0.00  0.00    +0.000 HD
ATOM     14  H   UNL     1      52.380   2.300  18.676  0.00  0.00    +0.000 HD
ENDBRANCH   6  10
ENDBRANCH   1   9
BRANCH   1  15
ATOM     15  C   UNL     1      46.866   5.892  13.626  0.00  0.00    +0.000 C 
ATOM     16  C   UNL     1      48.207   6.258  13.013  0.00  0.00    +0.000 C 
ATOM     17  C   UNL     1      47.240   7.345  13.337  0.00  0.00    +0.000 C 
BRANCH  15  18
ATOM     18  C   UNL     1      45.739   5.329  12.758  0.00  0.00    +0.000 A 
ATOM     19  C   UNL     1      44.442   5.148  13.263  0.00  0.00    +0.000 A 
ATOM     20  C   UNL     1      43.406   4.668  12.461  0.00  0.00    +0.000 A 
ATOM     21  C   UNL     1      43.635   4.374  11.118  0.00  0.00    +0.000 A 
ATOM     22  C   UNL     1      44.909   4.542  10.568  0.00  0.00    +0.000 A 
ATOM     23  C   UNL     1      45.952   4.994  11.403  0.00  0.00    +0.000 A 
BRANCH  22  24
ATOM     24  C   UNL     1      45.162   4.275   9.102  0.00  0.00    +0.000 C 
ATOM     25  F   UNL     1      44.048   4.390   8.325  0.00  0.00    +0.000 F 
ATOM     26  F   UNL     1      46.074   5.138   8.570  0.00  0.00    +0.000 F 
ATOM     27  F   UNL     1      45.652   3.028   8.867  0.00  0.00    +0.000 F 
ENDBRANCH  22  24
ENDBRANCH  15  18
ENDBRANCH   1  15
TORSDOF 5
ENDMDL
MODEL 8
REMARK VINA RESULT:    -6.422      4.281      5.981
REMARK INTER + INTRA:          -9.186
REMARK INTER:                  -8.883
REMARK INTRA:                  -0.303
REMARK UNBOUND:                -0.886
REMARK  Name = 
REMARK  6 active torsions:
REMARK  status: ('A' for Active; 'I' for Inactive)
REMARK    1  A    between atoms: C_1  and  C_2
REMARK    2  A    between atoms: C_4  and  C_5
REMARK    3  A    between atoms: C_10  and  N_11
REMARK    4  A    between atoms: N_11  and  C_12
REMARK    5  A    between atoms: C_12  and  C_13
REMARK    6  A    between atoms: C_17  and  C_18
REMARK                            x       y       z     vdW  Elec       q    Type
REMARK                         _______ _______ _______ _____ _____    ______ ____
ROOT
ATOM      1  N   UNL     1      46.689   6.798  13.851  0.00  0.00    +0.000 N 
ATOM      2  H   UNL     1      46.075   7.600  13.951  0.00  0.00    +0.000 HD
ENDROOT
BRANCH   1   9
ATOM      3  C   UNL     1      45.187   7.491  11.443  0.00  0.00    +0.000 C 
ATOM      4  C   UNL     1      45.325   6.087  11.956  0.00  0.00    +0.000 A 
ATOM      5  C   UNL     1      44.619   5.073  11.292  0.00  0.00    +0.000 A 
ATOM      6  C   UNL     1      44.739   3.763  11.727  0.00  0.00    +0.000 A 
ATOM      7  N   UNL     1      45.532   3.390  12.764  0.00  0.00    +0.000 NA
ATOM      8  C   UNL     1      46.191   4.402  13.402  0.00  0.00    +0.000 A 
ATOM      9  C   UNL     1      46.132   5.761  13.070  0.00  0.00    +0.000 A 
BRANCH   6  10
ATOM     10  C   UNL     1      43.945   2.702  11.025  0.00  0.00    +0.000 C 
ATOM     11  N   UNL     1      44.463   2.235   9.848  0.00  0.00    +0.000 N 
ATOM     12  O   UNL     1      42.896   2.256  11.477  0.00  0.00    +0.000 OA
ATOM     13  H   UNL     1      45.342   2.603   9.501  0.00  0.00    +0.000 HD
ATOM     14  H   UNL     1      43.973   1.507   9.352  0.00  0.00    +0.000 HD
ENDBRANCH   6  10
ENDBRANCH   1   9
BRANCH   1  15
ATOM     15  C   UNL     1      48.126   7.042  14.093  0.00  0.00    +0.000 C 
ATOM     16  C   UNL     1      48.815   8.252  13.486  0.00  0.00    +0.000 C 
ATOM     17  C   UNL     1      49.065   6.906  12.895  0.00  0.00    +0.000 C 
BRANCH  15  18
ATOM     18  C   UNL     1      48.641   6.420  15.393  0.00  0.00    +0.000 A 
ATOM     19  C   UNL     1      49.524   7.111  16.238  0.00  0.00    +0.000 A 
ATOM     20  C   UNL     1      49.966   6.558  17.441  0.00  0.00    +0.000 A 
ATOM     21  C   UNL     1      49.518   5.302  17.844  0.00  0.00    +0.000 A 
ATOM     22  C   UNL     1      48.634   4.577  17.038  0.00  0.00    +0.000 A 
ATOM     23  C   UNL     1      48.227   5.136  15.809  0.00  0.00    +0.000 A 
BRANCH  22  24
ATOM     24  C   UNL     1      48.101   3.235  17.484  0.00  0.00    +0.000 C 
ATOM     25  F   UNL     1      46.742   3.144  17.438  0.00  0.00    +0.000 F 
ATOM     26  F   UNL     1      48.566   2.212  16.712  0.00  0.00    +0.000 F 
ATOM     27  F   UNL     1      48.451   2.925  18.762  0.00  0.00    +0.000 F 
ENDBRANCH  22  24
ENDBRANCH  15  18
ENDBRANCH   1  15
TORSDOF 5
ENDMDL
MODEL 9
REMARK VINA RESULT:    -6.292      4.858      6.666
REMARK INTER + INTRA:          -9.017
REMARK INTER:                  -8.058
REMARK INTRA:                  -0.959
REMARK UNBOUND:                -0.886
REMARK  Name = 
REMARK  6 active torsions:
REMARK  status: ('A' for Active; 'I' for Inactive)
REMARK    1  A    between atoms: C_1  and  C_2
REMARK    2  A    between atoms: C_4  and  C_5
REMARK    3  A    between atoms: C_10  and  N_11
REMARK    4  A    between atoms: N_11  and  C_12
REMARK    5  A    between atoms: C_12  and  C_13
REMARK    6  A    between atoms: C_17  and  C_18
REMARK                            x       y       z     vdW  Elec       q    Type
REMARK                         _______ _______ _______ _____ _____    ______ ____
ROOT
ATOM      1  N   UNL     1      48.447   6.377  13.686  0.00  0.00    +0.000 N 
ATOM      2  H   UNL     1      48.952   5.528  13.453  0.00  0.00    +0.000 HD
ENDROOT
BRANCH   1   9
ATOM      3  C   UNL     1      46.969   3.861  13.826  0.00  0.00    +0.000 C 
ATOM      4  C   UNL     1      46.397   5.124  13.250  0.00  0.00    +0.000 A 
ATOM      5  C   UNL     1      45.123   5.063  12.668  0.00  0.00    +0.000 A 
ATOM      6  C   UNL     1      44.558   6.215  12.145  0.00  0.00    +0.000 A 
ATOM      7  N   UNL     1      45.166   7.428  12.180  0.00  0.00    +0.000 NA
ATOM      8  C   UNL     1      46.413   7.451  12.735  0.00  0.00    +0.000 A 
ATOM      9  C   UNL     1      47.095   6.353  13.275  0.00  0.00    +0.000 A 
BRANCH   6  10
ATOM     10  C   UNL     1      43.209   6.116  11.494  0.00  0.00    +0.000 C 
ATOM     11  N   UNL     1      42.628   7.297  11.122  0.00  0.00    +0.000 N 
ATOM     12  O   UNL     1      42.654   5.043  11.285  0.00  0.00    +0.000 OA
ATOM     13  H   UNL     1      43.111   8.174  11.287  0.00  0.00    +0.000 HD
ATOM     14  H   UNL     1      41.730   7.278  10.664  0.00  0.00    +0.000 HD
ENDBRANCH   6  10
ENDBRANCH   1   9
BRANCH   1  15
ATOM     15  C   UNL     1      49.023   7.205  14.764  0.00  0.00    +0.000 C 
ATOM     16  C   UNL     1      49.268   8.689  14.548  0.00  0.00    +0.000 C 
ATOM     17  C   UNL     1      50.431   7.756  14.540  0.00  0.00    +0.000 C 
BRANCH  15  18
ATOM     18  C   UNL     1      48.759   6.654  16.167  0.00  0.00    +0.000 A 
ATOM     19  C   UNL     1      48.619   7.504  17.276  0.00  0.00    +0.000 A 
ATOM     20  C   UNL     1      48.343   7.003  18.549  0.00  0.00    +0.000 A 
ATOM     21  C   UNL     1      48.177   5.633  18.745  0.00  0.00    +0.000 A 
ATOM     22  C   UNL     1      48.304   4.747  17.670  0.00  0.00    +0.000 A 
ATOM     23  C   UNL     1      48.618   5.269  16.398  0.00  0.00    +0.000 A 
BRANCH  22  24
ATOM     24  C   UNL     1      48.078   3.265  17.857  0.00  0.00    +0.000 C 
ATOM     25  F   UNL     1      46.810   2.863  17.562  0.00  0.00    +0.000 F 
ATOM     26  F   UNL     1      48.897   2.515  17.066  0.00  0.00    +0.000 F 
ATOM     27  F   UNL     1      48.313   2.850  19.132  0.00  0.00    +0.000 F 
ENDBRANCH  22  24
ENDBRANCH  15  18
ENDBRANCH   1  15
TORSDOF 5
ENDMDL
