MODEL 1
REMARK VINA RESULT:    -7.727      0.000      0.000
REMARK INTER + INTRA:         -11.542
REMARK INTER:                 -10.437
REMARK INTRA:                  -1.105
REMARK UNBOUND:                -1.105
REMARK  Name = 
REMARK  6 active torsions:
REMARK  status: ('A' for Active; 'I' for Inactive)
REMARK    1  A    between atoms: C_2  and  C_20
REMARK    2  A    between atoms: N_3  and  C_4
REMARK    3  A    between atoms: C_4  and  C_5
REMARK    4  A    between atoms: C_8  and  C_9
REMARK    5  A    between atoms: C_9  and  N_10
REMARK    6  A    between atoms: C_11  and  C_13
REMARK                            x       y       z     vdW  Elec       q    Type
REMARK                         _______ _______ _______ _____ _____    ______ ____
ROOT
ATOM      1  C   UNL     1      46.123   4.377  13.306  0.00  0.00    +0.000 A 
ATOM      2  C   UNL     1      45.642   3.199  12.714  0.00  0.00    +0.000 A 
ATOM      3  C   UNL     1      44.973   3.236  11.485  0.00  0.00    +0.000 A 
ATOM      4  C   UNL     1      44.788   4.447  10.805  0.00  0.00    +0.000 A 
ATOM      5  C   UNL     1      45.282   5.622  11.389  0.00  0.00    +0.000 A 
ATOM      6  C   UNL     1      45.951   5.585  12.620  0.00  0.00    +0.000 A 
ENDROOT
BRANCH   1   7
ATOM      7  C   UNL     1      46.790   4.337  14.659  0.00  0.00    +0.000 C 
BRANCH   7  10
ATOM      8  O   UNL     1      48.736   4.579  16.591  0.00  0.00    +0.000 OA
ATOM      9  C   UNL     1      48.447   5.583  15.944  0.00  0.00    +0.000 C 
ATOM     10  N   UNL     1      47.442   5.576  15.005  0.00  0.00    +0.000 N 
ATOM     11  H   UNL     1      47.373   6.344  14.344  0.00  0.00    +0.000 HD
BRANCH   9  12
ATOM     12  C   UNL     1      49.143   6.855  16.173  0.00  0.00    +0.000 A 
ATOM     13  C   UNL     1      49.307   7.330  17.469  0.00  0.00    +0.000 A 
ATOM     14  S   UNL     1      50.140   8.815  17.554  0.00  0.00    +0.000 S 
ATOM     15  C   UNL     1      50.357   8.851  15.866  0.00  0.00    +0.000 A 
ATOM     16  N   UNL     1      51.047   9.860  15.271  0.00  0.00    +0.000 NA
ATOM     17  C   UNL     1      51.170   9.739  13.991  0.00  0.00    +0.000 A 
ATOM     18  N   UNL     1      50.652   8.708  13.250  0.00  0.00    +0.000 N 
ATOM     19  C   UNL     1      49.908   7.693  13.803  0.00  0.00    +0.000 A 
ATOM     20  O   UNL     1      49.396   6.823  13.105  0.00  0.00    +0.000 OA
ATOM     21  C   UNL     1      49.771   7.763  15.245  0.00  0.00    +0.000 A 
ATOM     22  H   UNL     1      50.766   8.684  12.248  0.00  0.00    +0.000 HD
ENDBRANCH   9  12
ENDBRANCH   7  10
ENDBRANCH   1   7
BRANCH   4  23
ATOM     23  C   UNL     1      44.056   4.490   9.485  0.00  0.00    +0.000 C 
BRANCH  23  24
ATOM     24  N   UNL     1      44.580   3.519   8.549  0.00  0.00    +0.000 N 
ATOM     25  C   UNL     1      45.699   3.793   7.784  0.00  0.00    +0.000 C 
ATOM     26  O   UNL     1      46.345   4.827   7.902  0.00  0.00    +0.000 OA
ATOM     27  H   UNL     1      44.068   2.659   8.418  0.00  0.00    +0.000 HD
BRANCH  25  28
ATOM     28  C   UNL     1      46.065   2.673   6.811  0.00  0.00    +0.000 C 
ATOM     29  C   UNL     1      47.034   1.633   7.371  0.00  0.00    +0.000 C 
ATOM     30  C   UNL     1      48.371   2.004   6.758  0.00  0.00    +0.000 C 
ATOM     31  N   UNL     1      48.025   2.476   5.414  0.00  0.00    +0.000 NA
ATOM     32  C   UNL     1      46.780   3.239   5.584  0.00  0.00    +0.000 C 
ATOM     33  H   UNL     1      47.842   1.666   4.820  0.00  0.00    +0.000 HD
ENDBRANCH  25  28
ENDBRANCH  23  24
ENDBRANCH   4  23
TORSDOF 6
ENDMDL
MODEL 2
REMARK VINA RESULT:    -7.677      1.947      3.483
REMARK INTER + INTRA:         -11.475
REMARK INTER:                 -10.383
REMARK INTRA:                  -1.092
REMARK UNBOUND:                -1.105
REMARK  Name = 
REMARK  6 active torsions:
REMARK  status: ('A' for Active; 'I' for Inactive)
REMARK    1  A    between atoms: C_2  and  C_20
REMARK    2  A    between atoms: N_3  and  C_4
REMARK    3  A    between atoms: C_4  and  C_5
REMARK    4  A    between atoms: C_8  and  C_9
REMARK    5  A    between atoms: C_9  and  N_10
REMARK    6  A    between atoms: C_11  and  C_13
REMARK                            x       y       z     vdW  Elec       q    Type
REMARK                         _______ _______ _______ _____ _____    ______ ____
ROOT
ATOM      1  C   UNL     1      46.356   7.167  12.694  0.00  0.00    +0.000 A 
ATOM      2  C   UNL     1      45.258   7.712  12.012  0.00  0.00    +0.000 A 
ATOM      3  C   UNL     1      44.435   6.904  11.217  0.00  0.00    +0.000 A 
ATOM      4  C   UNL     1      44.674   5.528  11.104  0.00  0.00    +0.000 A 
ATOM      5  C   UNL     1      45.764   4.981  11.797  0.00  0.00    +0.000 A 
ATOM      6  C   UNL     1      46.588   5.790  12.591  0.00  0.00    +0.000 A 
ENDROOT
BRANCH   1   7
ATOM      7  C   UNL     1      47.274   8.054  13.499  0.00  0.00    +0.000 C 
BRANCH   7  10
ATOM      8  O   UNL     1      49.806   7.076  13.960  0.00  0.00    +0.000 OA
ATOM      9  C   UNL     1      49.005   7.046  14.892  0.00  0.00    +0.000 C 
ATOM     10  N   UNL     1      47.699   7.451  14.738  0.00  0.00    +0.000 N 
ATOM     11  H   UNL     1      47.129   7.619  15.562  0.00  0.00    +0.000 HD
BRANCH   9  12
ATOM     12  C   UNL     1      49.400   6.539  16.212  0.00  0.00    +0.000 A 
ATOM     13  C   UNL     1      50.275   7.276  17.002  0.00  0.00    +0.000 A 
ATOM     14  S   UNL     1      50.622   6.545  18.503  0.00  0.00    +0.000 S 
ATOM     15  C   UNL     1      49.576   5.244  18.172  0.00  0.00    +0.000 A 
ATOM     16  N   UNL     1      49.374   4.259  19.088  0.00  0.00    +0.000 NA
ATOM     17  C   UNL     1      48.525   3.358  18.721  0.00  0.00    +0.000 A 
ATOM     18  N   UNL     1      47.870   3.344  17.517  0.00  0.00    +0.000 N 
ATOM     19  C   UNL     1      48.078   4.293  16.544  0.00  0.00    +0.000 A 
ATOM     20  O   UNL     1      47.533   4.214  15.447  0.00  0.00    +0.000 OA
ATOM     21  C   UNL     1      48.997   5.349  16.920  0.00  0.00    +0.000 A 
ATOM     22  H   UNL     1      47.233   2.597  17.284  0.00  0.00    +0.000 HD
ENDBRANCH   9  12
ENDBRANCH   7  10
ENDBRANCH   1   7
BRANCH   4  23
ATOM     23  C   UNL     1      43.795   4.658  10.237  0.00  0.00    +0.000 C 
BRANCH  23  24
ATOM     24  N   UNL     1      44.404   4.394   8.951  0.00  0.00    +0.000 N 
ATOM     25  C   UNL     1      45.016   3.184   8.684  0.00  0.00    +0.000 C 
ATOM     26  O   UNL     1      45.017   2.252   9.479  0.00  0.00    +0.000 OA
ATOM     27  H   UNL     1      44.431   5.144   8.275  0.00  0.00    +0.000 HD
BRANCH  25  28
ATOM     28  C   UNL     1      45.655   3.114   7.298  0.00  0.00    +0.000 C 
ATOM     29  C   UNL     1      46.240   1.751   6.932  0.00  0.00    +0.000 C 
ATOM     30  C   UNL     1      47.734   1.924   7.130  0.00  0.00    +0.000 C 
ATOM     31  N   UNL     1      47.989   3.304   6.708  0.00  0.00    +0.000 NA
ATOM     32  C   UNL     1      46.841   4.075   7.203  0.00  0.00    +0.000 C 
ATOM     33  H   UNL     1      48.000   3.338   5.687  0.00  0.00    +0.000 HD
ENDBRANCH  25  28
ENDBRANCH  23  24
ENDBRANCH   4  23
TORSDOF 6
ENDMDL
MODEL 3
REMARK VINA RESULT:    -7.568      2.580      3.611
REMARK INTER + INTRA:         -11.328
REMARK INTER:                 -10.451
REMARK INTRA:                  -0.877
REMARK UNBOUND:                -1.105
REMARK  Name = 
REMARK  6 active torsions:
REMARK  status: ('A' for Active; 'I' for Inactive)
REMARK    1  A    between atoms: C_2  and  C_20
REMARK    2  A    between atoms: N_3  and  C_4
REMARK    3  A    between atoms: C_4  and  C_5
REMARK    4  A    between atoms: C_8  and  C_9
REMARK    5  A    between atoms: C_9  and  N_10
REMARK    6  A    between atoms: C_11  and  C_13
REMARK                            x       y       z     vdW  Elec       q    Type
REMARK                         _______ _______ _______ _____ _____    ______ ____
ROOT
ATOM      1  C   UNL     1      46.944   6.152  12.906  0.00  0.00    +0.000 A 
ATOM      2  C   UNL     1      46.829   6.644  11.597  0.00  0.00    +0.000 A 
ATOM      3  C   UNL     1      45.890   6.106  10.709  0.00  0.00    +0.000 A 
ATOM      4  C   UNL     1      45.024   5.082  11.114  0.00  0.00    +0.000 A 
ATOM      5  C   UNL     1      45.128   4.600  12.427  0.00  0.00    +0.000 A 
ATOM      6  C   UNL     1      46.070   5.138  13.316  0.00  0.00    +0.000 A 
ENDROOT
BRANCH   1   7
ATOM      7  C   UNL     1      47.999   6.694  13.838  0.00  0.00    +0.000 C 
BRANCH   7  10
ATOM      8  O   UNL     1      50.053   6.549  15.667  0.00  0.00    +0.000 OA
ATOM      9  C   UNL     1      48.924   6.252  16.052  0.00  0.00    +0.000 C 
ATOM     10  N   UNL     1      47.847   6.231  15.195  0.00  0.00    +0.000 N 
ATOM     11  H   UNL     1      46.907   6.196  15.578  0.00  0.00    +0.000 HD
BRANCH   9  12
ATOM     12  C   UNL     1      48.679   5.869  17.448  0.00  0.00    +0.000 A 
ATOM     13  C   UNL     1      48.922   4.564  17.859  0.00  0.00    +0.000 A 
ATOM     14  S   UNL     1      48.589   4.293  19.509  0.00  0.00    +0.000 S 
ATOM     15  C   UNL     1      48.158   5.922  19.745  0.00  0.00    +0.000 A 
ATOM     16  N   UNL     1      47.802   6.380  20.975  0.00  0.00    +0.000 NA
ATOM     17  C   UNL     1      47.540   7.644  21.017  0.00  0.00    +0.000 A 
ATOM     18  N   UNL     1      47.586   8.488  19.938  0.00  0.00    +0.000 N 
ATOM     19  C   UNL     1      47.894   8.060  18.668  0.00  0.00    +0.000 A 
ATOM     20  O   UNL     1      47.857   8.824  17.709  0.00  0.00    +0.000 OA
ATOM     21  C   UNL     1      48.233   6.653  18.573  0.00  0.00    +0.000 A 
ATOM     22  H   UNL     1      47.348   9.464  20.035  0.00  0.00    +0.000 HD
ENDBRANCH   9  12
ENDBRANCH   7  10
ENDBRANCH   1   7
BRANCH   4  23
ATOM     23  C   UNL     1      44.018   4.493  10.154  0.00  0.00    +0.000 C 
BRANCH  23  24
ATOM     24  N   UNL     1      44.605   4.233   8.857  0.00  0.00    +0.000 N 
ATOM     25  C   UNL     1      45.271   3.049   8.596  0.00  0.00    +0.000 C 
ATOM     26  O   UNL     1      45.341   2.136   9.409  0.00  0.00    +0.000 OA
ATOM     27  H   UNL     1      44.576   4.968   8.165  0.00  0.00    +0.000 HD
BRANCH  25  28
ATOM     28  C   UNL     1      45.876   2.983   7.195  0.00  0.00    +0.000 C 
ATOM     29  C   UNL     1      46.423   1.613   6.800  0.00  0.00    +0.000 C 
ATOM     30  C   UNL     1      47.925   1.752   6.964  0.00  0.00    +0.000 C 
ATOM     31  N   UNL     1      48.199   3.132   6.551  0.00  0.00    +0.000 NA
ATOM     32  C   UNL     1      47.078   3.920   7.083  0.00  0.00    +0.000 C 
ATOM     33  H   UNL     1      48.186   3.177   5.531  0.00  0.00    +0.000 HD
ENDBRANCH  25  28
ENDBRANCH  23  24
ENDBRANCH   4  23
TORSDOF 6
ENDMDL
MODEL 4
REMARK VINA RESULT:    -7.120      4.079      5.701
REMARK INTER + INTRA:         -10.722
REMARK INTER:                  -9.829
REMARK INTRA:                  -0.893
REMARK UNBOUND:                -1.105
REMARK  Name = 
REMARK  6 active torsions:
REMARK  status: ('A' for Active; 'I' for Inactive)
REMARK    1  A    between atoms: C_2  and  C_20
REMARK    2  A    between atoms: N_3  and  C_4
REMARK    3  A    between atoms: C_4  and  C_5
REMARK    4  A    between atoms: C_8  and  C_9
REMARK    5  A    between atoms: C_9  and  N_10
REMARK    6  A    between atoms: C_11  and  C_13
REMARK                            x       y       z     vdW  Elec       q    Type
REMARK                         _______ _______ _______ _____ _____    ______ ____
ROOT
ATOM      1  C   UNL     1      48.197   5.442  15.934  0.00  0.00    +0.000 A 
ATOM      2  C   UNL     1      47.298   4.575  15.295  0.00  0.00    +0.000 A 
ATOM      3  C   UNL     1      46.815   4.860  14.013  0.00  0.00    +0.000 A 
ATOM      4  C   UNL     1      47.236   6.007  13.326  0.00  0.00    +0.000 A 
ATOM      5  C   UNL     1      48.147   6.866  13.958  0.00  0.00    +0.000 A 
ATOM      6  C   UNL     1      48.630   6.581  15.243  0.00  0.00    +0.000 A 
ENDROOT
BRANCH   1   7
ATOM      7  C   UNL     1      48.666   5.159  17.340  0.00  0.00    +0.000 C 
BRANCH   7  10
ATOM      8  O   UNL     1      50.135   4.888  19.653  0.00  0.00    +0.000 OA
ATOM      9  C   UNL     1      50.638   4.483  18.608  0.00  0.00    +0.000 C 
ATOM     10  N   UNL     1      50.009   4.636  17.393  0.00  0.00    +0.000 N 
ATOM     11  H   UNL     1      50.340   4.107  16.591  0.00  0.00    +0.000 HD
BRANCH   9  12
ATOM     12  C   UNL     1      51.961   3.846  18.603  0.00  0.00    +0.000 A 
ATOM     13  C   UNL     1      53.039   4.488  19.201  0.00  0.00    +0.000 A 
ATOM     14  S   UNL     1      54.496   3.608  19.110  0.00  0.00    +0.000 S 
ATOM     15  C   UNL     1      53.728   2.315  18.313  0.00  0.00    +0.000 A 
ATOM     16  N   UNL     1      54.417   1.192  17.977  0.00  0.00    +0.000 NA
ATOM     17  C   UNL     1      53.701   0.276  17.415  0.00  0.00    +0.000 A 
ATOM     18  N   UNL     1      52.361   0.387  17.145  0.00  0.00    +0.000 N 
ATOM     19  C   UNL     1      51.635   1.521  17.423  0.00  0.00    +0.000 A 
ATOM     20  O   UNL     1      50.455   1.619  17.104  0.00  0.00    +0.000 OA
ATOM     21  C   UNL     1      52.386   2.568  18.090  0.00  0.00    +0.000 A 
ATOM     22  H   UNL     1      51.864  -0.359  16.683  0.00  0.00    +0.000 HD
ENDBRANCH   9  12
ENDBRANCH   7  10
ENDBRANCH   1   7
BRANCH   4  23
ATOM     23  C   UNL     1      46.706   6.323  11.948  0.00  0.00    +0.000 C 
BRANCH  23  24
ATOM     24  N   UNL     1      45.565   5.499  11.611  0.00  0.00    +0.000 N 
ATOM     25  C   UNL     1      45.267   5.191  10.296  0.00  0.00    +0.000 C 
ATOM     26  O   UNL     1      45.979   5.530   9.359  0.00  0.00    +0.000 OA
ATOM     27  H   UNL     1      44.950   5.210  12.358  0.00  0.00    +0.000 HD
BRANCH  25  28
ATOM     28  C   UNL     1      43.992   4.365  10.136  0.00  0.00    +0.000 C 
ATOM     29  C   UNL     1      43.100   4.322  11.375  0.00  0.00    +0.000 C 
ATOM     30  C   UNL     1      43.379   2.962  11.986  0.00  0.00    +0.000 C 
ATOM     31  N   UNL     1      43.579   2.088  10.826  0.00  0.00    +0.000 NA
ATOM     32  C   UNL     1      44.331   2.900   9.860  0.00  0.00    +0.000 C 
ATOM     33  H   UNL     1      42.667   1.855  10.430  0.00  0.00    +0.000 HD
ENDBRANCH  25  28
ENDBRANCH  23  24
ENDBRANCH   4  23
TORSDOF 6
ENDMDL
MODEL 5
REMARK VINA RESULT:    -6.820      4.472      9.140
REMARK INTER + INTRA:         -10.317
REMARK INTER:                  -9.392
REMARK INTRA:                  -0.925
REMARK UNBOUND:                -1.105
REMARK  Name = 
REMARK  6 active torsions:
REMARK  status: ('A' for Active; 'I' for Inactive)
REMARK    1  A    between atoms: C_2  and  C_20
REMARK    2  A    between atoms: N_3  and  C_4
REMARK    3  A    between atoms: C_4  and  C_5
REMARK    4  A    between atoms: C_8  and  C_9
REMARK    5  A    between atoms: C_9  and  N_10
REMARK    6  A    between atoms: C_11  and  C_13
REMARK                            x       y       z     vdW  Elec       q    Type
REMARK                         _______ _______ _______ _____ _____    ______ ____
ROOT
ATOM      1  C   UNL     1      48.864   6.610  15.620  0.00  0.00    +0.000 A 
ATOM      2  C   UNL     1      50.176   6.608  16.117  0.00  0.00    +0.000 A 
ATOM      3  C   UNL     1      50.593   5.639  17.037  0.00  0.00    +0.000 A 
ATOM      4  C   UNL     1      49.718   4.633  17.466  0.00  0.00    +0.000 A 
ATOM      5  C   UNL     1      48.410   4.625  16.958  0.00  0.00    +0.000 A 
ATOM      6  C   UNL     1      47.992   5.596  16.038  0.00  0.00    +0.000 A 
ENDROOT
BRANCH   1   7
ATOM      7  C   UNL     1      48.404   7.693  14.676  0.00  0.00    +0.000 C 
BRANCH   7  10
ATOM      8  O   UNL     1      48.127   6.287  12.325  0.00  0.00    +0.000 OA
ATOM      9  C   UNL     1      47.102   6.634  12.905  0.00  0.00    +0.000 C 
ATOM     10  N   UNL     1      47.139   7.397  14.050  0.00  0.00    +0.000 N 
ATOM     11  H   UNL     1      46.301   7.482  14.618  0.00  0.00    +0.000 HD
BRANCH   9  12
ATOM     12  C   UNL     1      45.778   6.279  12.378  0.00  0.00    +0.000 A 
ATOM     13  C   UNL     1      44.990   7.253  11.776  0.00  0.00    +0.000 A 
ATOM     14  S   UNL     1      43.489   6.669  11.216  0.00  0.00    +0.000 S 
ATOM     15  C   UNL     1      43.861   5.083  11.711  0.00  0.00    +0.000 A 
ATOM     16  N   UNL     1      42.996   4.059  11.483  0.00  0.00    +0.000 NA
ATOM     17  C   UNL     1      43.423   2.905  11.874  0.00  0.00    +0.000 A 
ATOM     18  N   UNL     1      44.631   2.684  12.485  0.00  0.00    +0.000 N 
ATOM     19  C   UNL     1      45.515   3.695  12.777  0.00  0.00    +0.000 A 
ATOM     20  O   UNL     1      46.555   3.478  13.390  0.00  0.00    +0.000 OA
ATOM     21  C   UNL     1      45.098   5.009  12.326  0.00  0.00    +0.000 A 
ATOM     22  H   UNL     1      44.896   1.758  12.785  0.00  0.00    +0.000 HD
ENDBRANCH   9  12
ENDBRANCH   7  10
ENDBRANCH   1   7
BRANCH   4  23
ATOM     23  C   UNL     1      50.163   3.594  18.468  0.00  0.00    +0.000 C 
BRANCH  23  24
ATOM     24  N   UNL     1      51.545   3.214  18.267  0.00  0.00    +0.000 N 
ATOM     25  C   UNL     1      51.877   2.014  17.667  0.00  0.00    +0.000 C 
ATOM     26  O   UNL     1      51.039   1.246  17.211  0.00  0.00    +0.000 OA
ATOM     27  H   UNL     1      52.263   3.819  18.640  0.00  0.00    +0.000 HD
BRANCH  25  28
ATOM     28  C   UNL     1      53.383   1.760  17.600  0.00  0.00    +0.000 C 
ATOM     29  C   UNL     1      53.773   0.358  17.135  0.00  0.00    +0.000 C 
ATOM     30  C   UNL     1      54.153  -0.363  18.414  0.00  0.00    +0.000 C 
ATOM     31  N   UNL     1      54.798   0.673  19.227  0.00  0.00    +0.000 NA
ATOM     32  C   UNL     1      54.013   1.891  18.986  0.00  0.00    +0.000 C 
ATOM     33  H   UNL     1      55.749   0.814  18.883  0.00  0.00    +0.000 HD
ENDBRANCH  25  28
ENDBRANCH  23  24
ENDBRANCH   4  23
TORSDOF 6
ENDMDL
MODEL 6
REMARK VINA RESULT:    -6.686      3.727      8.915
REMARK INTER + INTRA:         -10.136
REMARK INTER:                  -9.151
REMARK INTRA:                  -0.985
REMARK UNBOUND:                -1.105
REMARK  Name = 
REMARK  6 active torsions:
REMARK  status: ('A' for Active; 'I' for Inactive)
REMARK    1  A    between atoms: C_2  and  C_20
REMARK    2  A    between atoms: N_3  and  C_4
REMARK    3  A    between atoms: C_4  and  C_5
REMARK    4  A    between atoms: C_8  and  C_9
REMARK    5  A    between atoms: C_9  and  N_10
REMARK    6  A    between atoms: C_11  and  C_13
REMARK                            x       y       z     vdW  Elec       q    Type
REMARK                         _______ _______ _______ _____ _____    ______ ____
ROOT
ATOM      1  C   UNL     1      48.720   7.983  13.319  0.00  0.00    +0.000 A 
ATOM      2  C   UNL     1      48.316   6.894  14.107  0.00  0.00    +0.000 A 
ATOM      3  C   UNL     1      48.806   6.731  15.408  0.00  0.00    +0.000 A 
ATOM      4  C   UNL     1      49.691   7.663  15.964  0.00  0.00    +0.000 A 
ATOM      5  C   UNL     1      50.083   8.760  15.183  0.00  0.00    +0.000 A 
ATOM      6  C   UNL     1      49.594   8.923  13.879  0.00  0.00    +0.000 A 
ENDROOT
BRANCH   1   7
ATOM      7  C   UNL     1      48.236   8.120  11.896  0.00  0.00    +0.000 C 
BRANCH   7  10
ATOM      8  O   UNL     1      45.501   7.816  11.822  0.00  0.00    +0.000 OA
ATOM      9  C   UNL     1      46.188   6.909  11.359  0.00  0.00    +0.000 C 
ATOM     10  N   UNL     1      47.563   6.940  11.412  0.00  0.00    +0.000 N 
ATOM     11  H   UNL     1      48.098   6.295  10.839  0.00  0.00    +0.000 HD
BRANCH   9  12
ATOM     12  C   UNL     1      45.566   5.722  10.758  0.00  0.00    +0.000 A 
ATOM     13  C   UNL     1      45.753   5.454   9.407  0.00  0.00    +0.000 A 
ATOM     14  S   UNL     1      44.967   4.038   8.875  0.00  0.00    +0.000 S 
ATOM     15  C   UNL     1      44.392   3.704  10.441  0.00  0.00    +0.000 A 
ATOM     16  N   UNL     1      43.665   2.584  10.695  0.00  0.00    +0.000 NA
ATOM     17  C   UNL     1      43.330   2.436  11.934  0.00  0.00    +0.000 A 
ATOM     18  N   UNL     1      43.642   3.315  12.938  0.00  0.00    +0.000 N 
ATOM     19  C   UNL     1      44.333   4.483  12.719  0.00  0.00    +0.000 A 
ATOM     20  O   UNL     1      44.534   5.287  13.625  0.00  0.00    +0.000 OA
ATOM     21  C   UNL     1      44.765   4.679  11.349  0.00  0.00    +0.000 A 
ATOM     22  H   UNL     1      43.330   3.151  13.883  0.00  0.00    +0.000 HD
ENDBRANCH   9  12
ENDBRANCH   7  10
ENDBRANCH   1   7
BRANCH   4  23
ATOM     23  C   UNL     1      50.229   7.482  17.364  0.00  0.00    +0.000 C 
BRANCH  23  24
ATOM     24  N   UNL     1      49.878   6.188  17.908  0.00  0.00    +0.000 N 
ATOM     25  C   UNL     1      50.681   5.081  17.700  0.00  0.00    +0.000 C 
ATOM     26  O   UNL     1      51.755   5.143  17.113  0.00  0.00    +0.000 OA
ATOM     27  H   UNL     1      48.994   6.097  18.389  0.00  0.00    +0.000 HD
BRANCH  25  28
ATOM     28  C   UNL     1      50.116   3.794  18.297  0.00  0.00    +0.000 C 
ATOM     29  C   UNL     1      49.800   2.702  17.277  0.00  0.00    +0.000 C 
ATOM     30  C   UNL     1      48.293   2.769  17.116  0.00  0.00    +0.000 C 
ATOM     31  N   UNL     1      47.808   3.098  18.459  0.00  0.00    +0.000 NA
ATOM     32  C   UNL     1      48.780   4.063  18.991  0.00  0.00    +0.000 C 
ATOM     33  H   UNL     1      47.830   2.253  19.031  0.00  0.00    +0.000 HD
ENDBRANCH  25  28
ENDBRANCH  23  24
ENDBRANCH   4  23
TORSDOF 6
ENDMDL
MODEL 7
REMARK VINA RESULT:    -6.576      2.714      4.046
REMARK INTER + INTRA:          -9.988
REMARK INTER:                  -8.844
REMARK INTRA:                  -1.144
REMARK UNBOUND:                -1.105
REMARK  Name = 
REMARK  6 active torsions:
REMARK  status: ('A' for Active; 'I' for Inactive)
REMARK    1  A    between atoms: C_2  and  C_20
REMARK    2  A    between atoms: N_3  and  C_4
REMARK    3  A    between atoms: C_4  and  C_5
REMARK    4  A    between atoms: C_8  and  C_9
REMARK    5  A    between atoms: C_9  and  N_10
REMARK    6  A    between atoms: C_11  and  C_13
REMARK                            x       y       z     vdW  Elec       q    Type
REMARK                         _______ _______ _______ _____ _____    ______ ____
ROOT
ATOM      1  C   UNL     1      48.409   7.780  12.653  0.00  0.00    +0.000 A 
ATOM      2  C   UNL     1      48.178   6.411  12.853  0.00  0.00    +0.000 A 
ATOM      3  C   UNL     1      46.907   5.861  12.648  0.00  0.00    +0.000 A 
ATOM      4  C   UNL     1      45.841   6.660  12.213  0.00  0.00    +0.000 A 
ATOM      5  C   UNL     1      46.076   8.026  11.999  0.00  0.00    +0.000 A 
ATOM      6  C   UNL     1      47.348   8.577  12.206  0.00  0.00    +0.000 A 
ENDROOT
BRANCH   1   7
ATOM      7  C   UNL     1      49.766   8.377  12.935  0.00  0.00    +0.000 C 
BRANCH   7  10
ATOM      8  O   UNL     1      51.071   9.287  15.182  0.00  0.00    +0.000 OA
ATOM      9  C   UNL     1      51.143   8.087  14.929  0.00  0.00    +0.000 C 
ATOM     10  N   UNL     1      50.580   7.551  13.793  0.00  0.00    +0.000 N 
ATOM     11  H   UNL     1      50.467   6.544  13.721  0.00  0.00    +0.000 HD
BRANCH   9  12
ATOM     12  C   UNL     1      51.870   7.170  15.815  0.00  0.00    +0.000 A 
ATOM     13  C   UNL     1      53.240   7.321  15.991  0.00  0.00    +0.000 A 
ATOM     14  S   UNL     1      53.924   6.177  17.055  0.00  0.00    +0.000 S 
ATOM     15  C   UNL     1      52.405   5.471  17.357  0.00  0.00    +0.000 A 
ATOM     16  N   UNL     1      52.275   4.440  18.234  0.00  0.00    +0.000 NA
ATOM     17  C   UNL     1      51.061   4.030  18.398  0.00  0.00    +0.000 A 
ATOM     18  N   UNL     1      49.968   4.547  17.752  0.00  0.00    +0.000 N 
ATOM     19  C   UNL     1      50.058   5.557  16.824  0.00  0.00    +0.000 A 
ATOM     20  O   UNL     1      49.071   5.950  16.208  0.00  0.00    +0.000 OA
ATOM     21  C   UNL     1      51.397   6.078  16.630  0.00  0.00    +0.000 A 
ATOM     22  H   UNL     1      49.047   4.166  17.910  0.00  0.00    +0.000 HD
ENDBRANCH   9  12
ENDBRANCH   7  10
ENDBRANCH   1   7
BRANCH   4  23
ATOM     23  C   UNL     1      44.467   6.070  12.003  0.00  0.00    +0.000 C 
BRANCH  23  24
ATOM     24  N   UNL     1      44.353   5.425  10.713  0.00  0.00    +0.000 N 
ATOM     25  C   UNL     1      44.525   4.059  10.577  0.00  0.00    +0.000 C 
ATOM     26  O   UNL     1      44.710   3.317  11.533  0.00  0.00    +0.000 OA
ATOM     27  H   UNL     1      44.212   6.007   9.900  0.00  0.00    +0.000 HD
BRANCH  25  28
ATOM     28  C   UNL     1      44.429   3.572   9.133  0.00  0.00    +0.000 C 
ATOM     29  C   UNL     1      44.542   2.058   8.962  0.00  0.00    +0.000 C 
ATOM     30  C   UNL     1      45.964   1.844   8.476  0.00  0.00    +0.000 C 
ATOM     31  N   UNL     1      46.221   3.003   7.616  0.00  0.00    +0.000 NA
ATOM     32  C   UNL     1      45.578   4.136   8.297  0.00  0.00    +0.000 C 
ATOM     33  H   UNL     1      45.764   2.850   6.716  0.00  0.00    +0.000 HD
ENDBRANCH  25  28
ENDBRANCH  23  24
ENDBRANCH   4  23
TORSDOF 6
ENDMDL
MODEL 8
REMARK VINA RESULT:    -6.466      3.167      8.948
REMARK INTER + INTRA:          -9.840
REMARK INTER:                  -9.183
REMARK INTRA:                  -0.657
REMARK UNBOUND:                -1.105
REMARK  Name = 
REMARK  6 active torsions:
REMARK  status: ('A' for Active; 'I' for Inactive)
REMARK    1  A    between atoms: C_2  and  C_20
REMARK    2  A    between atoms: N_3  and  C_4
REMARK    3  A    between atoms: C_4  and  C_5
REMARK    4  A    between atoms: C_8  and  C_9
REMARK    5  A    between atoms: C_9  and  N_10
REMARK    6  A    between atoms: C_11  and  C_13
REMARK                            x       y       z     vdW  Elec       q    Type
REMARK                         _______ _______ _______ _____ _____    ______ ____
ROOT
ATOM      1  C   UNL     1      44.734   4.558  12.305  0.00  0.00    +0.000 A 
ATOM      2  C   UNL     1      46.004   4.322  12.850  0.00  0.00    +0.000 A 
ATOM      3  C   UNL     1      46.812   5.384  13.273  0.00  0.00    +0.000 A 
ATOM      4  C   UNL     1      46.361   6.708  13.184  0.00  0.00    +0.000 A 
ATOM      5  C   UNL     1      45.084   6.943  12.652  0.00  0.00    +0.000 A 
ATOM      6  C   UNL     1      44.276   5.879  12.228  0.00  0.00    +0.000 A 
ENDROOT
BRANCH   1   7
ATOM      7  C   UNL     1      43.894   3.412  11.795  0.00  0.00    +0.000 C 
BRANCH   7  10
ATOM      8  O   UNL     1      44.083   3.917   9.095  0.00  0.00    +0.000 OA
ATOM      9  C   UNL     1      44.685   2.940   9.536  0.00  0.00    +0.000 C 
ATOM     10  N   UNL     1      44.596   2.570  10.858  0.00  0.00    +0.000 N 
ATOM     11  H   UNL     1      45.263   1.903  11.234  0.00  0.00    +0.000 HD
BRANCH   9  12
ATOM     12  C   UNL     1      45.502   2.097   8.656  0.00  0.00    +0.000 A 
ATOM     13  C   UNL     1      45.384   0.713   8.720  0.00  0.00    +0.000 A 
ATOM     14  S   UNL     1      46.401  -0.112   7.627  0.00  0.00    +0.000 S 
ATOM     15  C   UNL     1      46.997   1.351   6.994  0.00  0.00    +0.000 A 
ATOM     16  N   UNL     1      47.893   1.356   5.972  0.00  0.00    +0.000 NA
ATOM     17  C   UNL     1      48.228   2.534   5.563  0.00  0.00    +0.000 A 
ATOM     18  N   UNL     1      47.759   3.708   6.094  0.00  0.00    +0.000 N 
ATOM     19  C   UNL     1      46.889   3.751   7.158  0.00  0.00    +0.000 A 
ATOM     20  O   UNL     1      46.544   4.817   7.659  0.00  0.00    +0.000 OA
ATOM     21  C   UNL     1      46.453   2.452   7.631  0.00  0.00    +0.000 A 
ATOM     22  H   UNL     1      48.078   4.598   5.742  0.00  0.00    +0.000 HD
ENDBRANCH   9  12
ENDBRANCH   7  10
ENDBRANCH   1   7
BRANCH   4  23
ATOM     23  C   UNL     1      47.235   7.856  13.629  0.00  0.00    +0.000 C 
BRANCH  23  24
ATOM     24  N   UNL     1      47.777   7.635  14.952  0.00  0.00    +0.000 N 
ATOM     25  C   UNL     1      49.073   7.184  15.129  0.00  0.00    +0.000 C 
ATOM     26  O   UNL     1      49.849   7.016  14.197  0.00  0.00    +0.000 OA
ATOM     27  H   UNL     1      47.162   7.753  15.744  0.00  0.00    +0.000 HD
BRANCH  25  28
ATOM     28  C   UNL     1      49.444   6.951  16.593  0.00  0.00    +0.000 C 
ATOM     29  C   UNL     1      50.906   7.233  16.932  0.00  0.00    +0.000 C 
ATOM     30  C   UNL     1      51.542   5.858  17.010  0.00  0.00    +0.000 C 
ATOM     31  N   UNL     1      50.491   5.015  17.588  0.00  0.00    +0.000 NA
ATOM     32  C   UNL     1      49.242   5.484  16.972  0.00  0.00    +0.000 C 
ATOM     33  H   UNL     1      50.452   5.185  18.594  0.00  0.00    +0.000 HD
ENDBRANCH  25  28
ENDBRANCH  23  24
ENDBRANCH   4  23
TORSDOF 6
ENDMDL
MODEL 9
REMARK VINA RESULT:    -6.013      3.098      4.528
REMARK INTER + INTRA:          -9.227
REMARK INTER:                  -8.090
REMARK INTRA:                  -1.137
REMARK UNBOUND:                -1.105
REMARK  Name = 
REMARK  6 active torsions:
REMARK  status: ('A' for Active; 'I' for Inactive)
REMARK    1  A    between atoms: C_2  and  C_20
REMARK    2  A    between atoms: N_3  and  C_4
REMARK    3  A    between atoms: C_4  and  C_5
REMARK    4  A    between atoms: C_8  and  C_9
REMARK    5  A    between atoms: C_9  and  N_10
REMARK    6  A    between atoms: C_11  and  C_13
REMARK                            x       y       z     vdW  Elec       q    Type
REMARK                         _______ _______ _______ _____ _____    ______ ____
ROOT
ATOM      1  C   UNL     1      47.052   8.054  13.203  0.00  0.00    +0.000 A 
ATOM      2  C   UNL     1      45.783   7.906  12.623  0.00  0.00    +0.000 A 
ATOM      3  C   UNL     1      45.236   6.635  12.411  0.00  0.00    +0.000 A 
ATOM      4  C   UNL     1      45.931   5.481  12.795  0.00  0.00    +0.000 A 
ATOM      5  C   UNL     1      47.194   5.629  13.388  0.00  0.00    +0.000 A 
ATOM      6  C   UNL     1      47.742   6.902  13.599  0.00  0.00    +0.000 A 
ENDROOT
BRANCH   1   7
ATOM      7  C   UNL     1      47.662   9.424  13.372  0.00  0.00    +0.000 C 
BRANCH   7  10
ATOM      8  O   UNL     1      50.144  10.290  14.192  0.00  0.00    +0.000 OA
ATOM      9  C   UNL     1      49.994  10.036  12.999  0.00  0.00    +0.000 C 
ATOM     10  N   UNL     1      48.773   9.662  12.485  0.00  0.00    +0.000 N 
ATOM     11  H   UNL     1      48.728   9.255  11.555  0.00  0.00    +0.000 HD
BRANCH   9  12
ATOM     12  C   UNL     1      51.111  10.158  12.054  0.00  0.00    +0.000 A 
ATOM     13  C   UNL     1      51.840  11.340  11.996  0.00  0.00    +0.000 A 
ATOM     14  S   UNL     1      53.103  11.309  10.850  0.00  0.00    +0.000 S 
ATOM     15  C   UNL     1      52.753   9.698  10.428  0.00  0.00    +0.000 A 
ATOM     16  N   UNL     1      53.507   9.036   9.510  0.00  0.00    +0.000 NA
ATOM     17  C   UNL     1      53.154   7.809   9.318  0.00  0.00    +0.000 A 
ATOM     18  N   UNL     1      52.108   7.188   9.949  0.00  0.00    +0.000 N 
ATOM     19  C   UNL     1      51.290   7.831  10.847  0.00  0.00    +0.000 A 
ATOM     20  O   UNL     1      50.317   7.271  11.342  0.00  0.00    +0.000 OA
ATOM     21  C   UNL     1      51.666   9.204  11.127  0.00  0.00    +0.000 A 
ATOM     22  H   UNL     1      51.872   6.230   9.736  0.00  0.00    +0.000 HD
ENDBRANCH   9  12
ENDBRANCH   7  10
ENDBRANCH   1   7
BRANCH   4  23
ATOM     23  C   UNL     1      45.347   4.109  12.556  0.00  0.00    +0.000 C 
BRANCH  23  24
ATOM     24  N   UNL     1      45.223   3.819  11.144  0.00  0.00    +0.000 N 
ATOM     25  C   UNL     1      44.126   3.140  10.646  0.00  0.00    +0.000 C 
ATOM     26  O   UNL     1      43.176   2.813  11.346  0.00  0.00    +0.000 OA
ATOM     27  H   UNL     1      45.993   4.065  10.538  0.00  0.00    +0.000 HD
BRANCH  25  28
ATOM     28  C   UNL     1      44.203   2.872   9.143  0.00  0.00    +0.000 C 
ATOM     29  C   UNL     1      44.968   1.607   8.759  0.00  0.00    +0.000 C 
ATOM     30  C   UNL     1      46.318   2.116   8.292  0.00  0.00    +0.000 C 
ATOM     31  N   UNL     1      46.004   3.379   7.616  0.00  0.00    +0.000 NA
ATOM     32  C   UNL     1      44.953   4.000   8.433  0.00  0.00    +0.000 C 
ATOM     33  H   UNL     1      45.629   3.170   6.690  0.00  0.00    +0.000 HD
ENDBRANCH  25  28
ENDBRANCH  23  24
ENDBRANCH   4  23
TORSDOF 6
ENDMDL
