MODEL 1
REMARK VINA RESULT:    -8.763      0.000      0.000
REMARK INTER + INTRA:         -13.943
REMARK INTER:                 -12.605
REMARK INTRA:                  -1.339
REMARK UNBOUND:                -1.339
REMARK  Name = 
REMARK  8 active torsions:
REMARK  status: ('A' for Active; 'I' for Inactive)
REMARK    1  A    between atoms: N_1  and  C_2
REMARK    2  A    between atoms: C_2  and  C_3
REMARK    3  A    between atoms: C_2  and  C_14
REMARK    4  A    between atoms: C_3  and  N_4
REMARK    5  A    between atoms: C_5  and  C_7
REMARK    6  A    between atoms: C_17  and  C_18
REMARK    7  A    between atoms: C_18  and  N_19
REMARK    8  A    between atoms: C_20  and  C_22
REMARK                            x       y       z     vdW  Elec       q    Type
REMARK                         _______ _______ _______ _____ _____    ______ ____
ROOT
ATOM      1  C   UNL     1      46.457   5.003  13.628  0.00  0.00    +0.000 A 
ATOM      2  C   UNL     1      46.778   4.490  14.905  0.00  0.00    +0.000 A 
ATOM      3  C   UNL     1      47.737   5.096  15.723  0.00  0.00    +0.000 A 
ATOM      4  C   UNL     1      48.418   6.233  15.287  0.00  0.00    +0.000 A 
ATOM      5  C   UNL     1      48.147   6.721  14.005  0.00  0.00    +0.000 A 
ATOM      6  C   UNL     1      47.187   6.119  13.188  0.00  0.00    +0.000 A 
ENDROOT
BRANCH   1   7
ATOM      7  C   UNL     1      45.417   4.321  12.737  0.00  0.00    +0.000 C 
BRANCH   7   8
ATOM      8  N   UNL     1      45.697   2.896  12.486  0.00  0.00    +0.000 NA
ATOM      9  H   UNL     1      44.894   2.435  12.073  0.00  0.00    +0.000 HD
ATOM     10  H   UNL     1      45.899   2.435  13.372  0.00  0.00    +0.000 HD
ENDBRANCH   7   8
BRANCH   7  11
ATOM     11  C   UNL     1      45.244   5.006  11.357  0.00  0.00    +0.000 C 
BRANCH  11  12
ATOM     12  N   UNL     1      45.000   4.065  10.268  0.00  0.00    +0.000 N 
ATOM     13  C   UNL     1      45.491   4.339   9.014  0.00  0.00    +0.000 C 
ATOM     14  O   UNL     1      46.071   5.396   8.762  0.00  0.00    +0.000 OA
ATOM     15  H   UNL     1      44.824   3.087  10.501  0.00  0.00    +0.000 HD
BRANCH  13  16
ATOM     16  C   UNL     1      45.192   3.290   7.954  0.00  0.00    +0.000 C 
ATOM     17  C   UNL     1      46.112   3.453   6.740  0.00  0.00    +0.000 C 
ATOM     18  C   UNL     1      47.468   2.802   6.990  0.00  0.00    +0.000 C 
ATOM     19  C   UNL     1      47.265   1.321   7.248  0.00  0.00    +0.000 C 
ATOM     20  N   UNL     1      46.271   1.076   8.268  0.00  0.00    +0.000 N 
ATOM     21  C   UNL     1      45.199   1.882   8.522  0.00  0.00    +0.000 C 
ATOM     22  O   UNL     1      44.306   1.488   9.274  0.00  0.00    +0.000 OA
ATOM     23  H   UNL     1      46.185   0.141   8.649  0.00  0.00    +0.000 HD
ENDBRANCH  13  16
ENDBRANCH  11  12
ENDBRANCH   7  11
ENDBRANCH   1   7
BRANCH   4  24
ATOM     24  C   UNL     1      49.464   6.899  16.136  0.00  0.00    +0.000 C 
BRANCH  24  25
ATOM     25  N   UNL     1      50.445   5.943  16.583  0.00  0.00    +0.000 N 
ATOM     26  C   UNL     1      50.593   5.643  17.912  0.00  0.00    +0.000 C 
ATOM     27  O   UNL     1      49.881   6.138  18.780  0.00  0.00    +0.000 OA
ATOM     28  H   UNL     1      51.210   5.744  15.946  0.00  0.00    +0.000 HD
BRANCH  26  29
ATOM     29  C   UNL     1      51.617   4.643  18.238  0.00  0.00    +0.000 A 
ATOM     30  C   UNL     1      52.766   5.024  18.918  0.00  0.00    +0.000 A 
ATOM     31  S   UNL     1      53.832   3.731  19.237  0.00  0.00    +0.000 S 
ATOM     32  C   UNL     1      52.816   2.624  18.436  0.00  0.00    +0.000 A 
ATOM     33  N   UNL     1      53.169   1.316  18.310  0.00  0.00    +0.000 NA
ATOM     34  C   UNL     1      52.315   0.596  17.661  0.00  0.00    +0.000 A 
ATOM     35  N   UNL     1      51.137   1.062  17.138  0.00  0.00    +0.000 N 
ATOM     36  C   UNL     1      50.729   2.367  17.260  0.00  0.00    +0.000 A 
ATOM     37  O   UNL     1      49.647   2.740  16.819  0.00  0.00    +0.000 OA
ATOM     38  C   UNL     1      51.664   3.226  17.963  0.00  0.00    +0.000 A 
ATOM     39  H   UNL     1      50.505   0.442  16.653  0.00  0.00    +0.000 HD
ENDBRANCH  26  29
ENDBRANCH  24  25
ENDBRANCH   4  24
TORSDOF 8
ENDMDL
MODEL 2
REMARK VINA RESULT:    -7.999      2.417      2.876
REMARK INTER + INTRA:         -12.845
REMARK INTER:                 -11.381
REMARK INTRA:                  -1.464
REMARK UNBOUND:                -1.339
REMARK  Name = 
REMARK  8 active torsions:
REMARK  status: ('A' for Active; 'I' for Inactive)
REMARK    1  A    between atoms: N_1  and  C_2
REMARK    2  A    between atoms: C_2  and  C_3
REMARK    3  A    between atoms: C_2  and  C_14
REMARK    4  A    between atoms: C_3  and  N_4
REMARK    5  A    between atoms: C_5  and  C_7
REMARK    6  A    between atoms: C_17  and  C_18
REMARK    7  A    between atoms: C_18  and  N_19
REMARK    8  A    between atoms: C_20  and  C_22
REMARK                            x       y       z     vdW  Elec       q    Type
REMARK                         _______ _______ _______ _____ _____    ______ ____
ROOT
ATOM      1  C   UNL     1      45.676   5.105  12.457  0.00  0.00    +0.000 A 
ATOM      2  C   UNL     1      46.342   6.154  11.784  0.00  0.00    +0.000 A 
ATOM      3  C   UNL     1      47.483   6.763  12.315  0.00  0.00    +0.000 A 
ATOM      4  C   UNL     1      47.993   6.351  13.547  0.00  0.00    +0.000 A 
ATOM      5  C   UNL     1      47.314   5.349  14.247  0.00  0.00    +0.000 A 
ATOM      6  C   UNL     1      46.176   4.738  13.716  0.00  0.00    +0.000 A 
ENDROOT
BRANCH   1   7
ATOM      7  C   UNL     1      44.419   4.458  11.871  0.00  0.00    +0.000 C 
BRANCH   7   8
ATOM      8  N   UNL     1      44.492   2.988  11.794  0.00  0.00    +0.000 NA
ATOM      9  H   UNL     1      43.680   2.561  12.225  0.00  0.00    +0.000 HD
ATOM     10  H   UNL     1      45.317   2.669  12.300  0.00  0.00    +0.000 HD
ENDBRANCH   7   8
BRANCH   7  11
ATOM     11  C   UNL     1      44.063   4.975  10.453  0.00  0.00    +0.000 C 
BRANCH  11  12
ATOM     12  N   UNL     1      44.217   3.966   9.411  0.00  0.00    +0.000 N 
ATOM     13  C   UNL     1      45.220   4.099   8.481  0.00  0.00    +0.000 C 
ATOM     14  O   UNL     1      45.953   5.089   8.456  0.00  0.00    +0.000 OA
ATOM     15  H   UNL     1      43.863   3.025   9.590  0.00  0.00    +0.000 HD
BRANCH  13  16
ATOM     16  C   UNL     1      45.300   2.987   7.446  0.00  0.00    +0.000 C 
ATOM     17  C   UNL     1      46.299   3.336   6.338  0.00  0.00    +0.000 C 
ATOM     18  C   UNL     1      47.727   3.024   6.772  0.00  0.00    +0.000 C 
ATOM     19  C   UNL     1      47.838   1.541   7.076  0.00  0.00    +0.000 C 
ATOM     20  N   UNL     1      46.809   1.092   7.986  0.00  0.00    +0.000 N 
ATOM     21  C   UNL     1      45.559   1.632   8.077  0.00  0.00    +0.000 C 
ATOM     22  O   UNL     1      44.694   1.056   8.740  0.00  0.00    +0.000 OA
ATOM     23  H   UNL     1      46.894   0.170   8.400  0.00  0.00    +0.000 HD
ENDBRANCH  13  16
ENDBRANCH  11  12
ENDBRANCH   7  11
ENDBRANCH   1   7
BRANCH   4  24
ATOM     24  C   UNL     1      49.209   6.995  14.151  0.00  0.00    +0.000 C 
BRANCH  24  25
ATOM     25  N   UNL     1      49.145   6.959  15.590  0.00  0.00    +0.000 N 
ATOM     26  C   UNL     1      50.283   6.910  16.353  0.00  0.00    +0.000 C 
ATOM     27  O   UNL     1      51.406   6.932  15.858  0.00  0.00    +0.000 OA
ATOM     28  H   UNL     1      48.266   6.659  16.000  0.00  0.00    +0.000 HD
BRANCH  26  29
ATOM     29  C   UNL     1      50.085   6.891  17.807  0.00  0.00    +0.000 A 
ATOM     30  C   UNL     1      50.478   7.980  18.573  0.00  0.00    +0.000 A 
ATOM     31  S   UNL     1      50.149   7.799  20.237  0.00  0.00    +0.000 S 
ATOM     32  C   UNL     1      49.511   6.239  19.997  0.00  0.00    +0.000 A 
ATOM     33  N   UNL     1      49.072   5.493  21.047  0.00  0.00    +0.000 NA
ATOM     34  C   UNL     1      48.634   4.322  20.722  0.00  0.00    +0.000 A 
ATOM     35  N   UNL     1      48.585   3.834  19.441  0.00  0.00    +0.000 N 
ATOM     36  C   UNL     1      48.995   4.559  18.349  0.00  0.00    +0.000 A 
ATOM     37  O   UNL     1      48.895   4.108  17.213  0.00  0.00    +0.000 OA
ATOM     38  C   UNL     1      49.517   5.875  18.662  0.00  0.00    +0.000 A 
ATOM     39  H   UNL     1      48.218   2.914  19.252  0.00  0.00    +0.000 HD
ENDBRANCH  26  29
ENDBRANCH  24  25
ENDBRANCH   4  24
TORSDOF 8
ENDMDL
MODEL 3
REMARK VINA RESULT:    -7.920      1.742      2.760
REMARK INTER + INTRA:         -12.732
REMARK INTER:                 -11.773
REMARK INTRA:                  -0.959
REMARK UNBOUND:                -1.339
REMARK  Name = 
REMARK  8 active torsions:
REMARK  status: ('A' for Active; 'I' for Inactive)
REMARK    1  A    between atoms: N_1  and  C_2
REMARK    2  A    between atoms: C_2  and  C_3
REMARK    3  A    between atoms: C_2  and  C_14
REMARK    4  A    between atoms: C_3  and  N_4
REMARK    5  A    between atoms: C_5  and  C_7
REMARK    6  A    between atoms: C_17  and  C_18
REMARK    7  A    between atoms: C_18  and  N_19
REMARK    8  A    between atoms: C_20  and  C_22
REMARK                            x       y       z     vdW  Elec       q    Type
REMARK                         _______ _______ _______ _____ _____    ______ ____
ROOT
ATOM      1  C   UNL     1      47.137   5.592  13.165  0.00  0.00    +0.000 A 
ATOM      2  C   UNL     1      46.648   4.278  13.338  0.00  0.00    +0.000 A 
ATOM      3  C   UNL     1      46.737   3.614  14.565  0.00  0.00    +0.000 A 
ATOM      4  C   UNL     1      47.329   4.240  15.663  0.00  0.00    +0.000 A 
ATOM      5  C   UNL     1      47.863   5.521  15.492  0.00  0.00    +0.000 A 
ATOM      6  C   UNL     1      47.772   6.186  14.267  0.00  0.00    +0.000 A 
ENDROOT
BRANCH   1   7
ATOM      7  C   UNL     1      47.047   6.301  11.811  0.00  0.00    +0.000 C 
BRANCH   7   8
ATOM      8  N   UNL     1      47.867   7.522  11.727  0.00  0.00    +0.000 NA
ATOM      9  H   UNL     1      48.651   7.478  12.368  0.00  0.00    +0.000 HD
ATOM     10  H   UNL     1      47.296   8.325  11.988  0.00  0.00    +0.000 HD
ENDBRANCH   7   8
BRANCH   7  11
ATOM     11  C   UNL     1      45.599   6.690  11.414  0.00  0.00    +0.000 C 
BRANCH  11  12
ATOM     12  N   UNL     1      44.892   5.637  10.692  0.00  0.00    +0.000 N 
ATOM     13  C   UNL     1      45.370   5.211   9.476  0.00  0.00    +0.000 C 
ATOM     14  O   UNL     1      46.341   5.745   8.939  0.00  0.00    +0.000 OA
ATOM     15  H   UNL     1      44.315   4.986  11.226  0.00  0.00    +0.000 HD
BRANCH  13  16
ATOM     16  C   UNL     1      44.566   4.103   8.813  0.00  0.00    +0.000 C 
ATOM     17  C   UNL     1      45.223   3.653   7.504  0.00  0.00    +0.000 C 
ATOM     18  C   UNL     1      46.352   2.663   7.770  0.00  0.00    +0.000 C 
ATOM     19  C   UNL     1      45.785   1.444   8.473  0.00  0.00    +0.000 C 
ATOM     20  N   UNL     1      44.995   1.799   9.630  0.00  0.00    +0.000 N 
ATOM     21  C   UNL     1      44.280   2.954   9.762  0.00  0.00    +0.000 C 
ATOM     22  O   UNL     1      43.486   3.075  10.697  0.00  0.00    +0.000 OA
ATOM     23  H   UNL     1      44.721   1.066  10.275  0.00  0.00    +0.000 HD
ENDBRANCH  13  16
ENDBRANCH  11  12
ENDBRANCH   7  11
ENDBRANCH   1   7
BRANCH   4  24
ATOM     24  C   UNL     1      47.453   3.548  16.992  0.00  0.00    +0.000 C 
BRANCH  24  25
ATOM     25  N   UNL     1      48.836   3.411  17.371  0.00  0.00    +0.000 N 
ATOM     26  C   UNL     1      49.625   2.423  16.843  0.00  0.00    +0.000 C 
ATOM     27  O   UNL     1      49.210   1.634  15.999  0.00  0.00    +0.000 OA
ATOM     28  H   UNL     1      49.114   3.848  18.244  0.00  0.00    +0.000 HD
BRANCH  26  29
ATOM     29  C   UNL     1      51.020   2.398  17.298  0.00  0.00    +0.000 A 
ATOM     30  C   UNL     1      51.624   1.187  17.613  0.00  0.00    +0.000 A 
ATOM     31  S   UNL     1      53.252   1.343  18.097  0.00  0.00    +0.000 S 
ATOM     32  C   UNL     1      53.194   3.037  17.946  0.00  0.00    +0.000 A 
ATOM     33  N   UNL     1      54.273   3.805  18.255  0.00  0.00    +0.000 NA
ATOM     34  C   UNL     1      54.081   5.074  18.116  0.00  0.00    +0.000 A 
ATOM     35  N   UNL     1      52.910   5.645  17.685  0.00  0.00    +0.000 N 
ATOM     36  C   UNL     1      51.803   4.909  17.340  0.00  0.00    +0.000 A 
ATOM     37  O   UNL     1      50.787   5.449  16.915  0.00  0.00    +0.000 OA
ATOM     38  C   UNL     1      51.960   3.476  17.500  0.00  0.00    +0.000 A 
ATOM     39  H   UNL     1      52.829   6.646  17.583  0.00  0.00    +0.000 HD
ENDBRANCH  26  29
ENDBRANCH  24  25
ENDBRANCH   4  24
TORSDOF 8
ENDMDL
MODEL 4
REMARK VINA RESULT:    -7.763      1.782      2.210
REMARK INTER + INTRA:         -12.505
REMARK INTER:                 -11.174
REMARK INTRA:                  -1.332
REMARK UNBOUND:                -1.339
REMARK  Name = 
REMARK  8 active torsions:
REMARK  status: ('A' for Active; 'I' for Inactive)
REMARK    1  A    between atoms: N_1  and  C_2
REMARK    2  A    between atoms: C_2  and  C_3
REMARK    3  A    between atoms: C_2  and  C_14
REMARK    4  A    between atoms: C_3  and  N_4
REMARK    5  A    between atoms: C_5  and  C_7
REMARK    6  A    between atoms: C_17  and  C_18
REMARK    7  A    between atoms: C_18  and  N_19
REMARK    8  A    between atoms: C_20  and  C_22
REMARK                            x       y       z     vdW  Elec       q    Type
REMARK                         _______ _______ _______ _____ _____    ______ ____
ROOT
ATOM      1  C   UNL     1      46.223   5.799  12.422  0.00  0.00    +0.000 A 
ATOM      2  C   UNL     1      46.902   5.564  13.639  0.00  0.00    +0.000 A 
ATOM      3  C   UNL     1      48.023   6.311  14.013  0.00  0.00    +0.000 A 
ATOM      4  C   UNL     1      48.512   7.316  13.176  0.00  0.00    +0.000 A 
ATOM      5  C   UNL     1      47.881   7.524  11.946  0.00  0.00    +0.000 A 
ATOM      6  C   UNL     1      46.759   6.780  11.573  0.00  0.00    +0.000 A 
ENDROOT
BRANCH   1   7
ATOM      7  C   UNL     1      45.007   4.963  12.018  0.00  0.00    +0.000 C 
BRANCH   7   8
ATOM      8  N   UNL     1      45.289   3.520  11.912  0.00  0.00    +0.000 NA
ATOM      9  H   UNL     1      44.630   2.980  12.461  0.00  0.00    +0.000 HD
ATOM     10  H   UNL     1      46.223   3.336  12.277  0.00  0.00    +0.000 HD
ENDBRANCH   7   8
BRANCH   7  11
ATOM     11  C   UNL     1      44.373   5.407  10.674  0.00  0.00    +0.000 C 
BRANCH  11  12
ATOM     12  N   UNL     1      44.350   4.352   9.666  0.00  0.00    +0.000 N 
ATOM     13  C   UNL     1      45.282   4.361   8.656  0.00  0.00    +0.000 C 
ATOM     14  O   UNL     1      46.095   5.278   8.532  0.00  0.00    +0.000 OA
ATOM     15  H   UNL     1      43.931   3.454   9.911  0.00  0.00    +0.000 HD
BRANCH  13  16
ATOM     16  C   UNL     1      45.178   3.212   7.664  0.00  0.00    +0.000 C 
ATOM     17  C   UNL     1      46.167   3.391   6.507  0.00  0.00    +0.000 C 
ATOM     18  C   UNL     1      47.562   2.915   6.900  0.00  0.00    +0.000 C 
ATOM     19  C   UNL     1      47.498   1.443   7.261  0.00  0.00    +0.000 C 
ATOM     20  N   UNL     1      46.460   1.161   8.226  0.00  0.00    +0.000 N 
ATOM     21  C   UNL     1      45.291   1.858   8.341  0.00  0.00    +0.000 C 
ATOM     22  O   UNL     1      44.390   1.421   9.058  0.00  0.00    +0.000 OA
ATOM     23  H   UNL     1      46.445   0.251   8.673  0.00  0.00    +0.000 HD
ENDBRANCH  13  16
ENDBRANCH  11  12
ENDBRANCH   7  11
ENDBRANCH   1   7
BRANCH   4  24
ATOM     24  C   UNL     1      49.723   8.126  13.543  0.00  0.00    +0.000 C 
BRANCH  24  25
ATOM     25  N   UNL     1      50.641   7.346  14.332  0.00  0.00    +0.000 N 
ATOM     26  C   UNL     1      51.263   7.875  15.433  0.00  0.00    +0.000 C 
ATOM     27  O   UNL     1      51.043   9.017  15.825  0.00  0.00    +0.000 OA
ATOM     28  H   UNL     1      51.047   6.529  13.884  0.00  0.00    +0.000 HD
BRANCH  26  29
ATOM     29  C   UNL     1      52.165   6.974  16.161  0.00  0.00    +0.000 A 
ATOM     30  C   UNL     1      53.526   7.246  16.208  0.00  0.00    +0.000 A 
ATOM     31  S   UNL     1      54.418   6.112  17.118  0.00  0.00    +0.000 S 
ATOM     32  C   UNL     1      53.022   5.193  17.443  0.00  0.00    +0.000 A 
ATOM     33  N   UNL     1      53.096   4.039  18.160  0.00  0.00    +0.000 NA
ATOM     34  C   UNL     1      51.965   3.434  18.312  0.00  0.00    +0.000 A 
ATOM     35  N   UNL     1      50.766   3.883  17.821  0.00  0.00    +0.000 N 
ATOM     36  C   UNL     1      50.639   5.052  17.112  0.00  0.00    +0.000 A 
ATOM     37  O   UNL     1      49.544   5.448  16.727  0.00  0.00    +0.000 OA
ATOM     38  C   UNL     1      51.887   5.761  16.894  0.00  0.00    +0.000 A 
ATOM     39  H   UNL     1      49.914   3.369  17.987  0.00  0.00    +0.000 HD
ENDBRANCH  26  29
ENDBRANCH  24  25
ENDBRANCH   4  24
TORSDOF 8
ENDMDL
MODEL 5
REMARK VINA RESULT:    -7.685      3.106      4.392
REMARK INTER + INTRA:         -12.393
REMARK INTER:                 -11.119
REMARK INTRA:                  -1.274
REMARK UNBOUND:                -1.339
REMARK  Name = 
REMARK  8 active torsions:
REMARK  status: ('A' for Active; 'I' for Inactive)
REMARK    1  A    between atoms: N_1  and  C_2
REMARK    2  A    between atoms: C_2  and  C_3
REMARK    3  A    between atoms: C_2  and  C_14
REMARK    4  A    between atoms: C_3  and  N_4
REMARK    5  A    between atoms: C_5  and  C_7
REMARK    6  A    between atoms: C_17  and  C_18
REMARK    7  A    between atoms: C_18  and  N_19
REMARK    8  A    between atoms: C_20  and  C_22
REMARK                            x       y       z     vdW  Elec       q    Type
REMARK                         _______ _______ _______ _____ _____    ______ ____
ROOT
ATOM      1  C   UNL     1      45.224   4.789  11.973  0.00  0.00    +0.000 A 
ATOM      2  C   UNL     1      45.634   6.069  11.537  0.00  0.00    +0.000 A 
ATOM      3  C   UNL     1      46.632   6.789  12.199  0.00  0.00    +0.000 A 
ATOM      4  C   UNL     1      47.251   6.257  13.332  0.00  0.00    +0.000 A 
ATOM      5  C   UNL     1      46.819   5.014  13.804  0.00  0.00    +0.000 A 
ATOM      6  C   UNL     1      45.824   4.292  13.141  0.00  0.00    +0.000 A 
ENDROOT
BRANCH   1   7
ATOM      7  C   UNL     1      44.118   4.019  11.247  0.00  0.00    +0.000 C 
BRANCH   7   8
ATOM      8  N   UNL     1      44.337   2.562  11.213  0.00  0.00    +0.000 NA
ATOM      9  H   UNL     1      45.314   2.338  11.361  0.00  0.00    +0.000 HD
ATOM     10  H   UNL     1      44.071   2.208  10.295  0.00  0.00    +0.000 HD
ENDBRANCH   7   8
BRANCH   7  11
ATOM     11  C   UNL     1      43.900   4.486   9.785  0.00  0.00    +0.000 C 
BRANCH  11  12
ATOM     12  N   UNL     1      44.277   3.485   8.793  0.00  0.00    +0.000 N 
ATOM     13  C   UNL     1      45.405   3.677   8.032  0.00  0.00    +0.000 C 
ATOM     14  O   UNL     1      46.072   4.711   8.110  0.00  0.00    +0.000 OA
ATOM     15  H   UNL     1      43.957   2.525   8.926  0.00  0.00    +0.000 HD
BRANCH  13  16
ATOM     16  C   UNL     1      45.715   2.570   7.036  0.00  0.00    +0.000 C 
ATOM     17  C   UNL     1      46.440   3.123   5.804  0.00  0.00    +0.000 C 
ATOM     18  C   UNL     1      47.932   3.286   6.075  0.00  0.00    +0.000 C 
ATOM     19  C   UNL     1      48.523   1.932   6.418  0.00  0.00    +0.000 C 
ATOM     20  N   UNL     1      47.781   1.261   7.461  0.00  0.00    +0.000 N 
ATOM     21  C   UNL     1      46.442   1.404   7.682  0.00  0.00    +0.000 C 
ATOM     22  O   UNL     1      45.869   0.644   8.465  0.00  0.00    +0.000 OA
ATOM     23  H   UNL     1      48.187   0.439   7.895  0.00  0.00    +0.000 HD
ENDBRANCH  13  16
ENDBRANCH  11  12
ENDBRANCH   7  11
ENDBRANCH   1   7
BRANCH   4  24
ATOM     24  C   UNL     1      48.318   7.011  14.074  0.00  0.00    +0.000 C 
BRANCH  24  25
ATOM     25  N   UNL     1      48.087   6.959  15.495  0.00  0.00    +0.000 N 
ATOM     26  C   UNL     1      49.052   6.511  16.358  0.00  0.00    +0.000 C 
ATOM     27  O   UNL     1      50.167   6.170  15.975  0.00  0.00    +0.000 OA
ATOM     28  H   UNL     1      47.118   6.958  15.800  0.00  0.00    +0.000 HD
BRANCH  26  29
ATOM     29  C   UNL     1      48.699   6.519  17.783  0.00  0.00    +0.000 A 
ATOM     30  C   UNL     1      48.837   5.361  18.537  0.00  0.00    +0.000 A 
ATOM     31  S   UNL     1      48.408   5.558  20.176  0.00  0.00    +0.000 S 
ATOM     32  C   UNL     1      47.981   7.187  19.925  0.00  0.00    +0.000 A 
ATOM     33  N   UNL     1      47.485   7.945  20.941  0.00  0.00    +0.000 NA
ATOM     34  C   UNL     1      47.183   9.154  20.603  0.00  0.00    +0.000 A 
ATOM     35  N   UNL     1      47.341   9.677  19.345  0.00  0.00    +0.000 N 
ATOM     36  C   UNL     1      47.858   8.958  18.296  0.00  0.00    +0.000 A 
ATOM     37  O   UNL     1      48.028   9.471  17.195  0.00  0.00    +0.000 OA
ATOM     38  C   UNL     1      48.194   7.584  18.617  0.00  0.00    +0.000 A 
ATOM     39  H   UNL     1      47.098  10.637  19.150  0.00  0.00    +0.000 HD
ENDBRANCH  26  29
ENDBRANCH  24  25
ENDBRANCH   4  24
TORSDOF 8
ENDMDL
MODEL 6
REMARK VINA RESULT:    -7.386      3.163      9.119
REMARK INTER + INTRA:         -11.963
REMARK INTER:                 -10.924
REMARK INTRA:                  -1.038
REMARK UNBOUND:                -1.339
REMARK  Name = 
REMARK  8 active torsions:
REMARK  status: ('A' for Active; 'I' for Inactive)
REMARK    1  A    between atoms: N_1  and  C_2
REMARK    2  A    between atoms: C_2  and  C_3
REMARK    3  A    between atoms: C_2  and  C_14
REMARK    4  A    between atoms: C_3  and  N_4
REMARK    5  A    between atoms: C_5  and  C_7
REMARK    6  A    between atoms: C_17  and  C_18
REMARK    7  A    between atoms: C_18  and  N_19
REMARK    8  A    between atoms: C_20  and  C_22
REMARK                            x       y       z     vdW  Elec       q    Type
REMARK                         _______ _______ _______ _____ _____    ______ ____
ROOT
ATOM      1  C   UNL     1      50.464   7.464  15.329  0.00  0.00    +0.000 A 
ATOM      2  C   UNL     1      49.104   7.087  15.403  0.00  0.00    +0.000 A 
ATOM      3  C   UNL     1      48.257   7.160  14.294  0.00  0.00    +0.000 A 
ATOM      4  C   UNL     1      48.739   7.624  13.069  0.00  0.00    +0.000 A 
ATOM      5  C   UNL     1      50.069   8.048  12.994  0.00  0.00    +0.000 A 
ATOM      6  C   UNL     1      50.917   7.973  14.101  0.00  0.00    +0.000 A 
ENDROOT
BRANCH   1   7
ATOM      7  C   UNL     1      51.376   7.394  16.555  0.00  0.00    +0.000 C 
BRANCH   7   8
ATOM      8  N   UNL     1      52.608   8.191  16.423  0.00  0.00    +0.000 NA
ATOM      9  H   UNL     1      52.948   8.178  15.468  0.00  0.00    +0.000 HD
ATOM     10  H   UNL     1      53.331   7.787  17.016  0.00  0.00    +0.000 HD
ENDBRANCH   7   8
BRANCH   7  11
ATOM     11  C   UNL     1      51.799   5.949  16.926  0.00  0.00    +0.000 C 
BRANCH  11  12
ATOM     12  N   UNL     1      50.671   5.047  17.129  0.00  0.00    +0.000 N 
ATOM     13  C   UNL     1      50.836   3.917  17.893  0.00  0.00    +0.000 C 
ATOM     14  O   UNL     1      51.934   3.601  18.354  0.00  0.00    +0.000 OA
ATOM     15  H   UNL     1      49.726   5.425  17.045  0.00  0.00    +0.000 HD
BRANCH  13  16
ATOM     16  C   UNL     1      49.595   3.051  18.051  0.00  0.00    +0.000 C 
ATOM     17  C   UNL     1      48.537   3.754  18.906  0.00  0.00    +0.000 C 
ATOM     18  C   UNL     1      47.730   4.744  18.074  0.00  0.00    +0.000 C 
ATOM     19  C   UNL     1      47.030   3.995  16.956  0.00  0.00    +0.000 C 
ATOM     20  N   UNL     1      47.940   3.161  16.204  0.00  0.00    +0.000 N 
ATOM     21  C   UNL     1      49.059   2.569  16.716  0.00  0.00    +0.000 C 
ATOM     22  O   UNL     1      49.658   1.723  16.050  0.00  0.00    +0.000 OA
ATOM     23  H   UNL     1      47.623   2.761  15.328  0.00  0.00    +0.000 HD
ENDBRANCH  13  16
ENDBRANCH  11  12
ENDBRANCH   7  11
ENDBRANCH   1   7
BRANCH   4  24
ATOM     24  C   UNL     1      47.850   7.728  11.861  0.00  0.00    +0.000 C 
BRANCH  24  25
ATOM     25  N   UNL     1      47.088   6.518  11.682  0.00  0.00    +0.000 N 
ATOM     26  C   UNL     1      45.718   6.527  11.718  0.00  0.00    +0.000 C 
ATOM     27  O   UNL     1      45.072   7.561  11.867  0.00  0.00    +0.000 OA
ATOM     28  H   UNL     1      47.577   5.643  11.841  0.00  0.00    +0.000 HD
BRANCH  26  29
ATOM     29  C   UNL     1      45.057   5.233  11.508  0.00  0.00    +0.000 A 
ATOM     30  C   UNL     1      44.336   4.648  12.540  0.00  0.00    +0.000 A 
ATOM     31  S   UNL     1      43.614   3.163  12.112  0.00  0.00    +0.000 S 
ATOM     32  C   UNL     1      44.278   3.228  10.546  0.00  0.00    +0.000 A 
ATOM     33  N   UNL     1      44.075   2.219   9.657  0.00  0.00    +0.000 NA
ATOM     34  C   UNL     1      44.655   2.390   8.516  0.00  0.00    +0.000 A 
ATOM     35  N   UNL     1      45.411   3.484   8.180  0.00  0.00    +0.000 N 
ATOM     36  C   UNL     1      45.625   4.536   9.035  0.00  0.00    +0.000 A 
ATOM     37  O   UNL     1      46.270   5.519   8.686  0.00  0.00    +0.000 OA
ATOM     38  C   UNL     1      45.012   4.383  10.341  0.00  0.00    +0.000 A 
ATOM     39  H   UNL     1      45.827   3.563   7.263  0.00  0.00    +0.000 HD
ENDBRANCH  26  29
ENDBRANCH  24  25
ENDBRANCH   4  24
TORSDOF 8
ENDMDL
MODEL 7
REMARK VINA RESULT:    -7.357      3.947      9.774
REMARK INTER + INTRA:         -11.921
REMARK INTER:                 -10.283
REMARK INTRA:                  -1.637
REMARK UNBOUND:                -1.339
REMARK  Name = 
REMARK  8 active torsions:
REMARK  status: ('A' for Active; 'I' for Inactive)
REMARK    1  A    between atoms: N_1  and  C_2
REMARK    2  A    between atoms: C_2  and  C_3
REMARK    3  A    between atoms: C_2  and  C_14
REMARK    4  A    between atoms: C_3  and  N_4
REMARK    5  A    between atoms: C_5  and  C_7
REMARK    6  A    between atoms: C_17  and  C_18
REMARK    7  A    between atoms: C_18  and  N_19
REMARK    8  A    between atoms: C_20  and  C_22
REMARK                            x       y       z     vdW  Elec       q    Type
REMARK                         _______ _______ _______ _____ _____    ______ ____
ROOT
ATOM      1  C   UNL     1      50.875   4.835  19.085  0.00  0.00    +0.000 A 
ATOM      2  C   UNL     1      50.813   4.737  17.677  0.00  0.00    +0.000 A 
ATOM      3  C   UNL     1      49.633   4.388  17.014  0.00  0.00    +0.000 A 
ATOM      4  C   UNL     1      48.471   4.116  17.739  0.00  0.00    +0.000 A 
ATOM      5  C   UNL     1      48.532   4.160  19.135  0.00  0.00    +0.000 A 
ATOM      6  C   UNL     1      49.711   4.511  19.798  0.00  0.00    +0.000 A 
ENDROOT
BRANCH   1   7
ATOM      7  C   UNL     1      52.179   5.202  19.798  0.00  0.00    +0.000 C 
BRANCH   7   8
ATOM      8  N   UNL     1      53.072   6.056  18.996  0.00  0.00    +0.000 NA
ATOM      9  H   UNL     1      52.742   7.015  18.981  0.00  0.00    +0.000 HD
ATOM     10  H   UNL     1      53.083   5.716  18.035  0.00  0.00    +0.000 HD
ENDBRANCH   7   8
BRANCH   7  11
ATOM     11  C   UNL     1      53.004   3.968  20.248  0.00  0.00    +0.000 C 
BRANCH  11  12
ATOM     12  N   UNL     1      52.925   2.847  19.317  0.00  0.00    +0.000 N 
ATOM     13  C   UNL     1      53.885   2.706  18.344  0.00  0.00    +0.000 C 
ATOM     14  O   UNL     1      54.774   3.544  18.185  0.00  0.00    +0.000 OA
ATOM     15  H   UNL     1      52.425   2.007  19.610  0.00  0.00    +0.000 HD
BRANCH  13  16
ATOM     16  C   UNL     1      53.716   1.499  17.433  0.00  0.00    +0.000 C 
ATOM     17  C   UNL     1      54.996   0.658  17.390  0.00  0.00    +0.000 C 
ATOM     18  C   UNL     1      55.081  -0.272  18.595  0.00  0.00    +0.000 C 
ATOM     19  C   UNL     1      53.885  -1.207  18.582  0.00  0.00    +0.000 C 
ATOM     20  N   UNL     1      52.636  -0.494  18.445  0.00  0.00    +0.000 N 
ATOM     21  C   UNL     1      52.481   0.688  17.779  0.00  0.00    +0.000 C 
ATOM     22  O   UNL     1      51.348   1.114  17.550  0.00  0.00    +0.000 OA
ATOM     23  H   UNL     1      51.769  -0.995  18.607  0.00  0.00    +0.000 HD
ENDBRANCH  13  16
ENDBRANCH  11  12
ENDBRANCH   7  11
ENDBRANCH   1   7
BRANCH   4  24
ATOM     24  C   UNL     1      47.190   3.725  17.057  0.00  0.00    +0.000 C 
BRANCH  24  25
ATOM     25  N   UNL     1      46.879   4.641  15.989  0.00  0.00    +0.000 N 
ATOM     26  C   UNL     1      47.037   4.284  14.675  0.00  0.00    +0.000 C 
ATOM     27  O   UNL     1      47.411   3.164  14.340  0.00  0.00    +0.000 OA
ATOM     28  H   UNL     1      46.847   5.627  16.230  0.00  0.00    +0.000 HD
BRANCH  26  29
ATOM     29  C   UNL     1      46.673   5.301  13.682  0.00  0.00    +0.000 A 
ATOM     30  C   UNL     1      47.579   6.299  13.347  0.00  0.00    +0.000 A 
ATOM     31  S   UNL     1      47.000   7.376  12.158  0.00  0.00    +0.000 S 
ATOM     32  C   UNL     1      45.501   6.574  12.082  0.00  0.00    +0.000 A 
ATOM     33  N   UNL     1      44.508   7.022  11.267  0.00  0.00    +0.000 NA
ATOM     34  C   UNL     1      43.418   6.332  11.326  0.00  0.00    +0.000 A 
ATOM     35  N   UNL     1      43.235   5.227  12.119  0.00  0.00    +0.000 N 
ATOM     36  C   UNL     1      44.215   4.725  12.940  0.00  0.00    +0.000 A 
ATOM     37  O   UNL     1      44.032   3.709  13.601  0.00  0.00    +0.000 OA
ATOM     38  C   UNL     1      45.454   5.479  12.927  0.00  0.00    +0.000 A 
ATOM     39  H   UNL     1      42.361   4.722  12.108  0.00  0.00    +0.000 HD
ENDBRANCH  26  29
ENDBRANCH  24  25
ENDBRANCH   4  24
TORSDOF 8
ENDMDL
MODEL 8
REMARK VINA RESULT:    -7.104      4.113      8.667
REMARK INTER + INTRA:         -11.557
REMARK INTER:                  -9.194
REMARK INTRA:                  -2.363
REMARK UNBOUND:                -1.339
REMARK  Name = 
REMARK  8 active torsions:
REMARK  status: ('A' for Active; 'I' for Inactive)
REMARK    1  A    between atoms: N_1  and  C_2
REMARK    2  A    between atoms: C_2  and  C_3
REMARK    3  A    between atoms: C_2  and  C_14
REMARK    4  A    between atoms: C_3  and  N_4
REMARK    5  A    between atoms: C_5  and  C_7
REMARK    6  A    between atoms: C_17  and  C_18
REMARK    7  A    between atoms: C_18  and  N_19
REMARK    8  A    between atoms: C_20  and  C_22
REMARK                            x       y       z     vdW  Elec       q    Type
REMARK                         _______ _______ _______ _____ _____    ______ ____
ROOT
ATOM      1  C   UNL     1      51.648   6.632  17.636  0.00  0.00    +0.000 A 
ATOM      2  C   UNL     1      50.913   7.538  18.433  0.00  0.00    +0.000 A 
ATOM      3  C   UNL     1      49.932   8.371  17.888  0.00  0.00    +0.000 A 
ATOM      4  C   UNL     1      49.656   8.334  16.520  0.00  0.00    +0.000 A 
ATOM      5  C   UNL     1      50.411   7.479  15.711  0.00  0.00    +0.000 A 
ATOM      6  C   UNL     1      51.390   6.644  16.256  0.00  0.00    +0.000 A 
ENDROOT
BRANCH   1   7
ATOM      7  C   UNL     1      52.730   5.737  18.244  0.00  0.00    +0.000 C 
BRANCH   7   8
ATOM      8  N   UNL     1      54.008   5.775  17.511  0.00  0.00    +0.000 NA
ATOM      9  H   UNL     1      54.653   6.430  17.938  0.00  0.00    +0.000 HD
ATOM     10  H   UNL     1      53.835   6.085  16.556  0.00  0.00    +0.000 HD
ENDBRANCH   7   8
BRANCH   7  11
ATOM     11  C   UNL     1      52.308   4.249  18.357  0.00  0.00    +0.000 C 
BRANCH  11  12
ATOM     12  N   UNL     1      50.933   4.069  18.809  0.00  0.00    +0.000 N 
ATOM     13  C   UNL     1      50.017   3.476  17.974  0.00  0.00    +0.000 C 
ATOM     14  O   UNL     1      50.305   3.156  16.819  0.00  0.00    +0.000 OA
ATOM     15  H   UNL     1      50.754   4.021  19.813  0.00  0.00    +0.000 HD
BRANCH  13  16
ATOM     16  C   UNL     1      48.615   3.326  18.545  0.00  0.00    +0.000 C 
ATOM     17  C   UNL     1      48.473   4.093  19.864  0.00  0.00    +0.000 C 
ATOM     18  C   UNL     1      48.202   5.572  19.610  0.00  0.00    +0.000 C 
ATOM     19  C   UNL     1      46.911   5.711  18.826  0.00  0.00    +0.000 C 
ATOM     20  N   UNL     1      46.895   4.874  17.648  0.00  0.00    +0.000 N 
ATOM     21  C   UNL     1      47.542   3.677  17.532  0.00  0.00    +0.000 C 
ATOM     22  O   UNL     1      47.308   2.950  16.566  0.00  0.00    +0.000 OA
ATOM     23  H   UNL     1      46.167   5.020  16.957  0.00  0.00    +0.000 HD
ENDBRANCH  13  16
ENDBRANCH  11  12
ENDBRANCH   7  11
ENDBRANCH   1   7
BRANCH   4  24
ATOM     24  C   UNL     1      48.617   9.227  15.901  0.00  0.00    +0.000 C 
BRANCH  24  25
ATOM     25  N   UNL     1      47.687   8.459  15.114  0.00  0.00    +0.000 N 
ATOM     26  C   UNL     1      47.669   8.545  13.746  0.00  0.00    +0.000 C 
ATOM     27  O   UNL     1      48.463   9.244  13.123  0.00  0.00    +0.000 OA
ATOM     28  H   UNL     1      46.863   8.111  15.594  0.00  0.00    +0.000 HD
BRANCH  26  29
ATOM     29  C   UNL     1      46.684   7.702  13.058  0.00  0.00    +0.000 A 
ATOM     30  C   UNL     1      45.778   8.276  12.176  0.00  0.00    +0.000 A 
ATOM     31  S   UNL     1      44.727   7.147  11.447  0.00  0.00    +0.000 S 
ATOM     32  C   UNL     1      45.416   5.858  12.320  0.00  0.00    +0.000 A 
ATOM     33  N   UNL     1      44.939   4.591  12.190  0.00  0.00    +0.000 NA
ATOM     34  C   UNL     1      45.541   3.718  12.927  0.00  0.00    +0.000 A 
ATOM     35  N   UNL     1      46.583   3.995  13.774  0.00  0.00    +0.000 N 
ATOM     36  C   UNL     1      47.112   5.254  13.921  0.00  0.00    +0.000 A 
ATOM     37  O   UNL     1      48.074   5.459  14.654  0.00  0.00    +0.000 OA
ATOM     38  C   UNL     1      46.456   6.278  13.130  0.00  0.00    +0.000 A 
ATOM     39  H   UNL     1      47.020   3.263  14.314  0.00  0.00    +0.000 HD
ENDBRANCH  26  29
ENDBRANCH  24  25
ENDBRANCH   4  24
TORSDOF 8
ENDMDL
MODEL 9
REMARK VINA RESULT:    -7.006      3.942      8.862
REMARK INTER + INTRA:         -11.416
REMARK INTER:                  -9.462
REMARK INTRA:                  -1.954
REMARK UNBOUND:                -1.339
REMARK  Name = 
REMARK  8 active torsions:
REMARK  status: ('A' for Active; 'I' for Inactive)
REMARK    1  A    between atoms: N_1  and  C_2
REMARK    2  A    between atoms: C_2  and  C_3
REMARK    3  A    between atoms: C_2  and  C_14
REMARK    4  A    between atoms: C_3  and  N_4
REMARK    5  A    between atoms: C_5  and  C_7
REMARK    6  A    between atoms: C_17  and  C_18
REMARK    7  A    between atoms: C_18  and  N_19
REMARK    8  A    between atoms: C_20  and  C_22
REMARK                            x       y       z     vdW  Elec       q    Type
REMARK                         _______ _______ _______ _____ _____    ______ ____
ROOT
ATOM      1  C   UNL     1      50.714   7.400  18.223  0.00  0.00    +0.000 A 
ATOM      2  C   UNL     1      49.328   7.669  18.281  0.00  0.00    +0.000 A 
ATOM      3  C   UNL     1      48.617   8.119  17.164  0.00  0.00    +0.000 A 
ATOM      4  C   UNL     1      49.271   8.326  15.949  0.00  0.00    +0.000 A 
ATOM      5  C   UNL     1      50.652   8.113  15.891  0.00  0.00    +0.000 A 
ATOM      6  C   UNL     1      51.363   7.661  17.006  0.00  0.00    +0.000 A 
ENDROOT
BRANCH   1   7
ATOM      7  C   UNL     1      51.482   6.924  19.458  0.00  0.00    +0.000 C 
BRANCH   7   8
ATOM      8  N   UNL     1      52.681   7.728  19.755  0.00  0.00    +0.000 NA
ATOM      9  H   UNL     1      52.653   8.616  19.268  0.00  0.00    +0.000 HD
ATOM     10  H   UNL     1      53.507   7.224  19.436  0.00  0.00    +0.000 HD
ENDBRANCH   7   8
BRANCH   7  11
ATOM     11  C   UNL     1      51.932   5.442  19.369  0.00  0.00    +0.000 C 
BRANCH  11  12
ATOM     12  N   UNL     1      50.820   4.502  19.280  0.00  0.00    +0.000 N 
ATOM     13  C   UNL     1      50.564   3.867  18.089  0.00  0.00    +0.000 C 
ATOM     14  O   UNL     1      51.203   4.124  17.067  0.00  0.00    +0.000 OA
ATOM     15  H   UNL     1      50.500   4.046  20.135  0.00  0.00    +0.000 HD
BRANCH  13  16
ATOM     16  C   UNL     1      49.390   2.900  18.105  0.00  0.00    +0.000 C 
ATOM     17  C   UNL     1      48.206   3.483  18.884  0.00  0.00    +0.000 C 
ATOM     18  C   UNL     1      47.397   4.439  18.014  0.00  0.00    +0.000 C 
ATOM     19  C   UNL     1      46.861   3.681  16.814  0.00  0.00    +0.000 C 
ATOM     20  N   UNL     1      47.899   2.952  16.121  0.00  0.00    +0.000 N 
ATOM     21  C   UNL     1      49.014   2.430  16.713  0.00  0.00    +0.000 C 
ATOM     22  O   UNL     1      49.736   1.661  16.076  0.00  0.00    +0.000 OA
ATOM     23  H   UNL     1      47.694   2.562  15.208  0.00  0.00    +0.000 HD
ENDBRANCH  13  16
ENDBRANCH  11  12
ENDBRANCH   7  11
ENDBRANCH   1   7
BRANCH   4  24
ATOM     24  C   UNL     1      48.538   8.822  14.734  0.00  0.00    +0.000 C 
BRANCH  24  25
ATOM     25  N   UNL     1      47.560   7.859  14.299  0.00  0.00    +0.000 N 
ATOM     26  C   UNL     1      47.885   6.861  13.417  0.00  0.00    +0.000 C 
ATOM     27  O   UNL     1      49.024   6.713  12.985  0.00  0.00    +0.000 OA
ATOM     28  H   UNL     1      46.584   8.119  14.407  0.00  0.00    +0.000 HD
BRANCH  26  29
ATOM     29  C   UNL     1      46.803   5.935  13.061  0.00  0.00    +0.000 A 
ATOM     30  C   UNL     1      46.938   4.578  13.327  0.00  0.00    +0.000 A 
ATOM     31  S   UNL     1      45.576   3.656  12.874  0.00  0.00    +0.000 S 
ATOM     32  C   UNL     1      44.778   5.031  12.266  0.00  0.00    +0.000 A 
ATOM     33  N   UNL     1      43.552   4.928  11.686  0.00  0.00    +0.000 NA
ATOM     34  C   UNL     1      43.074   6.046  11.249  0.00  0.00    +0.000 A 
ATOM     35  N   UNL     1      43.707   7.259  11.351  0.00  0.00    +0.000 N 
ATOM     36  C   UNL     1      44.933   7.414  11.949  0.00  0.00    +0.000 A 
ATOM     37  O   UNL     1      45.450   8.521  12.063  0.00  0.00    +0.000 OA
ATOM     38  C   UNL     1      45.525   6.183  12.437  0.00  0.00    +0.000 A 
ATOM     39  H   UNL     1      43.272   8.100  11.001  0.00  0.00    +0.000 HD
ENDBRANCH  26  29
ENDBRANCH  24  25
ENDBRANCH   4  24
TORSDOF 8
ENDMDL
