MODEL 1
REMARK VINA RESULT:    -7.997      0.000      0.000
REMARK INTER + INTRA:         -13.107
REMARK INTER:                 -11.736
REMARK INTRA:                  -1.370
REMARK UNBOUND:                -1.370
REMARK  Name = 
REMARK  9 active torsions:
REMARK  status: ('A' for Active; 'I' for Inactive)
REMARK    1  A    between atoms: C_1  and  O_2
REMARK    2  A    between atoms: O_2  and  C_3
REMARK    3  A    between atoms: C_10  and  C_11
REMARK    4  A    between atoms: N_13  and  C_14
REMARK    5  A    between atoms: C_14  and  C_15
REMARK    6  A    between atoms: C_18  and  C_19
REMARK    7  A    between atoms: C_19  and  N_20
REMARK    8  A    between atoms: N_20  and  C_21
REMARK    9  A    between atoms: C_21  and  C_22
REMARK                            x       y       z     vdW  Elec       q    Type
REMARK                         _______ _______ _______ _____ _____    ______ ____
ROOT
ATOM      1  C   UNL     1      47.947   6.910  13.302  0.00  0.00    +0.000 C 
ENDROOT
BRANCH   1   2
ATOM      2  C   UNL     1      46.875   6.039  12.698  0.00  0.00    +0.000 A 
ATOM      3  C   UNL     1      46.411   6.287  11.400  0.00  0.00    +0.000 A 
ATOM      4  C   UNL     1      45.369   5.529  10.857  0.00  0.00    +0.000 A 
ATOM      5  C   UNL     1      44.773   4.499  11.595  0.00  0.00    +0.000 A 
ATOM      6  C   UNL     1      45.246   4.241  12.888  0.00  0.00    +0.000 A 
ATOM      7  C   UNL     1      46.282   5.008  13.436  0.00  0.00    +0.000 A 
BRANCH   5   8
ATOM      8  C   UNL     1      43.620   3.709  11.012  0.00  0.00    +0.000 C 
BRANCH   8   9
ATOM      9  N   UNL     1      43.851   3.409   9.601  0.00  0.00    +0.000 NA
ATOM     10  H   UNL     1      44.404   4.161   9.191  0.00  0.00    +0.000 HD
BRANCH   9  11
ATOM     11  C   UNL     1      44.556   2.142   9.423  0.00  0.00    +0.000 C 
BRANCH  11  12
ATOM     12  C   UNL     1      45.655   2.290   8.398  0.00  0.00    +0.000 A 
ATOM     13  C   UNL     1      46.445   1.201   8.021  0.00  0.00    +0.000 A 
ATOM     14  C   UNL     1      47.455   1.403   7.093  0.00  0.00    +0.000 A 
ATOM     15  N   UNL     1      47.727   2.595   6.520  0.00  0.00    +0.000 NA
ATOM     16  C   UNL     1      46.950   3.633   6.893  0.00  0.00    +0.000 A 
ATOM     17  C   UNL     1      45.915   3.532   7.809  0.00  0.00    +0.000 A 
ENDBRANCH  11  12
ENDBRANCH   9  11
ENDBRANCH   8   9
ENDBRANCH   5   8
ENDBRANCH   1   2
BRANCH   1  20
ATOM     18  C   UNL     1      49.000   6.874  15.518  0.00  0.00    +0.000 C 
ATOM     19  O   UNL     1      50.113   6.697  15.028  0.00  0.00    +0.000 OA
ATOM     20  N   UNL     1      47.869   6.909  14.743  0.00  0.00    +0.000 N 
ATOM     21  H   UNL     1      46.994   7.195  15.166  0.00  0.00    +0.000 HD
BRANCH  18  29
ATOM     22  C   UNL     1      48.857   4.571  17.987  0.00  0.00    +0.000 A 
ATOM     23  N   UNL     1      48.759   3.828  19.116  0.00  0.00    +0.000 NA
ATOM     24  C   UNL     1      48.555   4.435  20.294  0.00  0.00    +0.000 A 
ATOM     25  C   UNL     1      48.439   5.799  20.445  0.00  0.00    +0.000 A 
ATOM     26  C   UNL     1      48.545   6.565  19.276  0.00  0.00    +0.000 A 
ATOM     27  S   UNL     1      48.417   8.273  19.188  0.00  0.00    +0.000 S 
ATOM     28  C   UNL     1      48.611   8.267  17.504  0.00  0.00    +0.000 A 
ATOM     29  C   UNL     1      48.817   7.005  16.971  0.00  0.00    +0.000 A 
ATOM     30  C   UNL     1      48.765   5.982  18.018  0.00  0.00    +0.000 A 
BRANCH  22  32
ATOM     31  C   UNL     1      47.936   3.272  16.277  0.00  0.00    +0.000 C 
ATOM     32  O   UNL     1      49.094   3.916  16.797  0.00  0.00    +0.000 OA
ENDBRANCH  22  32
ENDBRANCH  18  29
ENDBRANCH   1  20
TORSDOF 8
ENDMDL
MODEL 2
REMARK VINA RESULT:    -7.631      1.610      2.534
REMARK INTER + INTRA:         -12.570
REMARK INTER:                 -11.477
REMARK INTRA:                  -1.093
REMARK UNBOUND:                -1.370
REMARK  Name = 
REMARK  9 active torsions:
REMARK  status: ('A' for Active; 'I' for Inactive)
REMARK    1  A    between atoms: C_1  and  O_2
REMARK    2  A    between atoms: O_2  and  C_3
REMARK    3  A    between atoms: C_10  and  C_11
REMARK    4  A    between atoms: N_13  and  C_14
REMARK    5  A    between atoms: C_14  and  C_15
REMARK    6  A    between atoms: C_18  and  C_19
REMARK    7  A    between atoms: C_19  and  N_20
REMARK    8  A    between atoms: N_20  and  C_21
REMARK    9  A    between atoms: C_21  and  C_22
REMARK                            x       y       z     vdW  Elec       q    Type
REMARK                         _______ _______ _______ _____ _____    ______ ____
ROOT
ATOM      1  C   UNL     1      48.076   6.588  13.732  0.00  0.00    +0.000 C 
ENDROOT
BRANCH   1   2
ATOM      2  C   UNL     1      46.991   5.983  12.879  0.00  0.00    +0.000 A 
ATOM      3  C   UNL     1      46.530   6.655  11.740  0.00  0.00    +0.000 A 
ATOM      4  C   UNL     1      45.477   6.136  10.982  0.00  0.00    +0.000 A 
ATOM      5  C   UNL     1      44.865   4.928  11.338  0.00  0.00    +0.000 A 
ATOM      6  C   UNL     1      45.334   4.248  12.469  0.00  0.00    +0.000 A 
ATOM      7  C   UNL     1      46.383   4.774  13.236  0.00  0.00    +0.000 A 
BRANCH   5   8
ATOM      8  C   UNL     1      43.700   4.394  10.532  0.00  0.00    +0.000 C 
BRANCH   8   9
ATOM      9  N   UNL     1      44.124   4.014   9.187  0.00  0.00    +0.000 NA
ATOM     10  H   UNL     1      44.946   4.561   8.935  0.00  0.00    +0.000 HD
BRANCH   9  11
ATOM     11  C   UNL     1      44.446   2.592   9.100  0.00  0.00    +0.000 C 
BRANCH  11  12
ATOM     12  C   UNL     1      45.694   2.384   8.275  0.00  0.00    +0.000 A 
ATOM     13  C   UNL     1      46.341   3.459   7.659  0.00  0.00    +0.000 A 
ATOM     14  C   UNL     1      47.469   3.204   6.895  0.00  0.00    +0.000 A 
ATOM     15  N   UNL     1      47.993   1.974   6.707  0.00  0.00    +0.000 NA
ATOM     16  C   UNL     1      47.356   0.950   7.313  0.00  0.00    +0.000 A 
ATOM     17  C   UNL     1      46.226   1.103   8.100  0.00  0.00    +0.000 A 
ENDBRANCH  11  12
ENDBRANCH   9  11
ENDBRANCH   8   9
ENDBRANCH   5   8
ENDBRANCH   1   2
BRANCH   1  20
ATOM     18  C   UNL     1      49.008   6.273  15.981  0.00  0.00    +0.000 C 
ATOM     19  O   UNL     1      50.131   6.596  15.602  0.00  0.00    +0.000 OA
ATOM     20  N   UNL     1      47.956   6.164  15.107  0.00  0.00    +0.000 N 
ATOM     21  H   UNL     1      47.023   6.032  15.478  0.00  0.00    +0.000 HD
BRANCH  18  29
ATOM     22  C   UNL     1      47.942   8.140  18.589  0.00  0.00    +0.000 A 
ATOM     23  N   UNL     1      47.542   8.696  19.758  0.00  0.00    +0.000 NA
ATOM     24  C   UNL     1      47.471   7.938  20.862  0.00  0.00    +0.000 A 
ATOM     25  C   UNL     1      47.779   6.596  20.893  0.00  0.00    +0.000 A 
ATOM     26  C   UNL     1      48.189   6.023  19.681  0.00  0.00    +0.000 A 
ATOM     27  S   UNL     1      48.647   4.386  19.456  0.00  0.00    +0.000 S 
ATOM     28  C   UNL     1      48.996   4.641  17.817  0.00  0.00    +0.000 A 
ATOM     29  C   UNL     1      48.744   5.932  17.387  0.00  0.00    +0.000 A 
ATOM     30  C   UNL     1      48.275   6.768  18.495  0.00  0.00    +0.000 A 
BRANCH  22  32
ATOM     31  C   UNL     1      47.909  10.330  17.774  0.00  0.00    +0.000 C 
ATOM     32  O   UNL     1      47.979   8.942  17.468  0.00  0.00    +0.000 OA
ENDBRANCH  22  32
ENDBRANCH  18  29
ENDBRANCH   1  20
TORSDOF 8
ENDMDL
MODEL 3
REMARK VINA RESULT:    -7.154      1.528      2.247
REMARK INTER + INTRA:         -11.870
REMARK INTER:                 -10.825
REMARK INTRA:                  -1.045
REMARK UNBOUND:                -1.370
REMARK  Name = 
REMARK  9 active torsions:
REMARK  status: ('A' for Active; 'I' for Inactive)
REMARK    1  A    between atoms: C_1  and  O_2
REMARK    2  A    between atoms: O_2  and  C_3
REMARK    3  A    between atoms: C_10  and  C_11
REMARK    4  A    between atoms: N_13  and  C_14
REMARK    5  A    between atoms: C_14  and  C_15
REMARK    6  A    between atoms: C_18  and  C_19
REMARK    7  A    between atoms: C_19  and  N_20
REMARK    8  A    between atoms: N_20  and  C_21
REMARK    9  A    between atoms: C_21  and  C_22
REMARK                            x       y       z     vdW  Elec       q    Type
REMARK                         _______ _______ _______ _____ _____    ______ ____
ROOT
ATOM      1  C   UNL     1      47.699   8.662  13.983  0.00  0.00    +0.000 C 
ENDROOT
BRANCH   1   2
ATOM      2  C   UNL     1      46.852   7.741  13.144  0.00  0.00    +0.000 A 
ATOM      3  C   UNL     1      47.035   6.353  13.214  0.00  0.00    +0.000 A 
ATOM      4  C   UNL     1      46.303   5.494  12.389  0.00  0.00    +0.000 A 
ATOM      5  C   UNL     1      45.363   6.000  11.482  0.00  0.00    +0.000 A 
ATOM      6  C   UNL     1      45.169   7.386  11.422  0.00  0.00    +0.000 A 
ATOM      7  C   UNL     1      45.911   8.248  12.240  0.00  0.00    +0.000 A 
BRANCH   5   8
ATOM      8  C   UNL     1      44.604   5.063  10.566  0.00  0.00    +0.000 C 
BRANCH   8   9
ATOM      9  N   UNL     1      45.270   4.942   9.272  0.00  0.00    +0.000 NA
ATOM     10  H   UNL     1      46.263   4.775   9.428  0.00  0.00    +0.000 HD
BRANCH   9  11
ATOM     11  C   UNL     1      44.717   3.850   8.475  0.00  0.00    +0.000 C 
BRANCH  11  12
ATOM     12  C   UNL     1      45.827   2.983   7.930  0.00  0.00    +0.000 A 
ATOM     13  C   UNL     1      46.801   3.506   7.076  0.00  0.00    +0.000 A 
ATOM     14  C   UNL     1      47.782   2.657   6.586  0.00  0.00    +0.000 A 
ATOM     15  N   UNL     1      47.860   1.342   6.886  0.00  0.00    +0.000 NA
ATOM     16  C   UNL     1      46.913   0.856   7.715  0.00  0.00    +0.000 A 
ATOM     17  C   UNL     1      45.896   1.625   8.258  0.00  0.00    +0.000 A 
ENDBRANCH  11  12
ENDBRANCH   9  11
ENDBRANCH   8   9
ENDBRANCH   5   8
ENDBRANCH   1   2
BRANCH   1  20
ATOM     18  C   UNL     1      48.342   8.899  16.340  0.00  0.00    +0.000 C 
ATOM     19  O   UNL     1      48.678  10.068  16.170  0.00  0.00    +0.000 OA
ATOM     20  N   UNL     1      47.926   8.110  15.298  0.00  0.00    +0.000 N 
ATOM     21  H   UNL     1      47.528   7.201  15.500  0.00  0.00    +0.000 HD
BRANCH  18  29
ATOM     22  C   UNL     1      49.914   6.105  17.411  0.00  0.00    +0.000 A 
ATOM     23  N   UNL     1      50.445   5.031  18.045  0.00  0.00    +0.000 NA
ATOM     24  C   UNL     1      50.205   4.846  19.351  0.00  0.00    +0.000 A 
ATOM     25  C   UNL     1      49.439   5.695  20.118  0.00  0.00    +0.000 A 
ATOM     26  C   UNL     1      48.893   6.806  19.462  0.00  0.00    +0.000 A 
ATOM     27  S   UNL     1      47.891   7.998  20.181  0.00  0.00    +0.000 S 
ATOM     28  C   UNL     1      47.711   8.826  18.713  0.00  0.00    +0.000 A 
ATOM     29  C   UNL     1      48.420   8.265  17.664  0.00  0.00    +0.000 A 
ATOM     30  C   UNL     1      49.118   7.052  18.098  0.00  0.00    +0.000 A 
BRANCH  22  32
ATOM     31  C   UNL     1      51.425   6.974  15.855  0.00  0.00    +0.000 C 
ATOM     32  O   UNL     1      50.203   6.278  16.075  0.00  0.00    +0.000 OA
ENDBRANCH  22  32
ENDBRANCH  18  29
ENDBRANCH   1  20
TORSDOF 8
ENDMDL
MODEL 4
REMARK VINA RESULT:    -6.731      2.308      3.409
REMARK INTER + INTRA:         -11.250
REMARK INTER:                 -10.062
REMARK INTRA:                  -1.188
REMARK UNBOUND:                -1.370
REMARK  Name = 
REMARK  9 active torsions:
REMARK  status: ('A' for Active; 'I' for Inactive)
REMARK    1  A    between atoms: C_1  and  O_2
REMARK    2  A    between atoms: O_2  and  C_3
REMARK    3  A    between atoms: C_10  and  C_11
REMARK    4  A    between atoms: N_13  and  C_14
REMARK    5  A    between atoms: C_14  and  C_15
REMARK    6  A    between atoms: C_18  and  C_19
REMARK    7  A    between atoms: C_19  and  N_20
REMARK    8  A    between atoms: N_20  and  C_21
REMARK    9  A    between atoms: C_21  and  C_22
REMARK                            x       y       z     vdW  Elec       q    Type
REMARK                         _______ _______ _______ _____ _____    ______ ____
ROOT
ATOM      1  C   UNL     1      46.768   7.781  13.400  0.00  0.00    +0.000 C 
ENDROOT
BRANCH   1   2
ATOM      2  C   UNL     1      45.967   6.676  12.762  0.00  0.00    +0.000 A 
ATOM      3  C   UNL     1      45.292   6.898  11.554  0.00  0.00    +0.000 A 
ATOM      4  C   UNL     1      44.490   5.901  10.991  0.00  0.00    +0.000 A 
ATOM      5  C   UNL     1      44.352   4.654  11.614  0.00  0.00    +0.000 A 
ATOM      6  C   UNL     1      45.038   4.426  12.814  0.00  0.00    +0.000 A 
ATOM      7  C   UNL     1      45.833   5.429  13.385  0.00  0.00    +0.000 A 
BRANCH   5   8
ATOM      8  C   UNL     1      43.451   3.596  11.015  0.00  0.00    +0.000 C 
BRANCH   8   9
ATOM      9  N   UNL     1      43.802   3.338   9.620  0.00  0.00    +0.000 NA
ATOM     10  H   UNL     1      44.331   4.132   9.262  0.00  0.00    +0.000 HD
BRANCH   9  11
ATOM     11  C   UNL     1      44.600   2.123   9.476  0.00  0.00    +0.000 C 
BRANCH  11  12
ATOM     12  C   UNL     1      45.658   2.311   8.415  0.00  0.00    +0.000 A 
ATOM     13  C   UNL     1      46.477   1.252   8.014  0.00  0.00    +0.000 A 
ATOM     14  C   UNL     1      47.447   1.490   7.052  0.00  0.00    +0.000 A 
ATOM     15  N   UNL     1      47.653   2.690   6.468  0.00  0.00    +0.000 NA
ATOM     16  C   UNL     1      46.850   3.699   6.866  0.00  0.00    +0.000 A 
ATOM     17  C   UNL     1      45.850   3.560   7.816  0.00  0.00    +0.000 A 
ENDBRANCH  11  12
ENDBRANCH   9  11
ENDBRANCH   8   9
ENDBRANCH   5   8
ENDBRANCH   1   2
BRANCH   1  20
ATOM     18  C   UNL     1      48.515   7.912  15.119  0.00  0.00    +0.000 C 
ATOM     19  O   UNL     1      48.140   9.029  15.468  0.00  0.00    +0.000 OA
ATOM     20  N   UNL     1      47.945   7.262  14.054  0.00  0.00    +0.000 N 
ATOM     21  H   UNL     1      48.186   6.292  13.887  0.00  0.00    +0.000 HD
BRANCH  18  29
ATOM     22  C   UNL     1      51.857   8.060  14.639  0.00  0.00    +0.000 A 
ATOM     23  N   UNL     1      53.208   7.958  14.612  0.00  0.00    +0.000 NA
ATOM     24  C   UNL     1      53.828   7.133  15.469  0.00  0.00    +0.000 A 
ATOM     25  C   UNL     1      53.173   6.364  16.404  0.00  0.00    +0.000 A 
ATOM     26  C   UNL     1      51.776   6.474  16.432  0.00  0.00    +0.000 A 
ATOM     27  S   UNL     1      50.727   5.613  17.481  0.00  0.00    +0.000 S 
ATOM     28  C   UNL     1      49.350   6.316  16.789  0.00  0.00    +0.000 A 
ATOM     29  C   UNL     1      49.632   7.235  15.793  0.00  0.00    +0.000 A 
ATOM     30  C   UNL     1      51.076   7.326  15.563  0.00  0.00    +0.000 A 
BRANCH  22  32
ATOM     31  C   UNL     1      51.054   8.380  12.468  0.00  0.00    +0.000 C 
ATOM     32  O   UNL     1      51.255   8.937  13.762  0.00  0.00    +0.000 OA
ENDBRANCH  22  32
ENDBRANCH  18  29
ENDBRANCH   1  20
TORSDOF 8
ENDMDL
MODEL 5
REMARK VINA RESULT:    -6.593      2.507      3.506
REMARK INTER + INTRA:         -11.046
REMARK INTER:                  -9.627
REMARK INTRA:                  -1.420
REMARK UNBOUND:                -1.370
REMARK  Name = 
REMARK  9 active torsions:
REMARK  status: ('A' for Active; 'I' for Inactive)
REMARK    1  A    between atoms: C_1  and  O_2
REMARK    2  A    between atoms: O_2  and  C_3
REMARK    3  A    between atoms: C_10  and  C_11
REMARK    4  A    between atoms: N_13  and  C_14
REMARK    5  A    between atoms: C_14  and  C_15
REMARK    6  A    between atoms: C_18  and  C_19
REMARK    7  A    between atoms: C_19  and  N_20
REMARK    8  A    between atoms: N_20  and  C_21
REMARK    9  A    between atoms: C_21  and  C_22
REMARK                            x       y       z     vdW  Elec       q    Type
REMARK                         _______ _______ _______ _____ _____    ______ ____
ROOT
ATOM      1  C   UNL     1      47.111   8.265  12.819  0.00  0.00    +0.000 C 
ENDROOT
BRANCH   1   2
ATOM      2  C   UNL     1      46.400   6.978  12.487  0.00  0.00    +0.000 A 
ATOM      3  C   UNL     1      46.602   5.836  13.274  0.00  0.00    +0.000 A 
ATOM      4  C   UNL     1      46.002   4.621  12.934  0.00  0.00    +0.000 A 
ATOM      5  C   UNL     1      45.177   4.519  11.806  0.00  0.00    +0.000 A 
ATOM      6  C   UNL     1      44.963   5.663  11.028  0.00  0.00    +0.000 A 
ATOM      7  C   UNL     1      45.574   6.879  11.361  0.00  0.00    +0.000 A 
BRANCH   5   8
ATOM      8  C   UNL     1      44.563   3.188  11.426  0.00  0.00    +0.000 C 
BRANCH   8   9
ATOM      9  N   UNL     1      44.099   3.202  10.041  0.00  0.00    +0.000 NA
ATOM     10  H   UNL     1      44.530   3.989   9.558  0.00  0.00    +0.000 HD
BRANCH   9  11
ATOM     11  C   UNL     1      44.436   1.964   9.342  0.00  0.00    +0.000 C 
BRANCH  11  12
ATOM     12  C   UNL     1      45.592   2.191   8.398  0.00  0.00    +0.000 A 
ATOM     13  C   UNL     1      45.850   3.454   7.859  0.00  0.00    +0.000 A 
ATOM     14  C   UNL     1      46.911   3.597   6.978  0.00  0.00    +0.000 A 
ATOM     15  N   UNL     1      47.724   2.586   6.605  0.00  0.00    +0.000 NA
ATOM     16  C   UNL     1      47.462   1.374   7.139  0.00  0.00    +0.000 A 
ATOM     17  C   UNL     1      46.429   1.132   8.030  0.00  0.00    +0.000 A 
ENDBRANCH  11  12
ENDBRANCH   9  11
ENDBRANCH   8   9
ENDBRANCH   5   8
ENDBRANCH   1   2
BRANCH   1  20
ATOM     18  C   UNL     1      49.324   9.039  13.544  0.00  0.00    +0.000 C 
ATOM     19  O   UNL     1      48.941  10.205  13.595  0.00  0.00    +0.000 OA
ATOM     20  N   UNL     1      48.510   8.032  13.093  0.00  0.00    +0.000 N 
ATOM     21  H   UNL     1      48.814   7.072  13.197  0.00  0.00    +0.000 HD
BRANCH  18  29
ATOM     22  C   UNL     1      50.534   6.917  15.880  0.00  0.00    +0.000 A 
ATOM     23  N   UNL     1      51.226   6.139  16.747  0.00  0.00    +0.000 NA
ATOM     24  C   UNL     1      52.567   6.151  16.722  0.00  0.00    +0.000 A 
ATOM     25  C   UNL     1      53.312   6.915  15.852  0.00  0.00    +0.000 A 
ATOM     26  C   UNL     1      52.593   7.716  14.955  0.00  0.00    +0.000 A 
ATOM     27  S   UNL     1      53.278   8.770  13.788  0.00  0.00    +0.000 S 
ATOM     28  C   UNL     1      51.753   9.291  13.267  0.00  0.00    +0.000 A 
ATOM     29  C   UNL     1      50.698   8.669  13.914  0.00  0.00    +0.000 A 
ATOM     30  C   UNL     1      51.190   7.737  14.932  0.00  0.00    +0.000 A 
BRANCH  22  32
ATOM     31  C   UNL     1      48.598   7.562  17.020  0.00  0.00    +0.000 C 
ATOM     32  O   UNL     1      49.157   6.860  15.915  0.00  0.00    +0.000 OA
ENDBRANCH  22  32
ENDBRANCH  18  29
ENDBRANCH   1  20
TORSDOF 8
ENDMDL
MODEL 6
REMARK VINA RESULT:    -6.509      1.616      2.122
REMARK INTER + INTRA:         -10.924
REMARK INTER:                  -9.462
REMARK INTRA:                  -1.462
REMARK UNBOUND:                -1.370
REMARK  Name = 
REMARK  9 active torsions:
REMARK  status: ('A' for Active; 'I' for Inactive)
REMARK    1  A    between atoms: C_1  and  O_2
REMARK    2  A    between atoms: O_2  and  C_3
REMARK    3  A    between atoms: C_10  and  C_11
REMARK    4  A    between atoms: N_13  and  C_14
REMARK    5  A    between atoms: C_14  and  C_15
REMARK    6  A    between atoms: C_18  and  C_19
REMARK    7  A    between atoms: C_19  and  N_20
REMARK    8  A    between atoms: N_20  and  C_21
REMARK    9  A    between atoms: C_21  and  C_22
REMARK                            x       y       z     vdW  Elec       q    Type
REMARK                         _______ _______ _______ _____ _____    ______ ____
ROOT
ATOM      1  C   UNL     1      49.022   8.150  13.563  0.00  0.00    +0.000 C 
ENDROOT
BRANCH   1   2
ATOM      2  C   UNL     1      47.843   7.625  12.785  0.00  0.00    +0.000 A 
ATOM      3  C   UNL     1      46.566   7.608  13.362  0.00  0.00    +0.000 A 
ATOM      4  C   UNL     1      45.480   7.059  12.676  0.00  0.00    +0.000 A 
ATOM      5  C   UNL     1      45.640   6.521  11.392  0.00  0.00    +0.000 A 
ATOM      6  C   UNL     1      46.914   6.550  10.809  0.00  0.00    +0.000 A 
ATOM      7  C   UNL     1      48.005   7.091  11.501  0.00  0.00    +0.000 A 
BRANCH   5   8
ATOM      8  C   UNL     1      44.464   5.894  10.674  0.00  0.00    +0.000 C 
BRANCH   8   9
ATOM      9  N   UNL     1      44.451   4.445  10.859  0.00  0.00    +0.000 NA
ATOM     10  H   UNL     1      43.890   4.224  11.680  0.00  0.00    +0.000 HD
BRANCH   9  11
ATOM     11  C   UNL     1      43.897   3.753   9.697  0.00  0.00    +0.000 C 
BRANCH  11  12
ATOM     12  C   UNL     1      45.008   3.220   8.824  0.00  0.00    +0.000 A 
ATOM     13  C   UNL     1      45.376   1.873   8.863  0.00  0.00    +0.000 A 
ATOM     14  C   UNL     1      46.420   1.446   8.056  0.00  0.00    +0.000 A 
ATOM     15  N   UNL     1      47.109   2.254   7.222  0.00  0.00    +0.000 NA
ATOM     16  C   UNL     1      46.737   3.551   7.196  0.00  0.00    +0.000 A 
ATOM     17  C   UNL     1      45.705   4.072   7.961  0.00  0.00    +0.000 A 
ENDBRANCH  11  12
ENDBRANCH   9  11
ENDBRANCH   8   9
ENDBRANCH   5   8
ENDBRANCH   1   2
BRANCH   1  20
ATOM     18  C   UNL     1      48.848   7.656  15.960  0.00  0.00    +0.000 C 
ATOM     19  O   UNL     1      48.314   8.739  16.184  0.00  0.00    +0.000 OA
ATOM     20  N   UNL     1      49.302   7.321  14.710  0.00  0.00    +0.000 N 
ATOM     21  H   UNL     1      49.608   6.370  14.539  0.00  0.00    +0.000 HD
BRANCH  18  29
ATOM     22  C   UNL     1      47.896   4.433  16.321  0.00  0.00    +0.000 A 
ATOM     23  N   UNL     1      47.616   3.155  16.672  0.00  0.00    +0.000 NA
ATOM     24  C   UNL     1      48.052   2.680  17.848  0.00  0.00    +0.000 A 
ATOM     25  C   UNL     1      48.788   3.417  18.748  0.00  0.00    +0.000 A 
ATOM     26  C   UNL     1      49.080   4.737  18.380  0.00  0.00    +0.000 A 
ATOM     27  S   UNL     1      49.959   5.866  19.326  0.00  0.00    +0.000 S 
ATOM     28  C   UNL     1      49.763   7.088  18.169  0.00  0.00    +0.000 A 
ATOM     29  C   UNL     1      49.078   6.681  17.036  0.00  0.00    +0.000 A 
ATOM     30  C   UNL     1      48.655   5.283  17.159  0.00  0.00    +0.000 A 
BRANCH  22  32
ATOM     31  C   UNL     1      47.050   3.824  14.229  0.00  0.00    +0.000 C 
ATOM     32  O   UNL     1      47.455   4.880  15.093  0.00  0.00    +0.000 OA
ENDBRANCH  22  32
ENDBRANCH  18  29
ENDBRANCH   1  20
TORSDOF 8
ENDMDL
MODEL 7
REMARK VINA RESULT:    -6.501      3.353      4.678
REMARK INTER + INTRA:         -10.912
REMARK INTER:                  -9.602
REMARK INTRA:                  -1.310
REMARK UNBOUND:                -1.370
REMARK  Name = 
REMARK  9 active torsions:
REMARK  status: ('A' for Active; 'I' for Inactive)
REMARK    1  A    between atoms: C_1  and  O_2
REMARK    2  A    between atoms: O_2  and  C_3
REMARK    3  A    between atoms: C_10  and  C_11
REMARK    4  A    between atoms: N_13  and  C_14
REMARK    5  A    between atoms: C_14  and  C_15
REMARK    6  A    between atoms: C_18  and  C_19
REMARK    7  A    between atoms: C_19  and  N_20
REMARK    8  A    between atoms: N_20  and  C_21
REMARK    9  A    between atoms: C_21  and  C_22
REMARK                            x       y       z     vdW  Elec       q    Type
REMARK                         _______ _______ _______ _____ _____    ______ ____
ROOT
ATOM      1  C   UNL     1      45.776   8.210  12.887  0.00  0.00    +0.000 C 
ENDROOT
BRANCH   1   2
ATOM      2  C   UNL     1      45.311   6.862  12.400  0.00  0.00    +0.000 A 
ATOM      3  C   UNL     1      44.337   6.770  11.397  0.00  0.00    +0.000 A 
ATOM      4  C   UNL     1      43.849   5.526  10.988  0.00  0.00    +0.000 A 
ATOM      5  C   UNL     1      44.329   4.343  11.564  0.00  0.00    +0.000 A 
ATOM      6  C   UNL     1      45.313   4.433  12.557  0.00  0.00    +0.000 A 
ATOM      7  C   UNL     1      45.794   5.681  12.975  0.00  0.00    +0.000 A 
BRANCH   5   8
ATOM      8  C   UNL     1      43.765   3.003  11.140  0.00  0.00    +0.000 C 
BRANCH   8   9
ATOM      9  N   UNL     1      43.788   2.861   9.686  0.00  0.00    +0.000 NA
ATOM     10  H   UNL     1      44.226   3.688   9.282  0.00  0.00    +0.000 HD
BRANCH   9  11
ATOM     11  C   UNL     1      44.526   1.672   9.267  0.00  0.00    +0.000 C 
BRANCH  11  12
ATOM     12  C   UNL     1      45.666   2.055   8.354  0.00  0.00    +0.000 A 
ATOM     13  C   UNL     1      46.578   1.100   7.896  0.00  0.00    +0.000 A 
ATOM     14  C   UNL     1      47.619   1.515   7.079  0.00  0.00    +0.000 A 
ATOM     15  N   UNL     1      47.811   2.793   6.690  0.00  0.00    +0.000 NA
ATOM     16  C   UNL     1      46.918   3.700   7.140  0.00  0.00    +0.000 A 
ATOM     17  C   UNL     1      45.843   3.384   7.956  0.00  0.00    +0.000 A 
ENDBRANCH  11  12
ENDBRANCH   9  11
ENDBRANCH   8   9
ENDBRANCH   5   8
ENDBRANCH   1   2
BRANCH   1  20
ATOM     18  C   UNL     1      47.614   9.714  12.268  0.00  0.00    +0.000 C 
ATOM     19  O   UNL     1      46.852  10.675  12.190  0.00  0.00    +0.000 OA
ATOM     20  N   UNL     1      47.153   8.448  12.527  0.00  0.00    +0.000 N 
ATOM     21  H   UNL     1      47.823   7.713  12.720  0.00  0.00    +0.000 HD
BRANCH  18  29
ATOM     22  C   UNL     1      50.299   8.510  13.931  0.00  0.00    +0.000 A 
ATOM     23  N   UNL     1      51.499   8.149  14.445  0.00  0.00    +0.000 NA
ATOM     24  C   UNL     1      52.627   8.577  13.859  0.00  0.00    +0.000 A 
ATOM     25  C   UNL     1      52.655   9.376  12.739  0.00  0.00    +0.000 A 
ATOM     26  C   UNL     1      51.412   9.745  12.207  0.00  0.00    +0.000 A 
ATOM     27  S   UNL     1      51.170  10.747  10.835  0.00  0.00    +0.000 S 
ATOM     28  C   UNL     1      49.485  10.665  10.991  0.00  0.00    +0.000 A 
ATOM     29  C   UNL     1      49.058   9.863  12.035  0.00  0.00    +0.000 A 
ATOM     30  C   UNL     1      50.200   9.321  12.775  0.00  0.00    +0.000 A 
BRANCH  22  32
ATOM     31  C   UNL     1      48.802   8.765  15.708  0.00  0.00    +0.000 C 
ATOM     32  O   UNL     1      49.160   8.031  14.542  0.00  0.00    +0.000 OA
ENDBRANCH  22  32
ENDBRANCH  18  29
ENDBRANCH   1  20
TORSDOF 8
ENDMDL
MODEL 8
REMARK VINA RESULT:    -6.485      3.459      8.194
REMARK INTER + INTRA:         -10.888
REMARK INTER:                  -9.184
REMARK INTRA:                  -1.704
REMARK UNBOUND:                -1.370
REMARK  Name = 
REMARK  9 active torsions:
REMARK  status: ('A' for Active; 'I' for Inactive)
REMARK    1  A    between atoms: C_1  and  O_2
REMARK    2  A    between atoms: O_2  and  C_3
REMARK    3  A    between atoms: C_10  and  C_11
REMARK    4  A    between atoms: N_13  and  C_14
REMARK    5  A    between atoms: C_14  and  C_15
REMARK    6  A    between atoms: C_18  and  C_19
REMARK    7  A    between atoms: C_19  and  N_20
REMARK    8  A    between atoms: N_20  and  C_21
REMARK    9  A    between atoms: C_21  and  C_22
REMARK                            x       y       z     vdW  Elec       q    Type
REMARK                         _______ _______ _______ _____ _____    ______ ____
ROOT
ATOM      1  C   UNL     1      48.494   8.096  12.192  0.00  0.00    +0.000 C 
ENDROOT
BRANCH   1   2
ATOM      2  C   UNL     1      48.723   7.930  13.672  0.00  0.00    +0.000 A 
ATOM      3  C   UNL     1      48.008   8.711  14.590  0.00  0.00    +0.000 A 
ATOM      4  C   UNL     1      48.263   8.614  15.961  0.00  0.00    +0.000 A 
ATOM      5  C   UNL     1      49.232   7.727  16.449  0.00  0.00    +0.000 A 
ATOM      6  C   UNL     1      49.937   6.936  15.533  0.00  0.00    +0.000 A 
ATOM      7  C   UNL     1      49.689   7.041  14.158  0.00  0.00    +0.000 A 
BRANCH   5   8
ATOM      8  C   UNL     1      49.527   7.658  17.933  0.00  0.00    +0.000 C 
BRANCH   8   9
ATOM      9  N   UNL     1      50.206   6.411  18.274  0.00  0.00    +0.000 NA
ATOM     10  H   UNL     1      50.902   6.602  18.993  0.00  0.00    +0.000 HD
BRANCH   9  11
ATOM     11  C   UNL     1      49.273   5.399  18.763  0.00  0.00    +0.000 C 
BRANCH  11  12
ATOM     12  C   UNL     1      49.322   4.171  17.886  0.00  0.00    +0.000 A 
ATOM     13  C   UNL     1      48.217   3.780  17.126  0.00  0.00    +0.000 A 
ATOM     14  C   UNL     1      48.312   2.629  16.358  0.00  0.00    +0.000 A 
ATOM     15  N   UNL     1      49.416   1.854  16.293  0.00  0.00    +0.000 NA
ATOM     16  C   UNL     1      50.474   2.250  17.032  0.00  0.00    +0.000 A 
ATOM     17  C   UNL     1      50.478   3.385  17.826  0.00  0.00    +0.000 A 
ENDBRANCH  11  12
ENDBRANCH   9  11
ENDBRANCH   8   9
ENDBRANCH   5   8
ENDBRANCH   1   2
BRANCH   1  20
ATOM     18  C   UNL     1      46.423   7.011  11.446  0.00  0.00    +0.000 C 
ATOM     19  O   UNL     1      45.740   7.947  11.854  0.00  0.00    +0.000 OA
ATOM     20  N   UNL     1      47.779   6.967  11.645  0.00  0.00    +0.000 N 
ATOM     21  H   UNL     1      48.320   6.252  11.175  0.00  0.00    +0.000 HD
BRANCH  18  29
ATOM     22  C   UNL     1      44.620   4.402  12.617  0.00  0.00    +0.000 A 
ATOM     23  N   UNL     1      43.899   3.282  12.867  0.00  0.00    +0.000 NA
ATOM     24  C   UNL     1      43.573   2.464  11.856  0.00  0.00    +0.000 A 
ATOM     25  C   UNL     1      43.924   2.688  10.543  0.00  0.00    +0.000 A 
ATOM     26  C   UNL     1      44.666   3.849  10.287  0.00  0.00    +0.000 A 
ATOM     27  S   UNL     1      45.242   4.346   8.750  0.00  0.00    +0.000 S 
ATOM     28  C   UNL     1      46.001   5.713   9.403  0.00  0.00    +0.000 A 
ATOM     29  C   UNL     1      45.812   5.858  10.767  0.00  0.00    +0.000 A 
ATOM     30  C   UNL     1      45.029   4.743  11.306  0.00  0.00    +0.000 A 
BRANCH  22  32
ATOM     31  C   UNL     1      46.178   4.956  14.267  0.00  0.00    +0.000 C 
ATOM     32  O   UNL     1      44.915   5.234  13.675  0.00  0.00    +0.000 OA
ENDBRANCH  22  32
ENDBRANCH  18  29
ENDBRANCH   1  20
TORSDOF 8
ENDMDL
MODEL 9
REMARK VINA RESULT:    -5.867      3.589      8.457
REMARK INTER + INTRA:          -9.981
REMARK INTER:                  -7.982
REMARK INTRA:                  -1.998
REMARK UNBOUND:                -1.370
REMARK  Name = 
REMARK  9 active torsions:
REMARK  status: ('A' for Active; 'I' for Inactive)
REMARK    1  A    between atoms: C_1  and  O_2
REMARK    2  A    between atoms: O_2  and  C_3
REMARK    3  A    between atoms: C_10  and  C_11
REMARK    4  A    between atoms: N_13  and  C_14
REMARK    5  A    between atoms: C_14  and  C_15
REMARK    6  A    between atoms: C_18  and  C_19
REMARK    7  A    between atoms: C_19  and  N_20
REMARK    8  A    between atoms: N_20  and  C_21
REMARK    9  A    between atoms: C_21  and  C_22
REMARK                            x       y       z     vdW  Elec       q    Type
REMARK                         _______ _______ _______ _____ _____    ______ ____
ROOT
ATOM      1  C   UNL     1      48.721   8.639  14.341  0.00  0.00    +0.000 C 
ENDROOT
BRANCH   1   2
ATOM      2  C   UNL     1      49.218   8.276  15.716  0.00  0.00    +0.000 A 
ATOM      3  C   UNL     1      50.372   7.496  15.868  0.00  0.00    +0.000 A 
ATOM      4  C   UNL     1      50.802   7.096  17.136  0.00  0.00    +0.000 A 
ATOM      5  C   UNL     1      50.094   7.474  18.285  0.00  0.00    +0.000 A 
ATOM      6  C   UNL     1      48.949   8.266  18.135  0.00  0.00    +0.000 A 
ATOM      7  C   UNL     1      48.511   8.657  16.863  0.00  0.00    +0.000 A 
BRANCH   5   8
ATOM      8  C   UNL     1      50.547   7.003  19.651  0.00  0.00    +0.000 C 
BRANCH   8   9
ATOM      9  N   UNL     1      49.624   6.010  20.195  0.00  0.00    +0.000 NA
ATOM     10  H   UNL     1      48.686   6.208  19.848  0.00  0.00    +0.000 HD
BRANCH   9  11
ATOM     11  C   UNL     1      50.001   4.651  19.816  0.00  0.00    +0.000 C 
BRANCH  11  12
ATOM     12  C   UNL     1      49.101   4.143  18.715  0.00  0.00    +0.000 A 
ATOM     13  C   UNL     1      49.495   3.088  17.887  0.00  0.00    +0.000 A 
ATOM     14  C   UNL     1      48.637   2.681  16.877  0.00  0.00    +0.000 A 
ATOM     15  N   UNL     1      47.431   3.239  16.639  0.00  0.00    +0.000 NA
ATOM     16  C   UNL     1      47.067   4.253  17.452  0.00  0.00    +0.000 A 
ATOM     17  C   UNL     1      47.851   4.729  18.490  0.00  0.00    +0.000 A 
ENDBRANCH  11  12
ENDBRANCH   9  11
ENDBRANCH   8   9
ENDBRANCH   5   8
ENDBRANCH   1   2
BRANCH   1  20
ATOM     18  C   UNL     1      47.938   6.616  13.192  0.00  0.00    +0.000 C 
ATOM     19  O   UNL     1      49.062   6.385  12.752  0.00  0.00    +0.000 OA
ATOM     20  N   UNL     1      47.666   7.749  13.916  0.00  0.00    +0.000 N 
ATOM     21  H   UNL     1      46.768   7.832  14.376  0.00  0.00    +0.000 HD
BRANCH  18  29
ATOM     22  C   UNL     1      44.916   7.151  11.776  0.00  0.00    +0.000 A 
ATOM     23  N   UNL     1      43.665   7.143  11.256  0.00  0.00    +0.000 NA
ATOM     24  C   UNL     1      42.960   6.003  11.243  0.00  0.00    +0.000 A 
ATOM     25  C   UNL     1      43.430   4.804  11.730  0.00  0.00    +0.000 A 
ATOM     26  C   UNL     1      44.726   4.814  12.263  0.00  0.00    +0.000 A 
ATOM     27  S   UNL     1      45.534   3.465  12.949  0.00  0.00    +0.000 S 
ATOM     28  C   UNL     1      46.901   4.393  13.327  0.00  0.00    +0.000 A 
ATOM     29  C   UNL     1      46.810   5.713  12.919  0.00  0.00    +0.000 A 
ATOM     30  C   UNL     1      45.511   5.977  12.296  0.00  0.00    +0.000 A 
BRANCH  22  32
ATOM     31  C   UNL     1      44.913   9.420  12.334  0.00  0.00    +0.000 C 
ATOM     32  O   UNL     1      45.623   8.335  11.748  0.00  0.00    +0.000 OA
ENDBRANCH  22  32
ENDBRANCH  18  29
ENDBRANCH   1  20
TORSDOF 8
ENDMDL
