MODEL 1
REMARK VINA RESULT:    -6.843      0.000      0.000
REMARK INTER + INTRA:          -9.048
REMARK INTER:                  -8.644
REMARK INTRA:                  -0.404
REMARK UNBOUND:                -0.404
REMARK  Name = 
REMARK  5 active torsions:
REMARK  status: ('A' for Active; 'I' for Inactive)
REMARK    1  A    between atoms: N_1  and  C_2
REMARK    2  A    between atoms: C_2  and  C_3
REMARK    3  A    between atoms: C_6  and  O_7
REMARK    4  A    between atoms: O_7  and  C_8
REMARK    5  A    between atoms: C_8  and  C_9
REMARK                            x       y       z     vdW  Elec       q    Type
REMARK                         _______ _______ _______ _____ _____    ______ ____
ROOT
ATOM      1  C   UNL     1      46.500   2.316   7.625  0.00  0.00    +0.000 A 
ATOM      2  C   UNL     1      45.744   1.730   8.620  0.00  0.00    +0.000 A 
ATOM      3  N   UNL     1      44.822   2.389   9.344  0.00  0.00    +0.000 NA
ATOM      4  C   UNL     1      44.650   3.686   9.042  0.00  0.00    +0.000 A 
ATOM      5  N   UNL     1      45.300   4.356   8.080  0.00  0.00    +0.000 NA
ATOM      6  C   UNL     1      46.222   3.647   7.397  0.00  0.00    +0.000 A 
ENDROOT
BRANCH   1   7
ATOM      7  C   UNL     1      47.565   1.569   6.897  0.00  0.00    +0.000 C 
BRANCH   7   8
ATOM      8  N   UNL     1      48.595   2.460   6.379  0.00  0.00    +0.000 NA
ATOM      9  H   UNL     1      49.037   2.032   5.568  0.00  0.00    +0.000 HD
ATOM     10  H   UNL     1      49.331   2.573   7.076  0.00  0.00    +0.000 HD
ENDBRANCH   7   8
ENDBRANCH   1   7
BRANCH   4  11
ATOM     11  O   UNL     1      43.746   4.430   9.768  0.00  0.00    +0.000 OA
BRANCH  11  12
ATOM     12  C   UNL     1      43.451   3.804  11.021  0.00  0.00    +0.000 C 
BRANCH  12  13
ATOM     13  C   UNL     1      44.197   4.543  12.146  0.00  0.00    +0.000 C 
ATOM     14  C   UNL     1      44.454   6.002  11.741  0.00  0.00    +0.000 C 
ATOM     15  C   UNL     1      45.249   6.741  12.813  0.00  0.00    +0.000 C 
ATOM     16  C   UNL     1      46.515   5.968  13.173  0.00  0.00    +0.000 C 
ATOM     17  C   UNL     1      46.199   4.514  13.518  0.00  0.00    +0.000 C 
ATOM     18  N   UNL     1      45.473   3.865  12.430  0.00  0.00    +0.000 NA
ATOM     19  H   UNL     1      45.276   2.891  12.673  0.00  0.00    +0.000 HD
ENDBRANCH  12  13
ENDBRANCH  11  12
ENDBRANCH   4  11
TORSDOF 5
ENDMDL
MODEL 2
REMARK VINA RESULT:    -6.739      1.266      2.097
REMARK INTER + INTRA:          -8.916
REMARK INTER:                  -8.588
REMARK INTRA:                  -0.328
REMARK UNBOUND:                -0.404
REMARK  Name = 
REMARK  5 active torsions:
REMARK  status: ('A' for Active; 'I' for Inactive)
REMARK    1  A    between atoms: N_1  and  C_2
REMARK    2  A    between atoms: C_2  and  C_3
REMARK    3  A    between atoms: C_6  and  O_7
REMARK    4  A    between atoms: O_7  and  C_8
REMARK    5  A    between atoms: C_8  and  C_9
REMARK                            x       y       z     vdW  Elec       q    Type
REMARK                         _______ _______ _______ _____ _____    ______ ____
ROOT
ATOM      1  C   UNL     1      46.586   2.189   7.658  0.00  0.00    +0.000 A 
ATOM      2  C   UNL     1      46.520   3.536   7.366  0.00  0.00    +0.000 A 
ATOM      3  N   UNL     1      45.605   4.370   7.890  0.00  0.00    +0.000 NA
ATOM      4  C   UNL     1      44.732   3.824   8.751  0.00  0.00    +0.000 A 
ATOM      5  N   UNL     1      44.714   2.540   9.135  0.00  0.00    +0.000 NA
ATOM      6  C   UNL     1      45.646   1.749   8.566  0.00  0.00    +0.000 A 
ENDROOT
BRANCH   1   7
ATOM      7  C   UNL     1      47.568   1.282   6.997  0.00  0.00    +0.000 C 
BRANCH   7   8
ATOM      8  N   UNL     1      48.310   1.962   5.943  0.00  0.00    +0.000 NA
ATOM      9  H   UNL     1      49.209   2.272   6.308  0.00  0.00    +0.000 HD
ATOM     10  H   UNL     1      47.811   2.805   5.663  0.00  0.00    +0.000 HD
ENDBRANCH   7   8
ENDBRANCH   1   7
BRANCH   4  11
ATOM     11  O   UNL     1      43.746   4.615   9.300  0.00  0.00    +0.000 OA
BRANCH  11  12
ATOM     12  C   UNL     1      43.886   4.700  10.722  0.00  0.00    +0.000 C 
BRANCH  12  13
ATOM     13  C   UNL     1      44.784   5.901  11.071  0.00  0.00    +0.000 C 
ATOM     14  C   UNL     1      45.594   5.605  12.342  0.00  0.00    +0.000 C 
ATOM     15  C   UNL     1      46.446   6.805  12.746  0.00  0.00    +0.000 C 
ATOM     16  C   UNL     1      45.591   8.065  12.838  0.00  0.00    +0.000 C 
ATOM     17  C   UNL     1      44.774   8.277  11.565  0.00  0.00    +0.000 C 
ATOM     18  N   UNL     1      43.957   7.104  11.267  0.00  0.00    +0.000 NA
ATOM     19  H   UNL     1      43.411   7.264  10.417  0.00  0.00    +0.000 HD
ENDBRANCH  12  13
ENDBRANCH  11  12
ENDBRANCH   4  11
TORSDOF 5
ENDMDL
MODEL 3
REMARK VINA RESULT:    -6.414      1.648      5.558
REMARK INTER + INTRA:          -8.506
REMARK INTER:                  -8.214
REMARK INTRA:                  -0.292
REMARK UNBOUND:                -0.404
REMARK  Name = 
REMARK  5 active torsions:
REMARK  status: ('A' for Active; 'I' for Inactive)
REMARK    1  A    between atoms: N_1  and  C_2
REMARK    2  A    between atoms: C_2  and  C_3
REMARK    3  A    between atoms: C_6  and  O_7
REMARK    4  A    between atoms: O_7  and  C_8
REMARK    5  A    between atoms: C_8  and  C_9
REMARK                            x       y       z     vdW  Elec       q    Type
REMARK                         _______ _______ _______ _____ _____    ______ ____
ROOT
ATOM      1  C   UNL     1      46.603   5.732  12.641  0.00  0.00    +0.000 A 
ATOM      2  C   UNL     1      46.388   6.285  11.396  0.00  0.00    +0.000 A 
ATOM      3  N   UNL     1      45.573   5.750  10.471  0.00  0.00    +0.000 NA
ATOM      4  C   UNL     1      44.940   4.620  10.824  0.00  0.00    +0.000 A 
ATOM      5  N   UNL     1      45.042   4.007  12.011  0.00  0.00    +0.000 NA
ATOM      6  C   UNL     1      45.885   4.582  12.893  0.00  0.00    +0.000 A 
ENDROOT
BRANCH   1   7
ATOM      7  C   UNL     1      47.574   6.316  13.611  0.00  0.00    +0.000 C 
BRANCH   7   8
ATOM      8  N   UNL     1      48.943   6.239  13.120  0.00  0.00    +0.000 NA
ATOM      9  H   UNL     1      48.935   6.092  12.113  0.00  0.00    +0.000 HD
ATOM     10  H   UNL     1      49.405   5.422  13.521  0.00  0.00    +0.000 HD
ENDBRANCH   7   8
ENDBRANCH   1   7
BRANCH   4  11
ATOM     11  O   UNL     1      44.115   3.999   9.911  0.00  0.00    +0.000 OA
BRANCH  11  12
ATOM     12  C   UNL     1      44.492   2.630   9.723  0.00  0.00    +0.000 C 
BRANCH  12  13
ATOM     13  C   UNL     1      45.712   2.566   8.786  0.00  0.00    +0.000 C 
ATOM     14  C   UNL     1      45.488   3.463   7.561  0.00  0.00    +0.000 C 
ATOM     15  C   UNL     1      46.656   3.367   6.585  0.00  0.00    +0.000 C 
ATOM     16  C   UNL     1      46.949   1.911   6.237  0.00  0.00    +0.000 C 
ATOM     17  C   UNL     1      47.114   1.062   7.496  0.00  0.00    +0.000 C 
ATOM     18  N   UNL     1      45.942   1.175   8.359  0.00  0.00    +0.000 NA
ATOM     19  H   UNL     1      46.064   0.595   9.193  0.00  0.00    +0.000 HD
ENDBRANCH  12  13
ENDBRANCH  11  12
ENDBRANCH   4  11
TORSDOF 5
ENDMDL
MODEL 4
REMARK VINA RESULT:    -6.133      1.496      5.721
REMARK INTER + INTRA:          -8.151
REMARK INTER:                  -7.941
REMARK INTRA:                  -0.210
REMARK UNBOUND:                -0.404
REMARK  Name = 
REMARK  5 active torsions:
REMARK  status: ('A' for Active; 'I' for Inactive)
REMARK    1  A    between atoms: N_1  and  C_2
REMARK    2  A    between atoms: C_2  and  C_3
REMARK    3  A    between atoms: C_6  and  O_7
REMARK    4  A    between atoms: O_7  and  C_8
REMARK    5  A    between atoms: C_8  and  C_9
REMARK                            x       y       z     vdW  Elec       q    Type
REMARK                         _______ _______ _______ _____ _____    ______ ____
ROOT
ATOM      1  C   UNL     1      46.867   5.284  13.573  0.00  0.00    +0.000 A 
ATOM      2  C   UNL     1      46.607   3.931  13.635  0.00  0.00    +0.000 A 
ATOM      3  N   UNL     1      45.759   3.294  12.808  0.00  0.00    +0.000 NA
ATOM      4  C   UNL     1      45.162   4.052  11.875  0.00  0.00    +0.000 A 
ATOM      5  N   UNL     1      45.357   5.366  11.696  0.00  0.00    +0.000 NA
ATOM      6  C   UNL     1      46.207   5.953  12.563  0.00  0.00    +0.000 A 
ENDROOT
BRANCH   1   7
ATOM      7  C   UNL     1      47.755   5.967  14.557  0.00  0.00    +0.000 C 
BRANCH   7   8
ATOM      8  N   UNL     1      47.938   5.172  15.765  0.00  0.00    +0.000 NA
ATOM      9  H   UNL     1      47.030   4.869  16.112  0.00  0.00    +0.000 HD
ATOM     10  H   UNL     1      48.343   5.754  16.498  0.00  0.00    +0.000 HD
ENDBRANCH   7   8
ENDBRANCH   1   7
BRANCH   4  11
ATOM     11  O   UNL     1      44.256   3.470  11.016  0.00  0.00    +0.000 OA
BRANCH  11  12
ATOM     12  C   UNL     1      44.120   4.237   9.814  0.00  0.00    +0.000 C 
BRANCH  12  13
ATOM     13  C   UNL     1      44.755   3.463   8.645  0.00  0.00    +0.000 C 
ATOM     14  C   UNL     1      45.357   2.143   9.148  0.00  0.00    +0.000 C 
ATOM     15  C   UNL     1      46.049   1.386   8.020  0.00  0.00    +0.000 C 
ATOM     16  C   UNL     1      47.051   2.286   7.303  0.00  0.00    +0.000 C 
ATOM     17  C   UNL     1      46.406   3.601   6.870  0.00  0.00    +0.000 C 
ATOM     18  N   UNL     1      45.799   4.285   8.010  0.00  0.00    +0.000 NA
ATOM     19  H   UNL     1      45.379   5.166   7.706  0.00  0.00    +0.000 HD
ENDBRANCH  12  13
ENDBRANCH  11  12
ENDBRANCH   4  11
TORSDOF 5
ENDMDL
MODEL 5
REMARK VINA RESULT:    -5.747      1.884      6.043
REMARK INTER + INTRA:          -7.663
REMARK INTER:                  -7.285
REMARK INTRA:                  -0.378
REMARK UNBOUND:                -0.404
REMARK  Name = 
REMARK  5 active torsions:
REMARK  status: ('A' for Active; 'I' for Inactive)
REMARK    1  A    between atoms: N_1  and  C_2
REMARK    2  A    between atoms: C_2  and  C_3
REMARK    3  A    between atoms: C_6  and  O_7
REMARK    4  A    between atoms: O_7  and  C_8
REMARK    5  A    between atoms: C_8  and  C_9
REMARK                            x       y       z     vdW  Elec       q    Type
REMARK                         _______ _______ _______ _____ _____    ______ ____
ROOT
ATOM      1  C   UNL     1      45.164   6.761  11.811  0.00  0.00    +0.000 A 
ATOM      2  C   UNL     1      45.989   6.247  10.832  0.00  0.00    +0.000 A 
ATOM      3  N   UNL     1      45.644   5.231  10.021  0.00  0.00    +0.000 NA
ATOM      4  C   UNL     1      44.415   4.724  10.200  0.00  0.00    +0.000 A 
ATOM      5  N   UNL     1      43.514   5.157  11.094  0.00  0.00    +0.000 NA
ATOM      6  C   UNL     1      43.921   6.168  11.888  0.00  0.00    +0.000 A 
ENDROOT
BRANCH   1   7
ATOM      7  C   UNL     1      45.612   7.838  12.740  0.00  0.00    +0.000 C 
BRANCH   7   8
ATOM      8  N   UNL     1      44.779   9.029  12.632  0.00  0.00    +0.000 NA
ATOM      9  H   UNL     1      43.871   8.774  12.250  0.00  0.00    +0.000 HD
ATOM     10  H   UNL     1      45.196   9.677  11.964  0.00  0.00    +0.000 HD
ENDBRANCH   7   8
ENDBRANCH   1   7
BRANCH   4  11
ATOM     11  O   UNL     1      44.009   3.658   9.427  0.00  0.00    +0.000 OA
BRANCH  11  12
ATOM     12  C   UNL     1      44.963   2.591   9.477  0.00  0.00    +0.000 C 
BRANCH  12  13
ATOM     13  C   UNL     1      45.524   2.347   8.065  0.00  0.00    +0.000 C 
ATOM     14  C   UNL     1      46.471   1.139   8.073  0.00  0.00    +0.000 C 
ATOM     15  C   UNL     1      47.090   0.913   6.697  0.00  0.00    +0.000 C 
ATOM     16  C   UNL     1      47.732   2.197   6.178  0.00  0.00    +0.000 C 
ATOM     17  C   UNL     1      46.756   3.371   6.241  0.00  0.00    +0.000 C 
ATOM     18  N   UNL     1      46.237   3.546   7.595  0.00  0.00    +0.000 NA
ATOM     19  H   UNL     1      45.593   4.340   7.622  0.00  0.00    +0.000 HD
ENDBRANCH  12  13
ENDBRANCH  11  12
ENDBRANCH   4  11
TORSDOF 5
ENDMDL
MODEL 6
REMARK VINA RESULT:    -5.602      4.268      7.777
REMARK INTER + INTRA:          -7.480
REMARK INTER:                  -7.194
REMARK INTRA:                  -0.286
REMARK UNBOUND:                -0.404
REMARK  Name = 
REMARK  5 active torsions:
REMARK  status: ('A' for Active; 'I' for Inactive)
REMARK    1  A    between atoms: N_1  and  C_2
REMARK    2  A    between atoms: C_2  and  C_3
REMARK    3  A    between atoms: C_6  and  O_7
REMARK    4  A    between atoms: O_7  and  C_8
REMARK    5  A    between atoms: C_8  and  C_9
REMARK                            x       y       z     vdW  Elec       q    Type
REMARK                         _______ _______ _______ _____ _____    ______ ____
ROOT
ATOM      1  C   UNL     1      48.507   4.452  18.096  0.00  0.00    +0.000 A 
ATOM      2  C   UNL     1      48.791   5.209  16.979  0.00  0.00    +0.000 A 
ATOM      3  N   UNL     1      48.153   5.077  15.803  0.00  0.00    +0.000 NA
ATOM      4  C   UNL     1      47.182   4.151  15.759  0.00  0.00    +0.000 A 
ATOM      5  N   UNL     1      46.795   3.378  16.783  0.00  0.00    +0.000 NA
ATOM      6  C   UNL     1      47.480   3.546  17.933  0.00  0.00    +0.000 A 
ENDROOT
BRANCH   1   7
ATOM      7  C   UNL     1      49.289   4.577  19.359  0.00  0.00    +0.000 C 
BRANCH   7   8
ATOM      8  N   UNL     1      48.628   3.914  20.476  0.00  0.00    +0.000 NA
ATOM      9  H   UNL     1      47.919   3.276  20.120  0.00  0.00    +0.000 HD
ATOM     10  H   UNL     1      48.131   4.606  21.037  0.00  0.00    +0.000 HD
ENDBRANCH   7   8
ENDBRANCH   1   7
BRANCH   4  11
ATOM     11  O   UNL     1      46.510   3.938  14.576  0.00  0.00    +0.000 OA
BRANCH  11  12
ATOM     12  C   UNL     1      46.526   5.112  13.756  0.00  0.00    +0.000 C 
BRANCH  12  13
ATOM     13  C   UNL     1      45.416   5.005  12.696  0.00  0.00    +0.000 C 
ATOM     14  C   UNL     1      44.729   6.364  12.507  0.00  0.00    +0.000 C 
ATOM     15  C   UNL     1      43.581   6.270  11.506  0.00  0.00    +0.000 C 
ATOM     16  C   UNL     1      42.625   5.144  11.888  0.00  0.00    +0.000 C 
ATOM     17  C   UNL     1      43.373   3.830  12.110  0.00  0.00    +0.000 C 
ATOM     18  N   UNL     1      44.428   3.992  13.107  0.00  0.00    +0.000 NA
ATOM     19  H   UNL     1      44.914   3.103  13.249  0.00  0.00    +0.000 HD
ENDBRANCH  12  13
ENDBRANCH  11  12
ENDBRANCH   4  11
TORSDOF 5
ENDMDL
MODEL 7
REMARK VINA RESULT:    -4.783      2.585      5.943
REMARK INTER + INTRA:          -6.445
REMARK INTER:                  -5.994
REMARK INTRA:                  -0.452
REMARK UNBOUND:                -0.404
REMARK  Name = 
REMARK  5 active torsions:
REMARK  status: ('A' for Active; 'I' for Inactive)
REMARK    1  A    between atoms: N_1  and  C_2
REMARK    2  A    between atoms: C_2  and  C_3
REMARK    3  A    between atoms: C_6  and  O_7
REMARK    4  A    between atoms: O_7  and  C_8
REMARK    5  A    between atoms: C_8  and  C_9
REMARK                            x       y       z     vdW  Elec       q    Type
REMARK                         _______ _______ _______ _____ _____    ______ ____
ROOT
ATOM      1  C   UNL     1      47.791   7.452  13.795  0.00  0.00    +0.000 A 
ATOM      2  C   UNL     1      46.803   8.409  13.690  0.00  0.00    +0.000 A 
ATOM      3  N   UNL     1      45.789   8.343  12.810  0.00  0.00    +0.000 NA
ATOM      4  C   UNL     1      45.767   7.262  12.014  0.00  0.00    +0.000 A 
ATOM      5  N   UNL     1      46.649   6.253  12.044  0.00  0.00    +0.000 NA
ATOM      6  C   UNL     1      47.652   6.382  12.937  0.00  0.00    +0.000 A 
ENDROOT
BRANCH   1   7
ATOM      7  C   UNL     1      48.942   7.601  14.732  0.00  0.00    +0.000 C 
BRANCH   7   8
ATOM      8  N   UNL     1      50.183   7.109  14.150  0.00  0.00    +0.000 NA
ATOM      9  H   UNL     1      50.127   6.098  14.036  0.00  0.00    +0.000 HD
ATOM     10  H   UNL     1      50.954   7.279  14.795  0.00  0.00    +0.000 HD
ENDBRANCH   7   8
ENDBRANCH   1   7
BRANCH   4  11
ATOM     11  O   UNL     1      44.774   7.146  11.066  0.00  0.00    +0.000 OA
BRANCH  11  12
ATOM     12  C   UNL     1      43.691   6.342  11.549  0.00  0.00    +0.000 C 
BRANCH  12  13
ATOM     13  C   UNL     1      43.612   5.048  10.718  0.00  0.00    +0.000 C 
ATOM     14  C   UNL     1      43.880   3.828  11.610  0.00  0.00    +0.000 C 
ATOM     15  C   UNL     1      43.870   2.537  10.798  0.00  0.00    +0.000 C 
ATOM     16  C   UNL     1      44.812   2.645   9.603  0.00  0.00    +0.000 C 
ATOM     17  C   UNL     1      44.527   3.903   8.783  0.00  0.00    +0.000 C 
ATOM     18  N   UNL     1      44.593   5.098   9.621  0.00  0.00    +0.000 NA
ATOM     19  H   UNL     1      44.408   5.931   9.057  0.00  0.00    +0.000 HD
ENDBRANCH  12  13
ENDBRANCH  11  12
ENDBRANCH   4  11
TORSDOF 5
ENDMDL
MODEL 8
REMARK VINA RESULT:    -4.673      2.564      4.151
REMARK INTER + INTRA:          -6.307
REMARK INTER:                  -5.941
REMARK INTRA:                  -0.366
REMARK UNBOUND:                -0.404
REMARK  Name = 
REMARK  5 active torsions:
REMARK  status: ('A' for Active; 'I' for Inactive)
REMARK    1  A    between atoms: N_1  and  C_2
REMARK    2  A    between atoms: C_2  and  C_3
REMARK    3  A    between atoms: C_6  and  O_7
REMARK    4  A    between atoms: O_7  and  C_8
REMARK    5  A    between atoms: C_8  and  C_9
REMARK                            x       y       z     vdW  Elec       q    Type
REMARK                         _______ _______ _______ _____ _____    ______ ____
ROOT
ATOM      1  C   UNL     1      44.790   3.507  10.322  0.00  0.00    +0.000 A 
ATOM      2  C   UNL     1      45.005   4.840  10.042  0.00  0.00    +0.000 A 
ATOM      3  N   UNL     1      45.187   5.782  10.984  0.00  0.00    +0.000 NA
ATOM      4  C   UNL     1      45.163   5.357  12.257  0.00  0.00    +0.000 A 
ATOM      5  N   UNL     1      44.995   4.087  12.652  0.00  0.00    +0.000 NA
ATOM      6  C   UNL     1      44.803   3.189  11.664  0.00  0.00    +0.000 A 
ENDROOT
BRANCH   1   7
ATOM      7  C   UNL     1      44.517   2.506   9.251  0.00  0.00    +0.000 C 
BRANCH   7   8
ATOM      8  N   UNL     1      44.389   3.134   7.942  0.00  0.00    +0.000 NA
ATOM      9  H   UNL     1      43.934   2.488   7.299  0.00  0.00    +0.000 HD
ATOM     10  H   UNL     1      45.316   3.311   7.556  0.00  0.00    +0.000 HD
ENDBRANCH   7   8
ENDBRANCH   1   7
BRANCH   4  11
ATOM     11  O   UNL     1      45.309   6.274  13.275  0.00  0.00    +0.000 OA
BRANCH  11  12
ATOM     12  C   UNL     1      45.594   7.578  12.756  0.00  0.00    +0.000 C 
BRANCH  12  13
ATOM     13  C   UNL     1      46.986   8.022  13.238  0.00  0.00    +0.000 C 
ATOM     14  C   UNL     1      47.962   8.086  12.055  0.00  0.00    +0.000 C 
ATOM     15  C   UNL     1      49.367   8.462  12.516  0.00  0.00    +0.000 C 
ATOM     16  C   UNL     1      49.826   7.545  13.645  0.00  0.00    +0.000 C 
ATOM     17  C   UNL     1      48.793   7.485  14.769  0.00  0.00    +0.000 C 
ATOM     18  N   UNL     1      47.486   7.082  14.256  0.00  0.00    +0.000 NA
ATOM     19  H   UNL     1      46.808   7.039  15.020  0.00  0.00    +0.000 HD
ENDBRANCH  12  13
ENDBRANCH  11  12
ENDBRANCH   4  11
TORSDOF 5
ENDMDL
MODEL 9
REMARK VINA RESULT:    -4.564      3.604      5.659
REMARK INTER + INTRA:          -6.169
REMARK INTER:                  -5.731
REMARK INTRA:                  -0.438
REMARK UNBOUND:                -0.404
REMARK  Name = 
REMARK  5 active torsions:
REMARK  status: ('A' for Active; 'I' for Inactive)
REMARK    1  A    between atoms: N_1  and  C_2
REMARK    2  A    between atoms: C_2  and  C_3
REMARK    3  A    between atoms: C_6  and  O_7
REMARK    4  A    between atoms: O_7  and  C_8
REMARK    5  A    between atoms: C_8  and  C_9
REMARK                            x       y       z     vdW  Elec       q    Type
REMARK                         _______ _______ _______ _____ _____    ______ ____
ROOT
ATOM      1  C   UNL     1      44.746   4.865  11.335  0.00  0.00    +0.000 A 
ATOM      2  C   UNL     1      45.097   6.131  10.914  0.00  0.00    +0.000 A 
ATOM      3  N   UNL     1      45.871   6.968  11.627  0.00  0.00    +0.000 NA
ATOM      4  C   UNL     1      46.317   6.501  12.805  0.00  0.00    +0.000 A 
ATOM      5  N   UNL     1      46.071   5.282  13.304  0.00  0.00    +0.000 NA
ATOM      6  C   UNL     1      45.278   4.493  12.552  0.00  0.00    +0.000 A 
ENDROOT
BRANCH   1   7
ATOM      7  C   UNL     1      43.824   3.996  10.549  0.00  0.00    +0.000 C 
BRANCH   7   8
ATOM      8  N   UNL     1      43.003   3.156  11.411  0.00  0.00    +0.000 NA
ATOM      9  H   UNL     1      43.128   3.441  12.380  0.00  0.00    +0.000 HD
ATOM     10  H   UNL     1      43.326   2.191  11.355  0.00  0.00    +0.000 HD
ENDBRANCH   7   8
ENDBRANCH   1   7
BRANCH   4  11
ATOM     11  O   UNL     1      47.087   7.319  13.603  0.00  0.00    +0.000 OA
BRANCH  11  12
ATOM     12  C   UNL     1      48.365   6.728  13.865  0.00  0.00    +0.000 C 
BRANCH  12  13
ATOM     13  C   UNL     1      48.491   6.443  15.372  0.00  0.00    +0.000 C 
ATOM     14  C   UNL     1      49.923   6.730  15.847  0.00  0.00    +0.000 C 
ATOM     15  C   UNL     1      50.091   6.395  17.326  0.00  0.00    +0.000 C 
ATOM     16  C   UNL     1      49.620   4.972  17.613  0.00  0.00    +0.000 C 
ATOM     17  C   UNL     1      48.211   4.735  17.073  0.00  0.00    +0.000 C 
ATOM     18  N   UNL     1      48.139   5.040  15.647  0.00  0.00    +0.000 NA
ATOM     19  H   UNL     1      47.192   4.869  15.300  0.00  0.00    +0.000 HD
ENDBRANCH  12  13
ENDBRANCH  11  12
ENDBRANCH   4  11
TORSDOF 5
ENDMDL
