MODEL 1
REMARK VINA RESULT:    -7.571      0.000      0.000
REMARK INTER + INTRA:          -9.656
REMARK INTER:                  -9.342
REMARK INTRA:                  -0.315
REMARK UNBOUND:                -0.315
REMARK  Name = 
REMARK  4 active torsions:
REMARK  status: ('A' for Active; 'I' for Inactive)
REMARK    1  A    between atoms: C_2  and  C_4
REMARK    2  A    between atoms: C_7  and  S_8
REMARK    3  A    between atoms: S_8  and  C_9
REMARK    4  A    between atoms: C_9  and  C_10
REMARK                            x       y       z     vdW  Elec       q    Type
REMARK                         _______ _______ _______ _____ _____    ______ ____
ROOT
ATOM      1  C   UNL     1      46.480   2.506   7.679  0.00  0.00    +0.000 A 
ATOM      2  C   UNL     1      46.308   3.869   7.614  0.00  0.00    +0.000 A 
ATOM      3  N   UNL     1      45.454   4.559   8.406  0.00  0.00    +0.000 NA
ATOM      4  C   UNL     1      44.737   3.837   9.288  0.00  0.00    +0.000 A 
ATOM      5  N   UNL     1      44.807   2.500   9.410  0.00  0.00    +0.000 NA
ATOM      6  C   UNL     1      45.674   1.856   8.589  0.00  0.00    +0.000 A 
ENDROOT
BRANCH   1   8
ATOM      7  N   UNL     1      48.530   2.441   6.383  0.00  0.00    +0.000 N 
ATOM      8  C   UNL     1      47.430   1.767   6.837  0.00  0.00    +0.000 C 
ATOM      9  O   UNL     1      47.259   0.583   6.582  0.00  0.00    +0.000 OA
ATOM     10  H   UNL     1      49.221   1.891   5.887  0.00  0.00    +0.000 HD
ATOM     11  H   UNL     1      48.844   3.322   6.769  0.00  0.00    +0.000 HD
ENDBRANCH   1   8
BRANCH   4  12
ATOM     12  S   UNL     1      43.683   4.696  10.431  0.00  0.00    +0.000 S 
BRANCH  12  13
ATOM     13  C   UNL     1      44.408   4.136  12.000  0.00  0.00    +0.000 C 
BRANCH  13  14
ATOM     14  C   UNL     1      45.573   4.999  12.430  0.00  0.00    +0.000 A 
ATOM     15  C   UNL     1      46.271   4.720  13.616  0.00  0.00    +0.000 A 
ATOM     16  C   UNL     1      47.371   5.494  13.996  0.00  0.00    +0.000 A 
ATOM     17  C   UNL     1      47.778   6.559  13.194  0.00  0.00    +0.000 A 
ATOM     18  I   UNL     1      49.439   7.686  13.735  0.00  0.00    +0.000 I 
ATOM     19  C   UNL     1      47.083   6.866  12.026  0.00  0.00    +0.000 A 
ATOM     20  C   UNL     1      45.981   6.091  11.650  0.00  0.00    +0.000 A 
ENDBRANCH  13  14
ENDBRANCH  12  13
ENDBRANCH   4  12
TORSDOF 4
ENDMDL
MODEL 2
REMARK VINA RESULT:    -7.140      4.093      6.310
REMARK INTER + INTRA:          -9.125
REMARK INTER:                  -8.735
REMARK INTRA:                  -0.389
REMARK UNBOUND:                -0.315
REMARK  Name = 
REMARK  4 active torsions:
REMARK  status: ('A' for Active; 'I' for Inactive)
REMARK    1  A    between atoms: C_2  and  C_4
REMARK    2  A    between atoms: C_7  and  S_8
REMARK    3  A    between atoms: S_8  and  C_9
REMARK    4  A    between atoms: C_9  and  C_10
REMARK                            x       y       z     vdW  Elec       q    Type
REMARK                         _______ _______ _______ _____ _____    ______ ____
ROOT
ATOM      1  C   UNL     1      47.145   5.979  13.733  0.00  0.00    +0.000 A 
ATOM      2  C   UNL     1      46.147   6.447  12.911  0.00  0.00    +0.000 A 
ATOM      3  N   UNL     1      45.116   5.689  12.472  0.00  0.00    +0.000 NA
ATOM      4  C   UNL     1      45.103   4.403  12.871  0.00  0.00    +0.000 A 
ATOM      5  N   UNL     1      46.046   3.840  13.646  0.00  0.00    +0.000 NA
ATOM      6  C   UNL     1      47.061   4.642  14.055  0.00  0.00    +0.000 A 
ENDROOT
BRANCH   1   8
ATOM      7  N   UNL     1      47.944   7.768  15.165  0.00  0.00    +0.000 N 
ATOM      8  C   UNL     1      48.246   6.815  14.230  0.00  0.00    +0.000 C 
ATOM      9  O   UNL     1      49.394   6.641  13.847  0.00  0.00    +0.000 OA
ATOM     10  H   UNL     1      48.729   8.267  15.566  0.00  0.00    +0.000 HD
ATOM     11  H   UNL     1      47.082   7.779  15.693  0.00  0.00    +0.000 HD
ENDBRANCH   1   8
BRANCH   4  12
ATOM     12  S   UNL     1      43.717   3.387  12.421  0.00  0.00    +0.000 S 
BRANCH  12  13
ATOM     13  C   UNL     1      43.367   4.056  10.769  0.00  0.00    +0.000 C 
BRANCH  13  14
ATOM     14  C   UNL     1      44.386   3.609   9.745  0.00  0.00    +0.000 A 
ATOM     15  C   UNL     1      44.672   2.246   9.569  0.00  0.00    +0.000 A 
ATOM     16  C   UNL     1      45.586   1.828   8.598  0.00  0.00    +0.000 A 
ATOM     17  C   UNL     1      46.228   2.774   7.799  0.00  0.00    +0.000 A 
ATOM     18  I   UNL     1      47.558   2.153   6.326  0.00  0.00    +0.000 I 
ATOM     19  C   UNL     1      45.975   4.132   7.976  0.00  0.00    +0.000 A 
ATOM     20  C   UNL     1      45.061   4.547   8.950  0.00  0.00    +0.000 A 
ENDBRANCH  13  14
ENDBRANCH  12  13
ENDBRANCH   4  12
TORSDOF 4
ENDMDL
MODEL 3
REMARK VINA RESULT:    -6.570      1.302      2.060
REMARK INTER + INTRA:          -8.421
REMARK INTER:                  -7.982
REMARK INTRA:                  -0.439
REMARK UNBOUND:                -0.315
REMARK  Name = 
REMARK  4 active torsions:
REMARK  status: ('A' for Active; 'I' for Inactive)
REMARK    1  A    between atoms: C_2  and  C_4
REMARK    2  A    between atoms: C_7  and  S_8
REMARK    3  A    between atoms: S_8  and  C_9
REMARK    4  A    between atoms: C_9  and  C_10
REMARK                            x       y       z     vdW  Elec       q    Type
REMARK                         _______ _______ _______ _____ _____    ______ ____
ROOT
ATOM      1  C   UNL     1      45.409   2.921   8.772  0.00  0.00    +0.000 A 
ATOM      2  C   UNL     1      44.590   2.288   9.677  0.00  0.00    +0.000 A 
ATOM      3  N   UNL     1      43.757   2.939  10.522  0.00  0.00    +0.000 NA
ATOM      4  C   UNL     1      43.764   4.284  10.455  0.00  0.00    +0.000 A 
ATOM      5  N   UNL     1      44.549   4.999   9.629  0.00  0.00    +0.000 NA
ATOM      6  C   UNL     1      45.369   4.297   8.808  0.00  0.00    +0.000 A 
ENDROOT
BRANCH   1   8
ATOM      7  N   UNL     1      46.938   2.950   6.888  0.00  0.00    +0.000 N 
ATOM      8  C   UNL     1      46.290   2.208   7.837  0.00  0.00    +0.000 C 
ATOM      9  O   UNL     1      46.462   1.000   7.927  0.00  0.00    +0.000 OA
ATOM     10  H   UNL     1      47.614   2.456   6.317  0.00  0.00    +0.000 HD
ATOM     11  H   UNL     1      47.032   3.956   6.934  0.00  0.00    +0.000 HD
ENDBRANCH   1   8
BRANCH   4  12
ATOM     12  S   UNL     1      42.612   5.191  11.457  0.00  0.00    +0.000 S 
BRANCH  12  13
ATOM     13  C   UNL     1      43.485   5.145  13.050  0.00  0.00    +0.000 C 
BRANCH  13  14
ATOM     14  C   UNL     1      44.877   5.728  12.954  0.00  0.00    +0.000 A 
ATOM     15  C   UNL     1      45.070   7.052  12.530  0.00  0.00    +0.000 A 
ATOM     16  C   UNL     1      46.353   7.605  12.476  0.00  0.00    +0.000 A 
ATOM     17  C   UNL     1      47.455   6.832  12.839  0.00  0.00    +0.000 A 
ATOM     18  I   UNL     1      49.360   7.663  12.798  0.00  0.00    +0.000 I 
ATOM     19  C   UNL     1      47.285   5.508  13.238  0.00  0.00    +0.000 A 
ATOM     20  C   UNL     1      46.000   4.958  13.289  0.00  0.00    +0.000 A 
ENDBRANCH  13  14
ENDBRANCH  12  13
ENDBRANCH   4  12
TORSDOF 4
ENDMDL
MODEL 4
REMARK VINA RESULT:    -6.071      4.125      6.528
REMARK INTER + INTRA:          -7.805
REMARK INTER:                  -7.444
REMARK INTRA:                  -0.360
REMARK UNBOUND:                -0.315
REMARK  Name = 
REMARK  4 active torsions:
REMARK  status: ('A' for Active; 'I' for Inactive)
REMARK    1  A    between atoms: C_2  and  C_4
REMARK    2  A    between atoms: C_7  and  S_8
REMARK    3  A    between atoms: S_8  and  C_9
REMARK    4  A    between atoms: C_9  and  C_10
REMARK                            x       y       z     vdW  Elec       q    Type
REMARK                         _______ _______ _______ _____ _____    ______ ____
ROOT
ATOM      1  C   UNL     1      46.802   4.762  14.547  0.00  0.00    +0.000 A 
ATOM      2  C   UNL     1      45.798   3.942  14.089  0.00  0.00    +0.000 A 
ATOM      3  N   UNL     1      44.921   4.294  13.120  0.00  0.00    +0.000 NA
ATOM      4  C   UNL     1      45.060   5.530  12.605  0.00  0.00    +0.000 A 
ATOM      5  N   UNL     1      45.987   6.419  13.003  0.00  0.00    +0.000 NA
ATOM      6  C   UNL     1      46.837   6.018  13.981  0.00  0.00    +0.000 A 
ENDROOT
BRANCH   1   8
ATOM      7  N   UNL     1      48.173   5.320  16.469  0.00  0.00    +0.000 N 
ATOM      8  C   UNL     1      47.769   4.363  15.578  0.00  0.00    +0.000 C 
ATOM      9  O   UNL     1      48.171   3.211  15.656  0.00  0.00    +0.000 OA
ATOM     10  H   UNL     1      48.764   5.004  17.230  0.00  0.00    +0.000 HD
ATOM     11  H   UNL     1      47.688   6.196  16.607  0.00  0.00    +0.000 HD
ENDBRANCH   1   8
BRANCH   4  12
ATOM     12  S   UNL     1      44.013   6.010  11.252  0.00  0.00    +0.000 S 
BRANCH  12  13
ATOM     13  C   UNL     1      43.486   4.371  10.673  0.00  0.00    +0.000 C 
BRANCH  13  14
ATOM     14  C   UNL     1      44.441   3.793   9.652  0.00  0.00    +0.000 A 
ATOM     15  C   UNL     1      45.159   4.635   8.788  0.00  0.00    +0.000 A 
ATOM     16  C   UNL     1      46.070   4.106   7.869  0.00  0.00    +0.000 A 
ATOM     17  C   UNL     1      46.265   2.727   7.803  0.00  0.00    +0.000 A 
ATOM     18  I   UNL     1      47.648   1.940   6.467  0.00  0.00    +0.000 I 
ATOM     19  C   UNL     1      45.544   1.874   8.637  0.00  0.00    +0.000 A 
ATOM     20  C   UNL     1      44.631   2.407   9.553  0.00  0.00    +0.000 A 
ENDBRANCH  13  14
ENDBRANCH  12  13
ENDBRANCH   4  12
TORSDOF 4
ENDMDL
MODEL 5
REMARK VINA RESULT:    -5.231      3.872      5.267
REMARK INTER + INTRA:          -6.768
REMARK INTER:                  -6.455
REMARK INTRA:                  -0.313
REMARK UNBOUND:                -0.315
REMARK  Name = 
REMARK  4 active torsions:
REMARK  status: ('A' for Active; 'I' for Inactive)
REMARK    1  A    between atoms: C_2  and  C_4
REMARK    2  A    between atoms: C_7  and  S_8
REMARK    3  A    between atoms: S_8  and  C_9
REMARK    4  A    between atoms: C_9  and  C_10
REMARK                            x       y       z     vdW  Elec       q    Type
REMARK                         _______ _______ _______ _____ _____    ______ ____
ROOT
ATOM      1  C   UNL     1      45.031   4.252  11.533  0.00  0.00    +0.000 A 
ATOM      2  C   UNL     1      45.336   5.461  10.954  0.00  0.00    +0.000 A 
ATOM      3  N   UNL     1      46.118   6.400  11.537  0.00  0.00    +0.000 NA
ATOM      4  C   UNL     1      46.598   6.106  12.760  0.00  0.00    +0.000 A 
ATOM      5  N   UNL     1      46.334   4.968  13.426  0.00  0.00    +0.000 NA
ATOM      6  C   UNL     1      45.541   4.063  12.799  0.00  0.00    +0.000 A 
ENDROOT
BRANCH   1   8
ATOM      7  N   UNL     1      44.818   2.405   9.974  0.00  0.00    +0.000 N 
ATOM      8  C   UNL     1      44.206   3.226  10.882  0.00  0.00    +0.000 C 
ATOM      9  O   UNL     1      43.025   3.090  11.167  0.00  0.00    +0.000 OA
ATOM     10  H   UNL     1      44.258   1.643   9.609  0.00  0.00    +0.000 HD
ATOM     11  H   UNL     1      45.822   2.307   9.897  0.00  0.00    +0.000 HD
ENDBRANCH   1   8
BRANCH   4  12
ATOM     12  S   UNL     1      47.721   7.247  13.530  0.00  0.00    +0.000 S 
BRANCH  12  13
ATOM     13  C   UNL     1      47.726   8.566  12.281  0.00  0.00    +0.000 C 
BRANCH  13  14
ATOM     14  C   UNL     1      49.106   8.806  11.711  0.00  0.00    +0.000 A 
ATOM     15  C   UNL     1      49.533  10.105  11.394  0.00  0.00    +0.000 A 
ATOM     16  C   UNL     1      50.821  10.334  10.903  0.00  0.00    +0.000 A 
ATOM     17  C   UNL     1      51.692   9.261  10.718  0.00  0.00    +0.000 A 
ATOM     18  I   UNL     1      53.622   9.602  10.026  0.00  0.00    +0.000 I 
ATOM     19  C   UNL     1      51.278   7.962  11.004  0.00  0.00    +0.000 A 
ATOM     20  C   UNL     1      49.987   7.737  11.494  0.00  0.00    +0.000 A 
ENDBRANCH  13  14
ENDBRANCH  12  13
ENDBRANCH   4  12
TORSDOF 4
ENDMDL
MODEL 6
REMARK VINA RESULT:    -5.204      6.077      8.176
REMARK INTER + INTRA:          -6.736
REMARK INTER:                  -6.443
REMARK INTRA:                  -0.293
REMARK UNBOUND:                -0.315
REMARK  Name = 
REMARK  4 active torsions:
REMARK  status: ('A' for Active; 'I' for Inactive)
REMARK    1  A    between atoms: C_2  and  C_4
REMARK    2  A    between atoms: C_7  and  S_8
REMARK    3  A    between atoms: S_8  and  C_9
REMARK    4  A    between atoms: C_9  and  C_10
REMARK                            x       y       z     vdW  Elec       q    Type
REMARK                         _______ _______ _______ _____ _____    ______ ____
ROOT
ATOM      1  C   UNL     1      48.416   4.551  18.086  0.00  0.00    +0.000 A 
ATOM      2  C   UNL     1      47.446   3.655  17.702  0.00  0.00    +0.000 A 
ATOM      3  N   UNL     1      46.911   3.612  16.460  0.00  0.00    +0.000 NA
ATOM      4  C   UNL     1      47.368   4.520  15.577  0.00  0.00    +0.000 A 
ATOM      5  N   UNL     1      48.290   5.457  15.860  0.00  0.00    +0.000 NA
ATOM      6  C   UNL     1      48.790   5.461  17.121  0.00  0.00    +0.000 A 
ENDROOT
BRANCH   1   8
ATOM      7  N   UNL     1      48.590   3.632  20.325  0.00  0.00    +0.000 N 
ATOM      8  C   UNL     1      49.014   4.574  19.428  0.00  0.00    +0.000 C 
ATOM      9  O   UNL     1      49.883   5.384  19.719  0.00  0.00    +0.000 OA
ATOM     10  H   UNL     1      49.082   3.602  21.211  0.00  0.00    +0.000 HD
ATOM     11  H   UNL     1      48.080   2.800  20.062  0.00  0.00    +0.000 HD
ENDBRANCH   1   8
BRANCH   4  12
ATOM     12  S   UNL     1      46.788   4.442  13.899  0.00  0.00    +0.000 S 
BRANCH  12  13
ATOM     13  C   UNL     1      47.691   5.852  13.195  0.00  0.00    +0.000 C 
BRANCH  13  14
ATOM     14  C   UNL     1      46.758   6.910  12.648  0.00  0.00    +0.000 A 
ATOM     15  C   UNL     1      45.671   6.553  11.835  0.00  0.00    +0.000 A 
ATOM     16  C   UNL     1      44.786   7.524  11.359  0.00  0.00    +0.000 A 
ATOM     17  C   UNL     1      44.987   8.865  11.688  0.00  0.00    +0.000 A 
ATOM     18  I   UNL     1      43.650  10.307  11.015  0.00  0.00    +0.000 I 
ATOM     19  C   UNL     1      46.075   9.240  12.473  0.00  0.00    +0.000 A 
ATOM     20  C   UNL     1      46.959   8.266  12.946  0.00  0.00    +0.000 A 
ENDBRANCH  13  14
ENDBRANCH  12  13
ENDBRANCH   4  12
TORSDOF 4
ENDMDL
MODEL 7
REMARK VINA RESULT:    -5.078      5.965      7.806
REMARK INTER + INTRA:          -6.580
REMARK INTER:                  -6.258
REMARK INTRA:                  -0.323
REMARK UNBOUND:                -0.315
REMARK  Name = 
REMARK  4 active torsions:
REMARK  status: ('A' for Active; 'I' for Inactive)
REMARK    1  A    between atoms: C_2  and  C_4
REMARK    2  A    between atoms: C_7  and  S_8
REMARK    3  A    between atoms: S_8  and  C_9
REMARK    4  A    between atoms: C_9  and  C_10
REMARK                            x       y       z     vdW  Elec       q    Type
REMARK                         _______ _______ _______ _____ _____    ______ ____
ROOT
ATOM      1  C   UNL     1      48.163   4.764  17.810  0.00  0.00    +0.000 A 
ATOM      2  C   UNL     1      47.173   3.873  17.470  0.00  0.00    +0.000 A 
ATOM      3  N   UNL     1      46.722   3.695  16.206  0.00  0.00    +0.000 NA
ATOM      4  C   UNL     1      47.286   4.461  15.254  0.00  0.00    +0.000 A 
ATOM      5  N   UNL     1      48.237   5.384  15.486  0.00  0.00    +0.000 NA
ATOM      6  C   UNL     1      48.650   5.525  16.770  0.00  0.00    +0.000 A 
ENDROOT
BRANCH   1   8
ATOM      7  N   UNL     1      49.817   4.266  19.514  0.00  0.00    +0.000 N 
ATOM      8  C   UNL     1      48.670   4.931  19.179  0.00  0.00    +0.000 C 
ATOM      9  O   UNL     1      48.104   5.665  19.977  0.00  0.00    +0.000 OA
ATOM     10  H   UNL     1      50.204   4.469  20.429  0.00  0.00    +0.000 HD
ATOM     11  H   UNL     1      50.450   3.866  18.834  0.00  0.00    +0.000 HD
ENDBRANCH   1   8
BRANCH   4  12
ATOM     12  S   UNL     1      46.817   4.196  13.561  0.00  0.00    +0.000 S 
BRANCH  12  13
ATOM     13  C   UNL     1      45.674   5.590  13.335  0.00  0.00    +0.000 C 
BRANCH  13  14
ATOM     14  C   UNL     1      46.382   6.833  12.842  0.00  0.00    +0.000 A 
ATOM     15  C   UNL     1      45.779   8.094  12.964  0.00  0.00    +0.000 A 
ATOM     16  C   UNL     1      46.446   9.248  12.542  0.00  0.00    +0.000 A 
ATOM     17  C   UNL     1      47.721   9.147  11.988  0.00  0.00    +0.000 A 
ATOM     18  I   UNL     1      48.733  10.865  11.399  0.00  0.00    +0.000 I 
ATOM     19  C   UNL     1      48.326   7.901  11.837  0.00  0.00    +0.000 A 
ATOM     20  C   UNL     1      47.654   6.748  12.258  0.00  0.00    +0.000 A 
ENDBRANCH  13  14
ENDBRANCH  12  13
ENDBRANCH   4  12
TORSDOF 4
ENDMDL
MODEL 8
REMARK VINA RESULT:    -5.007      5.064      6.430
REMARK INTER + INTRA:          -6.492
REMARK INTER:                  -6.174
REMARK INTRA:                  -0.318
REMARK UNBOUND:                -0.315
REMARK  Name = 
REMARK  4 active torsions:
REMARK  status: ('A' for Active; 'I' for Inactive)
REMARK    1  A    between atoms: C_2  and  C_4
REMARK    2  A    between atoms: C_7  and  S_8
REMARK    3  A    between atoms: S_8  and  C_9
REMARK    4  A    between atoms: C_9  and  C_10
REMARK                            x       y       z     vdW  Elec       q    Type
REMARK                         _______ _______ _______ _____ _____    ______ ____
ROOT
ATOM      1  C   UNL     1      45.054   5.367  13.171  0.00  0.00    +0.000 A 
ATOM      2  C   UNL     1      45.271   6.682  12.834  0.00  0.00    +0.000 A 
ATOM      3  N   UNL     1      46.481   7.284  12.888  0.00  0.00    +0.000 NA
ATOM      4  C   UNL     1      47.511   6.526  13.311  0.00  0.00    +0.000 A 
ATOM      5  N   UNL     1      47.400   5.242  13.694  0.00  0.00    +0.000 NA
ATOM      6  C   UNL     1      46.163   4.688  13.626  0.00  0.00    +0.000 A 
ENDROOT
BRANCH   1   8
ATOM      7  N   UNL     1      42.644   5.513  12.936  0.00  0.00    +0.000 N 
ATOM      8  C   UNL     1      43.742   4.711  13.082  0.00  0.00    +0.000 C 
ATOM      9  O   UNL     1      43.642   3.493  13.105  0.00  0.00    +0.000 OA
ATOM     10  H   UNL     1      41.761   5.041  12.779  0.00  0.00    +0.000 HD
ATOM     11  H   UNL     1      42.693   6.484  12.657  0.00  0.00    +0.000 HD
ENDBRANCH   1   8
BRANCH   4  12
ATOM     12  S   UNL     1      49.144   7.224  13.297  0.00  0.00    +0.000 S 
BRANCH  12  13
ATOM     13  C   UNL     1      48.856   8.704  14.310  0.00  0.00    +0.000 C 
BRANCH  13  14
ATOM     14  C   UNL     1      48.698   8.368  15.777  0.00  0.00    +0.000 A 
ATOM     15  C   UNL     1      48.088   9.277  16.656  0.00  0.00    +0.000 A 
ATOM     16  C   UNL     1      47.906   8.954  18.004  0.00  0.00    +0.000 A 
ATOM     17  C   UNL     1      48.341   7.719  18.484  0.00  0.00    +0.000 A 
ATOM     18  I   UNL     1      48.036   7.219  20.479  0.00  0.00    +0.000 I 
ATOM     19  C   UNL     1      48.971   6.815  17.631  0.00  0.00    +0.000 A 
ATOM     20  C   UNL     1      49.152   7.142  16.284  0.00  0.00    +0.000 A 
ENDBRANCH  13  14
ENDBRANCH  12  13
ENDBRANCH   4  12
TORSDOF 4
ENDMDL
MODEL 9
REMARK VINA RESULT:    -4.983      3.772      5.216
REMARK INTER + INTRA:          -6.463
REMARK INTER:                  -6.155
REMARK INTRA:                  -0.308
REMARK UNBOUND:                -0.315
REMARK  Name = 
REMARK  4 active torsions:
REMARK  status: ('A' for Active; 'I' for Inactive)
REMARK    1  A    between atoms: C_2  and  C_4
REMARK    2  A    between atoms: C_7  and  S_8
REMARK    3  A    between atoms: S_8  and  C_9
REMARK    4  A    between atoms: C_9  and  C_10
REMARK                            x       y       z     vdW  Elec       q    Type
REMARK                         _______ _______ _______ _____ _____    ______ ____
ROOT
ATOM      1  C   UNL     1      44.906   4.454  11.765  0.00  0.00    +0.000 A 
ATOM      2  C   UNL     1      45.397   5.223  10.737  0.00  0.00    +0.000 A 
ATOM      3  N   UNL     1      46.231   6.274  10.914  0.00  0.00    +0.000 NA
ATOM      4  C   UNL     1      46.568   6.565  12.185  0.00  0.00    +0.000 A 
ATOM      5  N   UNL     1      46.118   5.897  13.262  0.00  0.00    +0.000 NA
ATOM      6  C   UNL     1      45.281   4.855  13.028  0.00  0.00    +0.000 A 
ENDROOT
BRANCH   1   8
ATOM      7  N   UNL     1      43.829   2.457  12.627  0.00  0.00    +0.000 N 
ATOM      8  C   UNL     1      44.025   3.295  11.563  0.00  0.00    +0.000 C 
ATOM      9  O   UNL     1      43.462   3.108  10.494  0.00  0.00    +0.000 OA
ATOM     10  H   UNL     1      43.144   1.721  12.498  0.00  0.00    +0.000 HD
ATOM     11  H   UNL     1      44.056   2.703  13.581  0.00  0.00    +0.000 HD
ENDBRANCH   1   8
BRANCH   4  12
ATOM     12  S   UNL     1      47.747   7.861  12.476  0.00  0.00    +0.000 S 
BRANCH  12  13
ATOM     13  C   UNL     1      48.859   7.013  13.636  0.00  0.00    +0.000 C 
BRANCH  13  14
ATOM     14  C   UNL     1      48.684   7.504  15.055  0.00  0.00    +0.000 A 
ATOM     15  C   UNL     1      48.934   6.651  16.142  0.00  0.00    +0.000 A 
ATOM     16  C   UNL     1      48.809   7.114  17.455  0.00  0.00    +0.000 A 
ATOM     17  C   UNL     1      48.425   8.433  17.691  0.00  0.00    +0.000 A 
ATOM     18  I   UNL     1      48.278   9.135  19.643  0.00  0.00    +0.000 I 
ATOM     19  C   UNL     1      48.149   9.287  16.625  0.00  0.00    +0.000 A 
ATOM     20  C   UNL     1      48.273   8.820  15.313  0.00  0.00    +0.000 A 
ENDBRANCH  13  14
ENDBRANCH  12  13
ENDBRANCH   4  12
TORSDOF 4
ENDMDL
