MODEL 1
REMARK VINA RESULT:    -7.452      0.000      0.000
REMARK INTER + INTRA:         -10.153
REMARK INTER:                  -9.848
REMARK INTRA:                  -0.305
REMARK UNBOUND:                -0.305
REMARK  Name = 
REMARK  6 active torsions:
REMARK  status: ('A' for Active; 'I' for Inactive)
REMARK    1  A    between atoms: C_2  and  C_3
REMARK    2  A    between atoms: C_6  and  C_7
REMARK    3  A    between atoms: C_7  and  C_8
REMARK    4  A    between atoms: C_11  and  O_12
REMARK    5  A    between atoms: O_12  and  C_13
REMARK    6  A    between atoms: C_21  and  N_22
REMARK                            x       y       z     vdW  Elec       q    Type
REMARK                         _______ _______ _______ _____ _____    ______ ____
ROOT
ATOM      1  C   UNL     1      44.278   4.825  11.148  0.00  0.00    +0.000 C 
ATOM      2  C   UNL     1      43.156   5.844  10.986  0.00  0.00    +0.000 C 
ATOM      3  C   UNL     1      42.885   4.572  11.720  0.00  0.00    +0.000 C 
ENDROOT
BRANCH   1   7
ATOM      4  C   UNL     1      47.424   5.779  13.905  0.00  0.00    +0.000 A 
ATOM      5  N   UNL     1      47.080   6.700  12.967  0.00  0.00    +0.000 NA
ATOM      6  C   UNL     1      46.091   6.356  12.108  0.00  0.00    +0.000 A 
ATOM      7  C   UNL     1      45.401   5.145  12.128  0.00  0.00    +0.000 A 
ATOM      8  C   UNL     1      45.825   4.215  13.092  0.00  0.00    +0.000 A 
ATOM      9  C   UNL     1      46.869   4.495  13.987  0.00  0.00    +0.000 A 
BRANCH   9  10
ATOM     10  N   UNL     1      47.104   3.587  15.028  0.00  0.00    +0.000 N 
ATOM     11  H   UNL     1      48.080   3.421  15.246  0.00  0.00    +0.000 HD
ATOM     12  H   UNL     1      46.546   3.729  15.873  0.00  0.00    +0.000 HD
ENDBRANCH   9  10
BRANCH   4  14
ATOM     13  N   UNL     1      49.282   6.596  15.530  0.00  0.00    +0.000 NA
ATOM     14  C   UNL     1      48.450   6.208  14.821  0.00  0.00    +0.000 C 
ENDBRANCH   4  14
ENDBRANCH   1   7
BRANCH   1  15
ATOM     15  C   UNL     1      44.748   4.052   9.918  0.00  0.00    +0.000 A 
ATOM     16  C   UNL     1      44.695   2.658   9.882  0.00  0.00    +0.000 A 
ATOM     17  C   UNL     1      45.352   1.965   8.868  0.00  0.00    +0.000 A 
ATOM     18  C   UNL     1      46.043   2.665   7.888  0.00  0.00    +0.000 A 
ATOM     19  C   UNL     1      46.017   4.049   7.958  0.00  0.00    +0.000 A 
ATOM     20  N   UNL     1      45.375   4.745   8.929  0.00  0.00    +0.000 NA
BRANCH  18  21
ATOM     21  O   UNL     1      46.715   1.897   6.986  0.00  0.00    +0.000 OA
BRANCH  21  22
ATOM     22  C   UNL     1      47.365   2.593   5.938  0.00  0.00    +0.000 C 
ATOM     23  F   UNL     1      48.335   1.805   5.415  0.00  0.00    +0.000 F 
ATOM     24  F   UNL     1      46.447   2.789   4.960  0.00  0.00    +0.000 F 
ENDBRANCH  21  22
ENDBRANCH  18  21
ENDBRANCH   1  15
TORSDOF 6
ENDMDL
MODEL 2
REMARK VINA RESULT:    -6.971      1.219      1.918
REMARK INTER + INTRA:          -9.518
REMARK INTER:                  -9.174
REMARK INTRA:                  -0.343
REMARK UNBOUND:                -0.305
REMARK  Name = 
REMARK  6 active torsions:
REMARK  status: ('A' for Active; 'I' for Inactive)
REMARK    1  A    between atoms: C_2  and  C_3
REMARK    2  A    between atoms: C_6  and  C_7
REMARK    3  A    between atoms: C_7  and  C_8
REMARK    4  A    between atoms: C_11  and  O_12
REMARK    5  A    between atoms: O_12  and  C_13
REMARK    6  A    between atoms: C_21  and  N_22
REMARK                            x       y       z     vdW  Elec       q    Type
REMARK                         _______ _______ _______ _____ _____    ______ ____
ROOT
ATOM      1  C   UNL     1      44.190   4.987  11.485  0.00  0.00    +0.000 C 
ATOM      2  C   UNL     1      42.938   5.855  11.480  0.00  0.00    +0.000 C 
ATOM      3  C   UNL     1      42.939   4.583  12.263  0.00  0.00    +0.000 C 
ENDROOT
BRANCH   1   7
ATOM      4  C   UNL     1      47.611   6.308  13.712  0.00  0.00    +0.000 A 
ATOM      5  N   UNL     1      47.370   4.974  13.619  0.00  0.00    +0.000 NA
ATOM      6  C   UNL     1      46.275   4.598  12.918  0.00  0.00    +0.000 A 
ATOM      7  C   UNL     1      45.396   5.473  12.282  0.00  0.00    +0.000 A 
ATOM      8  C   UNL     1      45.669   6.841  12.444  0.00  0.00    +0.000 A 
ATOM      9  C   UNL     1      46.767   7.297  13.190  0.00  0.00    +0.000 A 
BRANCH   9  10
ATOM     10  N   UNL     1      47.068   8.665  13.148  0.00  0.00    +0.000 N 
ATOM     11  H   UNL     1      46.889   9.174  14.007  0.00  0.00    +0.000 HD
ATOM     12  H   UNL     1      47.977   8.906  12.747  0.00  0.00    +0.000 HD
ENDBRANCH   9  10
BRANCH   4  14
ATOM     13  N   UNL     1      49.749   6.959  15.041  0.00  0.00    +0.000 NA
ATOM     14  C   UNL     1      48.811   6.654  14.430  0.00  0.00    +0.000 C 
ENDBRANCH   4  14
ENDBRANCH   1   7
BRANCH   1  15
ATOM     15  C   UNL     1      44.567   4.239  10.208  0.00  0.00    +0.000 A 
ATOM     16  C   UNL     1      44.419   2.854  10.116  0.00  0.00    +0.000 A 
ATOM     17  C   UNL     1      44.996   2.165   9.051  0.00  0.00    +0.000 A 
ATOM     18  C   UNL     1      45.700   2.861   8.078  0.00  0.00    +0.000 A 
ATOM     19  C   UNL     1      45.769   4.239   8.207  0.00  0.00    +0.000 A 
ATOM     20  N   UNL     1      45.207   4.932   9.227  0.00  0.00    +0.000 NA
BRANCH  18  21
ATOM     21  O   UNL     1      46.289   2.090   7.122  0.00  0.00    +0.000 OA
BRANCH  21  22
ATOM     22  C   UNL     1      47.110   1.035   7.594  0.00  0.00    +0.000 C 
ATOM     23  F   UNL     1      46.710  -0.127   7.024  0.00  0.00    +0.000 F 
ATOM     24  F   UNL     1      48.367   1.280   7.148  0.00  0.00    +0.000 F 
ENDBRANCH  21  22
ENDBRANCH  18  21
ENDBRANCH   1  15
TORSDOF 6
ENDMDL
MODEL 3
REMARK VINA RESULT:    -6.945      4.293      6.925
REMARK INTER + INTRA:          -9.482
REMARK INTER:                  -9.079
REMARK INTRA:                  -0.403
REMARK UNBOUND:                -0.305
REMARK  Name = 
REMARK  6 active torsions:
REMARK  status: ('A' for Active; 'I' for Inactive)
REMARK    1  A    between atoms: C_2  and  C_3
REMARK    2  A    between atoms: C_6  and  C_7
REMARK    3  A    between atoms: C_7  and  C_8
REMARK    4  A    between atoms: C_11  and  O_12
REMARK    5  A    between atoms: O_12  and  C_13
REMARK    6  A    between atoms: C_21  and  N_22
REMARK                            x       y       z     vdW  Elec       q    Type
REMARK                         _______ _______ _______ _____ _____    ______ ____
ROOT
ATOM      1  C   UNL     1      44.307   4.726  11.431  0.00  0.00    +0.000 C 
ATOM      2  C   UNL     1      43.012   4.073  11.898  0.00  0.00    +0.000 C 
ATOM      3  C   UNL     1      42.973   5.465  11.357  0.00  0.00    +0.000 C 
ENDROOT
BRANCH   1   7
ATOM      4  C   UNL     1      46.079   3.402   7.755  0.00  0.00    +0.000 A 
ATOM      5  N   UNL     1      46.033   4.736   8.012  0.00  0.00    +0.000 NA
ATOM      6  C   UNL     1      45.456   5.114   9.177  0.00  0.00    +0.000 A 
ATOM      7  C   UNL     1      44.924   4.241  10.124  0.00  0.00    +0.000 A 
ATOM      8  C   UNL     1      44.961   2.877   9.789  0.00  0.00    +0.000 A 
ATOM      9  C   UNL     1      45.512   2.422   8.580  0.00  0.00    +0.000 A 
BRANCH   9  10
ATOM     10  N   UNL     1      45.672   1.041   8.409  0.00  0.00    +0.000 N 
ATOM     11  H   UNL     1      46.519   0.760   7.926  0.00  0.00    +0.000 HD
ATOM     12  H   UNL     1      45.502   0.470   9.240  0.00  0.00    +0.000 HD
ENDBRANCH   9  10
BRANCH   4  14
ATOM     13  N   UNL     1      47.258   2.809   5.514  0.00  0.00    +0.000 NA
ATOM     14  C   UNL     1      46.741   3.050   6.525  0.00  0.00    +0.000 C 
ENDBRANCH   4  14
ENDBRANCH   1   7
BRANCH   1  15
ATOM     15  C   UNL     1      45.343   5.128  12.479  0.00  0.00    +0.000 A 
ATOM     16  C   UNL     1      46.043   6.331  12.372  0.00  0.00    +0.000 A 
ATOM     17  C   UNL     1      47.149   6.563  13.187  0.00  0.00    +0.000 A 
ATOM     18  C   UNL     1      47.540   5.604  14.112  0.00  0.00    +0.000 A 
ATOM     19  C   UNL     1      46.773   4.453  14.196  0.00  0.00    +0.000 A 
ATOM     20  N   UNL     1      45.686   4.210  13.422  0.00  0.00    +0.000 NA
BRANCH  18  21
ATOM     21  O   UNL     1      48.677   5.892  14.805  0.00  0.00    +0.000 OA
BRANCH  21  22
ATOM     22  C   UNL     1      48.901   7.262  15.088  0.00  0.00    +0.000 C 
ATOM     23  F   UNL     1      48.742   7.474  16.416  0.00  0.00    +0.000 F 
ATOM     24  F   UNL     1      50.201   7.520  14.801  0.00  0.00    +0.000 F 
ENDBRANCH  21  22
ENDBRANCH  18  21
ENDBRANCH   1  15
TORSDOF 6
ENDMDL
MODEL 4
REMARK VINA RESULT:    -6.371      3.946      6.521
REMARK INTER + INTRA:          -8.724
REMARK INTER:                  -8.543
REMARK INTRA:                  -0.181
REMARK UNBOUND:                -0.305
REMARK  Name = 
REMARK  6 active torsions:
REMARK  status: ('A' for Active; 'I' for Inactive)
REMARK    1  A    between atoms: C_2  and  C_3
REMARK    2  A    between atoms: C_6  and  C_7
REMARK    3  A    between atoms: C_7  and  C_8
REMARK    4  A    between atoms: C_11  and  O_12
REMARK    5  A    between atoms: O_12  and  C_13
REMARK    6  A    between atoms: C_21  and  N_22
REMARK                            x       y       z     vdW  Elec       q    Type
REMARK                         _______ _______ _______ _____ _____    ______ ____
ROOT
ATOM      1  C   UNL     1      44.190   5.254  11.752  0.00  0.00    +0.000 C 
ATOM      2  C   UNL     1      43.420   4.372  12.727  0.00  0.00    +0.000 C 
ATOM      3  C   UNL     1      42.676   5.378  11.911  0.00  0.00    +0.000 C 
ENDROOT
BRANCH   1   7
ATOM      4  C   UNL     1      45.725   3.494   8.153  0.00  0.00    +0.000 A 
ATOM      5  N   UNL     1      45.909   4.825   8.356  0.00  0.00    +0.000 NA
ATOM      6  C   UNL     1      45.400   5.344   9.498  0.00  0.00    +0.000 A 
ATOM      7  C   UNL     1      44.720   4.616  10.473  0.00  0.00    +0.000 A 
ATOM      8  C   UNL     1      44.522   3.254  10.192  0.00  0.00    +0.000 A 
ATOM      9  C   UNL     1      44.992   2.661   9.010  0.00  0.00    +0.000 A 
BRANCH   9  10
ATOM     10  N   UNL     1      44.912   1.268   8.895  0.00  0.00    +0.000 N 
ATOM     11  H   UNL     1      45.230   0.887   8.010  0.00  0.00    +0.000 HD
ATOM     12  H   UNL     1      45.277   0.737   9.690  0.00  0.00    +0.000 HD
ENDBRANCH   9  10
BRANCH   4  14
ATOM     13  N   UNL     1      46.844   2.600   5.982  0.00  0.00    +0.000 NA
ATOM     14  C   UNL     1      46.322   2.982   6.946  0.00  0.00    +0.000 C 
ENDBRANCH   4  14
ENDBRANCH   1   7
BRANCH   1  15
ATOM     15  C   UNL     1      45.106   6.340  12.313  0.00  0.00    +0.000 A 
ATOM     16  C   UNL     1      44.908   7.684  11.990  0.00  0.00    +0.000 A 
ATOM     17  C   UNL     1      45.889   8.623  12.302  0.00  0.00    +0.000 A 
ATOM     18  C   UNL     1      47.051   8.220  12.948  0.00  0.00    +0.000 A 
ATOM     19  C   UNL     1      47.161   6.879  13.280  0.00  0.00    +0.000 A 
ATOM     20  N   UNL     1      46.215   5.949  12.997  0.00  0.00    +0.000 NA
BRANCH  18  21
ATOM     21  O   UNL     1      47.980   9.197  13.139  0.00  0.00    +0.000 OA
BRANCH  21  22
ATOM     22  C   UNL     1      48.878   9.420  12.066  0.00  0.00    +0.000 C 
ATOM     23  F   UNL     1      48.927   8.310  11.292  0.00  0.00    +0.000 F 
ATOM     24  F   UNL     1      48.349  10.409  11.304  0.00  0.00    +0.000 F 
ENDBRANCH  21  22
ENDBRANCH  18  21
ENDBRANCH   1  15
TORSDOF 6
ENDMDL
MODEL 5
REMARK VINA RESULT:    -6.038      1.425      2.174
REMARK INTER + INTRA:          -8.284
REMARK INTER:                  -8.000
REMARK INTRA:                  -0.284
REMARK UNBOUND:                -0.305
REMARK  Name = 
REMARK  6 active torsions:
REMARK  status: ('A' for Active; 'I' for Inactive)
REMARK    1  A    between atoms: C_2  and  C_3
REMARK    2  A    between atoms: C_6  and  C_7
REMARK    3  A    between atoms: C_7  and  C_8
REMARK    4  A    between atoms: C_11  and  O_12
REMARK    5  A    between atoms: O_12  and  C_13
REMARK    6  A    between atoms: C_21  and  N_22
REMARK                            x       y       z     vdW  Elec       q    Type
REMARK                         _______ _______ _______ _____ _____    ______ ____
ROOT
ATOM      1  C   UNL     1      44.970   5.769  11.519  0.00  0.00    +0.000 C 
ATOM      2  C   UNL     1      44.444   7.176  11.260  0.00  0.00    +0.000 C 
ATOM      3  C   UNL     1      43.505   6.127  11.761  0.00  0.00    +0.000 C 
ENDROOT
BRANCH   1   7
ATOM      4  C   UNL     1      47.461   5.093  14.946  0.00  0.00    +0.000 A 
ATOM      5  N   UNL     1      46.414   4.254  14.726  0.00  0.00    +0.000 NA
ATOM      6  C   UNL     1      45.646   4.508  13.641  0.00  0.00    +0.000 A 
ATOM      7  C   UNL     1      45.858   5.548  12.738  0.00  0.00    +0.000 A 
ATOM      8  C   UNL     1      46.928   6.408  13.036  0.00  0.00    +0.000 A 
ATOM      9  C   UNL     1      47.740   6.222  14.165  0.00  0.00    +0.000 A 
BRANCH   9  10
ATOM     10  N   UNL     1      48.890   7.014  14.286  0.00  0.00    +0.000 N 
ATOM     11  H   UNL     1      49.619   6.824  13.607  0.00  0.00    +0.000 HD
ATOM     12  H   UNL     1      48.727   8.017  14.396  0.00  0.00    +0.000 HD
ENDBRANCH   9  10
BRANCH   4  14
ATOM     13  N   UNL     1      48.887   4.458  17.026  0.00  0.00    +0.000 NA
ATOM     14  C   UNL     1      48.273   4.755  16.087  0.00  0.00    +0.000 C 
ENDBRANCH   4  14
ENDBRANCH   1   7
BRANCH   1  15
ATOM     15  C   UNL     1      45.354   4.900  10.323  0.00  0.00    +0.000 A 
ATOM     16  C   UNL     1      46.078   5.429   9.254  0.00  0.00    +0.000 A 
ATOM     17  C   UNL     1      46.201   4.700   8.072  0.00  0.00    +0.000 A 
ATOM     18  C   UNL     1      45.617   3.444   7.970  0.00  0.00    +0.000 A 
ATOM     19  C   UNL     1      44.951   2.962   9.086  0.00  0.00    +0.000 A 
ATOM     20  N   UNL     1      44.828   3.647  10.249  0.00  0.00    +0.000 NA
BRANCH  18  21
ATOM     21  O   UNL     1      45.729   2.847   6.752  0.00  0.00    +0.000 OA
BRANCH  21  22
ATOM     22  C   UNL     1      46.884   2.052   6.553  0.00  0.00    +0.000 C 
ATOM     23  F   UNL     1      47.907   2.848   6.157  0.00  0.00    +0.000 F 
ATOM     24  F   UNL     1      47.228   1.540   7.760  0.00  0.00    +0.000 F 
ENDBRANCH  21  22
ENDBRANCH  18  21
ENDBRANCH   1  15
TORSDOF 6
ENDMDL
MODEL 6
REMARK VINA RESULT:    -5.575      2.210      3.505
REMARK INTER + INTRA:          -7.672
REMARK INTER:                  -8.179
REMARK INTRA:                   0.507
REMARK UNBOUND:                -0.305
REMARK  Name = 
REMARK  6 active torsions:
REMARK  status: ('A' for Active; 'I' for Inactive)
REMARK    1  A    between atoms: C_2  and  C_3
REMARK    2  A    between atoms: C_6  and  C_7
REMARK    3  A    between atoms: C_7  and  C_8
REMARK    4  A    between atoms: C_11  and  O_12
REMARK    5  A    between atoms: O_12  and  C_13
REMARK    6  A    between atoms: C_21  and  N_22
REMARK                            x       y       z     vdW  Elec       q    Type
REMARK                         _______ _______ _______ _____ _____    ______ ____
ROOT
ATOM      1  C   UNL     1      46.667   6.736  12.862  0.00  0.00    +0.000 C 
ATOM      2  C   UNL     1      47.190   8.026  12.244  0.00  0.00    +0.000 C 
ATOM      3  C   UNL     1      45.915   8.055  13.021  0.00  0.00    +0.000 C 
ENDROOT
BRANCH   1   7
ATOM      4  C   UNL     1      48.723   5.221  16.310  0.00  0.00    +0.000 A 
ATOM      5  N   UNL     1      49.248   6.291  15.658  0.00  0.00    +0.000 NA
ATOM      6  C   UNL     1      48.576   6.732  14.568  0.00  0.00    +0.000 A 
ATOM      7  C   UNL     1      47.391   6.179  14.083  0.00  0.00    +0.000 A 
ATOM      8  C   UNL     1      46.916   5.051  14.771  0.00  0.00    +0.000 A 
ATOM      9  C   UNL     1      47.585   4.521  15.886  0.00  0.00    +0.000 A 
BRANCH   9  10
ATOM     10  N   UNL     1      46.947   3.512  16.617  0.00  0.00    +0.000 N 
ATOM     11  H   UNL     1      47.247   2.566  16.403  0.00  0.00    +0.000 HD
ATOM     12  H   UNL     1      46.883   3.670  17.626  0.00  0.00    +0.000 HD
ENDBRANCH   9  10
BRANCH   4  14
ATOM     13  N   UNL     1      50.051   4.453  18.410  0.00  0.00    +0.000 NA
ATOM     14  C   UNL     1      49.450   4.819  17.487  0.00  0.00    +0.000 C 
ENDBRANCH   4  14
ENDBRANCH   1   7
BRANCH   1  15
ATOM     15  C   UNL     1      46.116   5.652  11.938  0.00  0.00    +0.000 A 
ATOM     16  C   UNL     1      46.016   5.864  10.562  0.00  0.00    +0.000 A 
ATOM     17  C   UNL     1      45.288   4.974   9.774  0.00  0.00    +0.000 A 
ATOM     18  C   UNL     1      44.680   3.871  10.359  0.00  0.00    +0.000 A 
ATOM     19  C   UNL     1      44.858   3.697  11.723  0.00  0.00    +0.000 A 
ATOM     20  N   UNL     1      45.571   4.543  12.507  0.00  0.00    +0.000 NA
BRANCH  18  21
ATOM     21  O   UNL     1      43.930   3.106   9.520  0.00  0.00    +0.000 OA
BRANCH  21  22
ATOM     22  C   UNL     1      44.649   2.245   8.654  0.00  0.00    +0.000 C 
ATOM     23  F   UNL     1      45.037   2.941   7.558  0.00  0.00    +0.000 F 
ATOM     24  F   UNL     1      45.778   1.877   9.307  0.00  0.00    +0.000 F 
ENDBRANCH  21  22
ENDBRANCH  18  21
ENDBRANCH   1  15
TORSDOF 6
ENDMDL
MODEL 7
REMARK VINA RESULT:    -5.547      5.325      7.380
REMARK INTER + INTRA:          -7.636
REMARK INTER:                  -7.593
REMARK INTRA:                  -0.043
REMARK UNBOUND:                -0.305
REMARK  Name = 
REMARK  6 active torsions:
REMARK  status: ('A' for Active; 'I' for Inactive)
REMARK    1  A    between atoms: C_2  and  C_3
REMARK    2  A    between atoms: C_6  and  C_7
REMARK    3  A    between atoms: C_7  and  C_8
REMARK    4  A    between atoms: C_11  and  O_12
REMARK    5  A    between atoms: O_12  and  C_13
REMARK    6  A    between atoms: C_21  and  N_22
REMARK                            x       y       z     vdW  Elec       q    Type
REMARK                         _______ _______ _______ _____ _____    ______ ____
ROOT
ATOM      1  C   UNL     1      48.166   7.573  12.550  0.00  0.00    +0.000 C 
ATOM      2  C   UNL     1      49.457   8.375  12.671  0.00  0.00    +0.000 C 
ATOM      3  C   UNL     1      49.249   7.502  11.476  0.00  0.00    +0.000 C 
ENDROOT
BRANCH   1   7
ATOM      4  C   UNL     1      44.585   9.733  11.593  0.00  0.00    +0.000 A 
ATOM      5  N   UNL     1      45.683  10.434  11.982  0.00  0.00    +0.000 NA
ATOM      6  C   UNL     1      46.789   9.715  12.286  0.00  0.00    +0.000 A 
ATOM      7  C   UNL     1      46.883   8.326  12.217  0.00  0.00    +0.000 A 
ATOM      8  C   UNL     1      45.707   7.651  11.849  0.00  0.00    +0.000 A 
ATOM      9  C   UNL     1      44.516   8.334  11.557  0.00  0.00    +0.000 A 
BRANCH   9  10
ATOM     10  N   UNL     1      43.450   7.599  11.025  0.00  0.00    +0.000 N 
ATOM     11  H   UNL     1      43.527   6.592  11.120  0.00  0.00    +0.000 HD
ATOM     12  H   UNL     1      42.515   7.932  11.274  0.00  0.00    +0.000 HD
ENDBRANCH   9  10
BRANCH   4  14
ATOM     13  N   UNL     1      42.504  11.158  10.960  0.00  0.00    +0.000 NA
ATOM     14  C   UNL     1      43.449  10.545  11.239  0.00  0.00    +0.000 C 
ENDBRANCH   4  14
ENDBRANCH   1   7
BRANCH   1  15
ATOM     15  C   UNL     1      47.948   6.390  13.491  0.00  0.00    +0.000 A 
ATOM     16  C   UNL     1      47.071   5.358  13.156  0.00  0.00    +0.000 A 
ATOM     17  C   UNL     1      46.696   4.425  14.122  0.00  0.00    +0.000 A 
ATOM     18  C   UNL     1      47.212   4.518  15.408  0.00  0.00    +0.000 A 
ATOM     19  C   UNL     1      48.113   5.540  15.659  0.00  0.00    +0.000 A 
ATOM     20  N   UNL     1      48.501   6.452  14.733  0.00  0.00    +0.000 NA
BRANCH  18  21
ATOM     21  O   UNL     1      46.726   3.607  16.297  0.00  0.00    +0.000 OA
BRANCH  21  22
ATOM     22  C   UNL     1      47.671   3.051  17.194  0.00  0.00    +0.000 C 
ATOM     23  F   UNL     1      47.032   2.217  18.050  0.00  0.00    +0.000 F 
ATOM     24  F   UNL     1      48.517   2.288  16.459  0.00  0.00    +0.000 F 
ENDBRANCH  21  22
ENDBRANCH  18  21
ENDBRANCH   1  15
TORSDOF 6
ENDMDL
MODEL 8
REMARK VINA RESULT:    -5.501      1.838      3.100
REMARK INTER + INTRA:          -7.574
REMARK INTER:                  -8.171
REMARK INTRA:                   0.596
REMARK UNBOUND:                -0.305
REMARK  Name = 
REMARK  6 active torsions:
REMARK  status: ('A' for Active; 'I' for Inactive)
REMARK    1  A    between atoms: C_2  and  C_3
REMARK    2  A    between atoms: C_6  and  C_7
REMARK    3  A    between atoms: C_7  and  C_8
REMARK    4  A    between atoms: C_11  and  O_12
REMARK    5  A    between atoms: O_12  and  C_13
REMARK    6  A    between atoms: C_21  and  N_22
REMARK                            x       y       z     vdW  Elec       q    Type
REMARK                         _______ _______ _______ _____ _____    ______ ____
ROOT
ATOM      1  C   UNL     1      46.268   6.606  12.541  0.00  0.00    +0.000 C 
ATOM      2  C   UNL     1      46.960   7.876  12.064  0.00  0.00    +0.000 C 
ATOM      3  C   UNL     1      45.635   7.981  12.745  0.00  0.00    +0.000 C 
ENDROOT
BRANCH   1   7
ATOM      4  C   UNL     1      47.852   4.560  15.963  0.00  0.00    +0.000 A 
ATOM      5  N   UNL     1      46.806   4.003  15.299  0.00  0.00    +0.000 NA
ATOM      6  C   UNL     1      46.327   4.685  14.232  0.00  0.00    +0.000 A 
ATOM      7  C   UNL     1      46.835   5.896  13.765  0.00  0.00    +0.000 A 
ATOM      8  C   UNL     1      47.889   6.447  14.513  0.00  0.00    +0.000 A 
ATOM      9  C   UNL     1      48.407   5.809  15.651  0.00  0.00    +0.000 A 
BRANCH   9  10
ATOM     10  N   UNL     1      49.571   6.334  16.227  0.00  0.00    +0.000 N 
ATOM     11  H   UNL     1      49.487   7.276  16.592  0.00  0.00    +0.000 HD
ATOM     12  H   UNL     1      50.058   5.716  16.881  0.00  0.00    +0.000 HD
ENDBRANCH   9  10
BRANCH   4  14
ATOM     13  N   UNL     1      48.710   3.148  17.972  0.00  0.00    +0.000 NA
ATOM     14  C   UNL     1      48.353   3.776  17.063  0.00  0.00    +0.000 C 
ENDBRANCH   4  14
ENDBRANCH   1   7
BRANCH   1  15
ATOM     15  C   UNL     1      45.692   5.649  11.498  0.00  0.00    +0.000 A 
ATOM     16  C   UNL     1      45.077   4.456  11.880  0.00  0.00    +0.000 A 
ATOM     17  C   UNL     1      44.786   3.488  10.920  0.00  0.00    +0.000 A 
ATOM     18  C   UNL     1      45.093   3.724   9.586  0.00  0.00    +0.000 A 
ATOM     19  C   UNL     1      45.661   4.948   9.272  0.00  0.00    +0.000 A 
ATOM     20  N   UNL     1      45.942   5.909  10.186  0.00  0.00    +0.000 NA
BRANCH  18  21
ATOM     21  O   UNL     1      44.841   2.688   8.739  0.00  0.00    +0.000 OA
BRANCH  21  22
ATOM     22  C   UNL     1      45.963   1.917   8.348  0.00  0.00    +0.000 C 
ATOM     23  F   UNL     1      45.623   0.606   8.350  0.00  0.00    +0.000 F 
ATOM     24  F   UNL     1      46.247   2.249   7.064  0.00  0.00    +0.000 F 
ENDBRANCH  21  22
ENDBRANCH  18  21
ENDBRANCH   1  15
TORSDOF 6
ENDMDL
MODEL 9
REMARK VINA RESULT:    -5.421      5.777      8.588
REMARK INTER + INTRA:          -7.469
REMARK INTER:                  -7.378
REMARK INTRA:                  -0.091
REMARK UNBOUND:                -0.305
REMARK  Name = 
REMARK  6 active torsions:
REMARK  status: ('A' for Active; 'I' for Inactive)
REMARK    1  A    between atoms: C_2  and  C_3
REMARK    2  A    between atoms: C_6  and  C_7
REMARK    3  A    between atoms: C_7  and  C_8
REMARK    4  A    between atoms: C_11  and  O_12
REMARK    5  A    between atoms: O_12  and  C_13
REMARK    6  A    between atoms: C_21  and  N_22
REMARK                            x       y       z     vdW  Elec       q    Type
REMARK                         _______ _______ _______ _____ _____    ______ ____
ROOT
ATOM      1  C   UNL     1      48.098   7.020  12.899  0.00  0.00    +0.000 C 
ATOM      2  C   UNL     1      48.339   8.146  11.902  0.00  0.00    +0.000 C 
ATOM      3  C   UNL     1      49.327   7.029  11.994  0.00  0.00    +0.000 C 
ENDROOT
BRANCH   1   7
ATOM      4  C   UNL     1      44.987   4.179  12.085  0.00  0.00    +0.000 A 
ATOM      5  N   UNL     1      45.738   4.018  13.206  0.00  0.00    +0.000 NA
ATOM      6  C   UNL     1      46.716   4.929  13.421  0.00  0.00    +0.000 A 
ATOM      7  C   UNL     1      46.995   6.013  12.591  0.00  0.00    +0.000 A 
ATOM      8  C   UNL     1      46.216   6.107  11.426  0.00  0.00    +0.000 A 
ATOM      9  C   UNL     1      45.211   5.175  11.125  0.00  0.00    +0.000 A 
BRANCH   9  10
ATOM     10  N   UNL     1      44.365   5.446  10.041  0.00  0.00    +0.000 N 
ATOM     11  H   UNL     1      44.352   6.413   9.733  0.00  0.00    +0.000 HD
ATOM     12  H   UNL     1      44.435   4.798   9.253  0.00  0.00    +0.000 HD
ENDBRANCH   9  10
BRANCH   4  14
ATOM     13  N   UNL     1      43.102   2.419  11.750  0.00  0.00    +0.000 NA
ATOM     14  C   UNL     1      43.932   3.211  11.924  0.00  0.00    +0.000 C 
ENDBRANCH   4  14
ENDBRANCH   1   7
BRANCH   1  15
ATOM     15  C   UNL     1      48.248   7.317  14.390  0.00  0.00    +0.000 A 
ATOM     16  C   UNL     1      47.965   8.585  14.901  0.00  0.00    +0.000 A 
ATOM     17  C   UNL     1      48.342   8.907  16.203  0.00  0.00    +0.000 A 
ATOM     18  C   UNL     1      48.983   7.960  16.991  0.00  0.00    +0.000 A 
ATOM     19  C   UNL     1      49.192   6.708  16.436  0.00  0.00    +0.000 A 
ATOM     20  N   UNL     1      48.823   6.368  15.176  0.00  0.00    +0.000 NA
BRANCH  18  21
ATOM     21  O   UNL     1      49.379   8.396  18.219  0.00  0.00    +0.000 OA
BRANCH  21  22
ATOM     22  C   UNL     1      48.601   7.952  19.317  0.00  0.00    +0.000 C 
ATOM     23  F   UNL     1      47.324   7.762  18.907  0.00  0.00    +0.000 F 
ATOM     24  F   UNL     1      49.083   6.739  19.682  0.00  0.00    +0.000 F 
ENDBRANCH  21  22
ENDBRANCH  18  21
ENDBRANCH   1  15
TORSDOF 6
ENDMDL
