MODEL 1
REMARK VINA RESULT:    -9.283      0.000      0.000
REMARK INTER + INTRA:         -13.474
REMARK INTER:                 -12.540
REMARK INTRA:                  -0.934
REMARK UNBOUND:                -0.934
REMARK  Name = 
REMARK  6 active torsions:
REMARK  status: ('A' for Active; 'I' for Inactive)
REMARK    1  A    between atoms: C_2  and  C_25
REMARK    2  A    between atoms: N_3  and  C_4
REMARK    3  A    between atoms: C_4  and  C_5
REMARK    4  A    between atoms: C_8  and  C_9
REMARK    5  A    between atoms: C_9  and  N_10
REMARK    6  A    between atoms: C_11  and  C_13
REMARK                            x       y       z     vdW  Elec       q    Type
REMARK                         _______ _______ _______ _____ _____    ______ ____
ROOT
ATOM      1  C   UNL     1      43.127   4.169  11.626  0.00  0.00    +0.000 C 
ATOM      2  C   UNL     1      43.147   4.930  12.955  0.00  0.00    +0.000 C 
ATOM      3  C   UNL     1      44.512   5.543  13.252  0.00  0.00    +0.000 C 
ATOM      4  C   UNL     1      44.996   6.476  12.132  0.00  0.00    +0.000 C 
ATOM      5  C   UNL     1      44.871   5.830  10.741  0.00  0.00    +0.000 C 
ATOM      6  C   UNL     1      43.532   5.133  10.499  0.00  0.00    +0.000 C 
ENDROOT
BRANCH   1   7
ATOM      7  C   UNL     1      43.998   2.896  11.642  0.00  0.00    +0.000 C 
BRANCH   7  10
ATOM      8  O   UNL     1      43.745   1.330   9.221  0.00  0.00    +0.000 OA
ATOM      9  C   UNL     1      44.707   2.070   9.392  0.00  0.00    +0.000 C 
ATOM     10  N   UNL     1      44.912   2.842  10.518  0.00  0.00    +0.000 N 
ATOM     11  H   UNL     1      45.744   3.427  10.507  0.00  0.00    +0.000 HD
BRANCH   9  12
ATOM     12  C   UNL     1      45.773   2.203   8.346  0.00  0.00    +0.000 A 
ATOM     13  C   UNL     1      45.949   3.416   7.690  0.00  0.00    +0.000 A 
ATOM     14  C   UNL     1      46.923   3.491   6.699  0.00  0.00    +0.000 A 
ATOM     15  C   UNL     1      47.678   2.360   6.400  0.00  0.00    +0.000 A 
ATOM     16  C   UNL     1      47.440   1.196   7.117  0.00  0.00    +0.000 A 
ATOM     17  N   UNL     1      46.511   1.086   8.091  0.00  0.00    +0.000 NA
ENDBRANCH   9  12
ENDBRANCH   7  10
ENDBRANCH   1   7
BRANCH   4  18
ATOM     18  C   UNL     1      46.456   6.918  12.354  0.00  0.00    +0.000 C 
BRANCH  18  19
ATOM     19  N   UNL     1      46.909   6.653  13.702  0.00  0.00    +0.000 N 
ATOM     20  C   UNL     1      48.238   6.503  14.012  0.00  0.00    +0.000 C 
ATOM     21  O   UNL     1      49.132   6.655  13.185  0.00  0.00    +0.000 OA
ATOM     22  H   UNL     1      46.237   6.204  14.318  0.00  0.00    +0.000 HD
BRANCH  20  23
ATOM     23  C   UNL     1      48.540   6.236  15.423  0.00  0.00    +0.000 A 
ATOM     24  C   UNL     1      49.293   7.147  16.147  0.00  0.00    +0.000 A 
ATOM     25  S   UNL     1      49.501   6.718  17.783  0.00  0.00    +0.000 S 
ATOM     26  C   UNL     1      48.633   5.268  17.569  0.00  0.00    +0.000 A 
ATOM     27  N   UNL     1      48.454   4.401  18.600  0.00  0.00    +0.000 NA
ATOM     28  C   UNL     1      47.802   3.331  18.291  0.00  0.00    +0.000 A 
ATOM     29  N   UNL     1      47.312   3.049  17.042  0.00  0.00    +0.000 N 
ATOM     30  C   UNL     1      47.449   3.907  15.976  0.00  0.00    +0.000 A 
ATOM     31  O   UNL     1      46.960   3.648  14.880  0.00  0.00    +0.000 OA
ATOM     32  C   UNL     1      48.180   5.123  16.271  0.00  0.00    +0.000 A 
ATOM     33  H   UNL     1      46.804   2.196  16.865  0.00  0.00    +0.000 HD
ENDBRANCH  20  23
ENDBRANCH  18  19
ENDBRANCH   4  18
TORSDOF 6
ENDMDL
MODEL 2
REMARK VINA RESULT:    -8.923      1.630      2.136
REMARK INTER + INTRA:         -12.987
REMARK INTER:                 -12.134
REMARK INTRA:                  -0.854
REMARK UNBOUND:                -0.934
REMARK  Name = 
REMARK  6 active torsions:
REMARK  status: ('A' for Active; 'I' for Inactive)
REMARK    1  A    between atoms: C_2  and  C_25
REMARK    2  A    between atoms: N_3  and  C_4
REMARK    3  A    between atoms: C_4  and  C_5
REMARK    4  A    between atoms: C_8  and  C_9
REMARK    5  A    between atoms: C_9  and  N_10
REMARK    6  A    between atoms: C_11  and  C_13
REMARK                            x       y       z     vdW  Elec       q    Type
REMARK                         _______ _______ _______ _____ _____    ______ ____
ROOT
ATOM      1  C   UNL     1      43.104   4.131  11.642  0.00  0.00    +0.000 C 
ATOM      2  C   UNL     1      44.056   2.981  11.983  0.00  0.00    +0.000 C 
ATOM      3  C   UNL     1      45.483   3.463  12.230  0.00  0.00    +0.000 C 
ATOM      4  C   UNL     1      45.563   4.526  13.336  0.00  0.00    +0.000 C 
ATOM      5  C   UNL     1      44.531   5.650  13.139  0.00  0.00    +0.000 C 
ATOM      6  C   UNL     1      43.128   5.149  12.793  0.00  0.00    +0.000 C 
ENDROOT
BRANCH   1   7
ATOM      7  C   UNL     1      43.407   4.788  10.279  0.00  0.00    +0.000 C 
BRANCH   7  10
ATOM      8  O   UNL     1      45.793   5.451   8.781  0.00  0.00    +0.000 OA
ATOM      9  C   UNL     1      45.321   4.321   8.740  0.00  0.00    +0.000 C 
ATOM     10  N   UNL     1      44.183   3.922   9.413  0.00  0.00    +0.000 N 
ATOM     11  H   UNL     1      43.926   2.944   9.304  0.00  0.00    +0.000 HD
BRANCH   9  12
ATOM     12  C   UNL     1      45.973   3.242   7.930  0.00  0.00    +0.000 A 
ATOM     13  C   UNL     1      46.015   1.941   8.420  0.00  0.00    +0.000 A 
ATOM     14  C   UNL     1      46.662   0.974   7.657  0.00  0.00    +0.000 A 
ATOM     15  C   UNL     1      47.241   1.338   6.445  0.00  0.00    +0.000 A 
ATOM     16  C   UNL     1      47.137   2.658   6.030  0.00  0.00    +0.000 A 
ATOM     17  N   UNL     1      46.510   3.624   6.737  0.00  0.00    +0.000 NA
ENDBRANCH   9  12
ENDBRANCH   7  10
ENDBRANCH   1   7
BRANCH   4  18
ATOM     18  C   UNL     1      46.972   5.145  13.424  0.00  0.00    +0.000 C 
BRANCH  18  19
ATOM     19  N   UNL     1      47.332   5.494  14.781  0.00  0.00    +0.000 N 
ATOM     20  C   UNL     1      48.469   6.203  15.079  0.00  0.00    +0.000 C 
ATOM     21  O   UNL     1      49.216   6.650  14.214  0.00  0.00    +0.000 OA
ATOM     22  H   UNL     1      46.958   4.893  15.511  0.00  0.00    +0.000 HD
BRANCH  20  23
ATOM     23  C   UNL     1      48.699   6.478  16.502  0.00  0.00    +0.000 A 
ATOM     24  C   UNL     1      48.827   7.788  16.935  0.00  0.00    +0.000 A 
ATOM     25  S   UNL     1      49.027   7.937  18.621  0.00  0.00    +0.000 S 
ATOM     26  C   UNL     1      49.002   6.246  18.827  0.00  0.00    +0.000 A 
ATOM     27  N   UNL     1      49.148   5.689  20.058  0.00  0.00    +0.000 NA
ATOM     28  C   UNL     1      49.136   4.399  20.065  0.00  0.00    +0.000 A 
ATOM     29  N   UNL     1      48.991   3.613  18.951  0.00  0.00    +0.000 N 
ATOM     30  C   UNL     1      48.817   4.133  17.689  0.00  0.00    +0.000 A 
ATOM     31  O   UNL     1      48.643   3.406  16.716  0.00  0.00    +0.000 OA
ATOM     32  C   UNL     1      48.828   5.581  17.627  0.00  0.00    +0.000 A 
ATOM     33  H   UNL     1      48.984   2.607  19.022  0.00  0.00    +0.000 HD
ENDBRANCH  20  23
ENDBRANCH  18  19
ENDBRANCH   4  18
TORSDOF 6
ENDMDL
MODEL 3
REMARK VINA RESULT:    -8.886      1.846      2.868
REMARK INTER + INTRA:         -12.937
REMARK INTER:                 -12.228
REMARK INTRA:                  -0.709
REMARK UNBOUND:                -0.934
REMARK  Name = 
REMARK  6 active torsions:
REMARK  status: ('A' for Active; 'I' for Inactive)
REMARK    1  A    between atoms: C_2  and  C_25
REMARK    2  A    between atoms: N_3  and  C_4
REMARK    3  A    between atoms: C_4  and  C_5
REMARK    4  A    between atoms: C_8  and  C_9
REMARK    5  A    between atoms: C_9  and  N_10
REMARK    6  A    between atoms: C_11  and  C_13
REMARK                            x       y       z     vdW  Elec       q    Type
REMARK                         _______ _______ _______ _____ _____    ______ ____
ROOT
ATOM      1  C   UNL     1      43.027   4.243  11.647  0.00  0.00    +0.000 C 
ATOM      2  C   UNL     1      43.862   3.016  12.028  0.00  0.00    +0.000 C 
ATOM      3  C   UNL     1      45.327   3.365  12.273  0.00  0.00    +0.000 C 
ATOM      4  C   UNL     1      45.505   4.447  13.349  0.00  0.00    +0.000 C 
ATOM      5  C   UNL     1      44.587   5.659  13.112  0.00  0.00    +0.000 C 
ATOM      6  C   UNL     1      43.144   5.287  12.770  0.00  0.00    +0.000 C 
ENDROOT
BRANCH   1   7
ATOM      7  C   UNL     1      43.400   4.828  10.269  0.00  0.00    +0.000 C 
BRANCH   7  10
ATOM      8  O   UNL     1      45.799   5.407   8.757  0.00  0.00    +0.000 OA
ATOM      9  C   UNL     1      45.341   4.272   8.795  0.00  0.00    +0.000 C 
ATOM     10  N   UNL     1      44.199   3.910   9.480  0.00  0.00    +0.000 N 
ATOM     11  H   UNL     1      43.954   2.924   9.442  0.00  0.00    +0.000 HD
BRANCH   9  12
ATOM     12  C   UNL     1      46.017   3.143   8.077  0.00  0.00    +0.000 A 
ATOM     13  C   UNL     1      46.754   3.400   6.926  0.00  0.00    +0.000 A 
ATOM     14  C   UNL     1      47.336   2.322   6.266  0.00  0.00    +0.000 A 
ATOM     15  C   UNL     1      47.159   1.038   6.772  0.00  0.00    +0.000 A 
ATOM     16  C   UNL     1      46.417   0.879   7.933  0.00  0.00    +0.000 A 
ATOM     17  N   UNL     1      45.845   1.900   8.608  0.00  0.00    +0.000 NA
ENDBRANCH   9  12
ENDBRANCH   7  10
ENDBRANCH   1   7
BRANCH   4  18
ATOM     18  C   UNL     1      46.966   4.929  13.432  0.00  0.00    +0.000 C 
BRANCH  18  19
ATOM     19  N   UNL     1      47.315   5.393  14.757  0.00  0.00    +0.000 N 
ATOM     20  C   UNL     1      47.616   4.530  15.780  0.00  0.00    +0.000 C 
ATOM     21  O   UNL     1      47.680   3.314  15.625  0.00  0.00    +0.000 OA
ATOM     22  H   UNL     1      46.964   6.311  15.015  0.00  0.00    +0.000 HD
BRANCH  20  23
ATOM     23  C   UNL     1      47.949   5.152  17.067  0.00  0.00    +0.000 A 
ATOM     24  C   UNL     1      47.232   4.806  18.202  0.00  0.00    +0.000 A 
ATOM     25  S   UNL     1      47.784   5.571  19.621  0.00  0.00    +0.000 S 
ATOM     26  C   UNL     1      48.972   6.435  18.758  0.00  0.00    +0.000 A 
ATOM     27  N   UNL     1      49.799   7.309  19.389  0.00  0.00    +0.000 NA
ATOM     28  C   UNL     1      50.632   7.914  18.612  0.00  0.00    +0.000 A 
ATOM     29  N   UNL     1      50.714   7.723  17.256  0.00  0.00    +0.000 N 
ATOM     30  C   UNL     1      49.913   6.833  16.579  0.00  0.00    +0.000 A 
ATOM     31  O   UNL     1      50.039   6.650  15.371  0.00  0.00    +0.000 OA
ATOM     32  C   UNL     1      48.955   6.131  17.409  0.00  0.00    +0.000 A 
ATOM     33  H   UNL     1      51.392   8.223  16.702  0.00  0.00    +0.000 HD
ENDBRANCH  20  23
ENDBRANCH  18  19
ENDBRANCH   4  18
TORSDOF 6
ENDMDL
MODEL 4
REMARK VINA RESULT:    -7.773      2.158      2.728
REMARK INTER + INTRA:         -11.434
REMARK INTER:                 -10.268
REMARK INTRA:                  -1.166
REMARK UNBOUND:                -0.934
REMARK  Name = 
REMARK  6 active torsions:
REMARK  status: ('A' for Active; 'I' for Inactive)
REMARK    1  A    between atoms: C_2  and  C_25
REMARK    2  A    between atoms: N_3  and  C_4
REMARK    3  A    between atoms: C_4  and  C_5
REMARK    4  A    between atoms: C_8  and  C_9
REMARK    5  A    between atoms: C_9  and  N_10
REMARK    6  A    between atoms: C_11  and  C_13
REMARK                            x       y       z     vdW  Elec       q    Type
REMARK                         _______ _______ _______ _____ _____    ______ ____
ROOT
ATOM      1  C   UNL     1      43.866   3.772  11.942  0.00  0.00    +0.000 C 
ATOM      2  C   UNL     1      45.363   3.816  12.262  0.00  0.00    +0.000 C 
ATOM      3  C   UNL     1      45.937   5.226  12.157  0.00  0.00    +0.000 C 
ATOM      4  C   UNL     1      45.202   6.231  13.056  0.00  0.00    +0.000 C 
ATOM      5  C   UNL     1      43.674   6.147  12.896  0.00  0.00    +0.000 C 
ATOM      6  C   UNL     1      43.128   4.718  12.904  0.00  0.00    +0.000 C 
ENDROOT
BRANCH   1   7
ATOM      7  C   UNL     1      43.549   4.084  10.465  0.00  0.00    +0.000 C 
BRANCH   7  10
ATOM      8  O   UNL     1      45.511   5.106   8.599  0.00  0.00    +0.000 OA
ATOM      9  C   UNL     1      45.309   3.901   8.699  0.00  0.00    +0.000 C 
ATOM     10  N   UNL     1      44.387   3.330   9.553  0.00  0.00    +0.000 N 
ATOM     11  H   UNL     1      44.348   2.314   9.545  0.00  0.00    +0.000 HD
BRANCH   9  12
ATOM     12  C   UNL     1      46.084   2.918   7.874  0.00  0.00    +0.000 A 
ATOM     13  C   UNL     1      46.656   3.324   6.674  0.00  0.00    +0.000 A 
ATOM     14  C   UNL     1      47.335   2.374   5.917  0.00  0.00    +0.000 A 
ATOM     15  C   UNL     1      47.414   1.064   6.381  0.00  0.00    +0.000 A 
ATOM     16  C   UNL     1      46.823   0.754   7.597  0.00  0.00    +0.000 A 
ATOM     17  N   UNL     1      46.164   1.649   8.365  0.00  0.00    +0.000 NA
ENDBRANCH   9  12
ENDBRANCH   7  10
ENDBRANCH   1   7
BRANCH   4  18
ATOM     18  C   UNL     1      45.659   7.677  12.781  0.00  0.00    +0.000 C 
BRANCH  18  19
ATOM     19  N   UNL     1      46.786   8.061  13.602  0.00  0.00    +0.000 N 
ATOM     20  C   UNL     1      48.058   8.166  13.098  0.00  0.00    +0.000 C 
ATOM     21  O   UNL     1      48.314   8.012  11.907  0.00  0.00    +0.000 OA
ATOM     22  H   UNL     1      46.697   7.874  14.598  0.00  0.00    +0.000 HD
BRANCH  20  23
ATOM     23  C   UNL     1      49.096   8.564  14.056  0.00  0.00    +0.000 A 
ATOM     24  C   UNL     1      49.745   9.779  13.899  0.00  0.00    +0.000 A 
ATOM     25  S   UNL     1      50.876  10.117  15.128  0.00  0.00    +0.000 S 
ATOM     26  C   UNL     1      50.576   8.623  15.890  0.00  0.00    +0.000 A 
ATOM     27  N   UNL     1      51.245   8.264  17.015  0.00  0.00    +0.000 NA
ATOM     28  C   UNL     1      50.940   7.096  17.470  0.00  0.00    +0.000 A 
ATOM     29  N   UNL     1      50.021   6.252  16.901  0.00  0.00    +0.000 N 
ATOM     30  C   UNL     1      49.303   6.583  15.775  0.00  0.00    +0.000 A 
ATOM     31  O   UNL     1      48.454   5.826  15.313  0.00  0.00    +0.000 OA
ATOM     32  C   UNL     1      49.615   7.885  15.221  0.00  0.00    +0.000 A 
ATOM     33  H   UNL     1      49.821   5.352  17.308  0.00  0.00    +0.000 HD
ENDBRANCH  20  23
ENDBRANCH  18  19
ENDBRANCH   4  18
TORSDOF 6
ENDMDL
MODEL 5
REMARK VINA RESULT:    -7.361      4.205      9.131
REMARK INTER + INTRA:         -10.878
REMARK INTER:                  -9.947
REMARK INTRA:                  -0.931
REMARK UNBOUND:                -0.934
REMARK  Name = 
REMARK  6 active torsions:
REMARK  status: ('A' for Active; 'I' for Inactive)
REMARK    1  A    between atoms: C_2  and  C_25
REMARK    2  A    between atoms: N_3  and  C_4
REMARK    3  A    between atoms: C_4  and  C_5
REMARK    4  A    between atoms: C_8  and  C_9
REMARK    5  A    between atoms: C_9  and  N_10
REMARK    6  A    between atoms: C_11  and  C_13
REMARK                            x       y       z     vdW  Elec       q    Type
REMARK                         _______ _______ _______ _____ _____    ______ ____
ROOT
ATOM      1  C   UNL     1      49.453   3.130  18.223  0.00  0.00    +0.000 C 
ATOM      2  C   UNL     1      50.031   4.483  18.650  0.00  0.00    +0.000 C 
ATOM      3  C   UNL     1      50.047   5.493  17.507  0.00  0.00    +0.000 C 
ATOM      4  C   UNL     1      48.656   5.712  16.893  0.00  0.00    +0.000 C 
ATOM      5  C   UNL     1      47.948   4.385  16.567  0.00  0.00    +0.000 C 
ATOM      6  C   UNL     1      48.029   3.348  17.688  0.00  0.00    +0.000 C 
ENDROOT
BRANCH   1   7
ATOM      7  C   UNL     1      50.345   2.380  17.212  0.00  0.00    +0.000 C 
BRANCH   7  10
ATOM      8  O   UNL     1      53.021   3.455  17.462  0.00  0.00    +0.000 OA
ATOM      9  C   UNL     1      52.740   2.357  17.928  0.00  0.00    +0.000 C 
ATOM     10  N   UNL     1      51.496   1.765  17.845  0.00  0.00    +0.000 N 
ATOM     11  H   UNL     1      51.405   0.861  18.302  0.00  0.00    +0.000 HD
BRANCH   9  12
ATOM     12  C   UNL     1      53.766   1.544  18.658  0.00  0.00    +0.000 A 
ATOM     13  C   UNL     1      54.090   0.271  18.203  0.00  0.00    +0.000 A 
ATOM     14  C   UNL     1      55.019  -0.469  18.928  0.00  0.00    +0.000 A 
ATOM     15  C   UNL     1      55.584   0.084  20.074  0.00  0.00    +0.000 A 
ATOM     16  C   UNL     1      55.209   1.367  20.445  0.00  0.00    +0.000 A 
ATOM     17  N   UNL     1      54.319   2.121  19.763  0.00  0.00    +0.000 NA
ENDBRANCH   9  12
ENDBRANCH   7  10
ENDBRANCH   1   7
BRANCH   4  18
ATOM     18  C   UNL     1      48.729   6.571  15.616  0.00  0.00    +0.000 C 
BRANCH  18  19
ATOM     19  N   UNL     1      47.550   6.427  14.790  0.00  0.00    +0.000 N 
ATOM     20  C   UNL     1      47.624   6.148  13.449  0.00  0.00    +0.000 C 
ATOM     21  O   UNL     1      48.687   5.930  12.874  0.00  0.00    +0.000 OA
ATOM     22  H   UNL     1      46.715   6.907  15.117  0.00  0.00    +0.000 HD
BRANCH  20  23
ATOM     23  C   UNL     1      46.340   6.034  12.746  0.00  0.00    +0.000 A 
ATOM     24  C   UNL     1      45.731   7.172  12.241  0.00  0.00    +0.000 A 
ATOM     25  S   UNL     1      44.282   6.860  11.402  0.00  0.00    +0.000 S 
ATOM     26  C   UNL     1      44.389   5.191  11.728  0.00  0.00    +0.000 A 
ATOM     27  N   UNL     1      43.430   4.331  11.298  0.00  0.00    +0.000 NA
ATOM     28  C   UNL     1      43.623   3.102  11.638  0.00  0.00    +0.000 A 
ATOM     29  N   UNL     1      44.692   2.653  12.371  0.00  0.00    +0.000 N 
ATOM     30  C   UNL     1      45.697   3.483  12.808  0.00  0.00    +0.000 A 
ATOM     31  O   UNL     1      46.665   3.047  13.424  0.00  0.00    +0.000 OA
ATOM     32  C   UNL     1      45.523   4.879  12.455  0.00  0.00    +0.000 A 
ATOM     33  H   UNL     1      44.790   1.676  12.601  0.00  0.00    +0.000 HD
ENDBRANCH  20  23
ENDBRANCH  18  19
ENDBRANCH   4  18
TORSDOF 6
ENDMDL
MODEL 6
REMARK VINA RESULT:    -7.197      3.764      7.824
REMARK INTER + INTRA:         -10.656
REMARK INTER:                  -9.371
REMARK INTRA:                  -1.285
REMARK UNBOUND:                -0.934
REMARK  Name = 
REMARK  6 active torsions:
REMARK  status: ('A' for Active; 'I' for Inactive)
REMARK    1  A    between atoms: C_2  and  C_25
REMARK    2  A    between atoms: N_3  and  C_4
REMARK    3  A    between atoms: C_4  and  C_5
REMARK    4  A    between atoms: C_8  and  C_9
REMARK    5  A    between atoms: C_9  and  N_10
REMARK    6  A    between atoms: C_11  and  C_13
REMARK                            x       y       z     vdW  Elec       q    Type
REMARK                         _______ _______ _______ _____ _____    ______ ____
ROOT
ATOM      1  C   UNL     1      48.865   7.184  18.860  0.00  0.00    +0.000 C 
ATOM      2  C   UNL     1      48.034   6.141  19.615  0.00  0.00    +0.000 C 
ATOM      3  C   UNL     1      47.280   5.207  18.673  0.00  0.00    +0.000 C 
ATOM      4  C   UNL     1      48.211   4.488  17.685  0.00  0.00    +0.000 C 
ATOM      5  C   UNL     1      49.181   5.458  16.987  0.00  0.00    +0.000 C 
ATOM      6  C   UNL     1      49.852   6.452  17.935  0.00  0.00    +0.000 C 
ENDROOT
BRANCH   1   7
ATOM      7  C   UNL     1      48.003   8.209  18.094  0.00  0.00    +0.000 C 
BRANCH   7  10
ATOM      8  O   UNL     1      49.024  10.432  16.548  0.00  0.00    +0.000 OA
ATOM      9  C   UNL     1      48.809   9.348  16.021  0.00  0.00    +0.000 C 
ATOM     10  N   UNL     1      48.314   8.240  16.678  0.00  0.00    +0.000 N 
ATOM     11  H   UNL     1      48.211   7.400  16.115  0.00  0.00    +0.000 HD
BRANCH   9  12
ATOM     12  C   UNL     1      49.086   9.131  14.563  0.00  0.00    +0.000 A 
ATOM     13  C   UNL     1      49.919   8.091  14.166  0.00  0.00    +0.000 A 
ATOM     14  C   UNL     1      50.183   7.944  12.808  0.00  0.00    +0.000 A 
ATOM     15  C   UNL     1      49.613   8.835  11.903  0.00  0.00    +0.000 A 
ATOM     16  C   UNL     1      48.783   9.835  12.391  0.00  0.00    +0.000 A 
ATOM     17  N   UNL     1      48.495  10.005  13.700  0.00  0.00    +0.000 NA
ENDBRANCH   9  12
ENDBRANCH   7  10
ENDBRANCH   1   7
BRANCH   4  18
ATOM     18  C   UNL     1      47.414   3.716  16.615  0.00  0.00    +0.000 C 
BRANCH  18  19
ATOM     19  N   UNL     1      46.789   4.599  15.654  0.00  0.00    +0.000 N 
ATOM     20  C   UNL     1      46.763   4.319  14.311  0.00  0.00    +0.000 C 
ATOM     21  O   UNL     1      47.202   3.272  13.844  0.00  0.00    +0.000 OA
ATOM     22  H   UNL     1      46.722   5.576  15.924  0.00  0.00    +0.000 HD
BRANCH  20  23
ATOM     23  C   UNL     1      46.094   5.312  13.462  0.00  0.00    +0.000 A 
ATOM     24  C   UNL     1      46.735   6.504  13.167  0.00  0.00    +0.000 A 
ATOM     25  S   UNL     1      45.850   7.518  12.122  0.00  0.00    +0.000 S 
ATOM     26  C   UNL     1      44.551   6.418  12.067  0.00  0.00    +0.000 A 
ATOM     27  N   UNL     1      43.432   6.691  11.346  0.00  0.00    +0.000 NA
ATOM     28  C   UNL     1      42.517   5.784  11.416  0.00  0.00    +0.000 A 
ATOM     29  N   UNL     1      42.619   4.625  12.141  0.00  0.00    +0.000 N 
ATOM     30  C   UNL     1      43.742   4.296  12.866  0.00  0.00    +0.000 A 
ATOM     31  O   UNL     1      43.823   3.231  13.470  0.00  0.00    +0.000 OA
ATOM     32  C   UNL     1      44.798   5.288  12.825  0.00  0.00    +0.000 A 
ATOM     33  H   UNL     1      41.870   3.951  12.151  0.00  0.00    +0.000 HD
ENDBRANCH  20  23
ENDBRANCH  18  19
ENDBRANCH   4  18
TORSDOF 6
ENDMDL
MODEL 7
REMARK VINA RESULT:    -7.032      3.770      8.785
REMARK INTER + INTRA:         -10.434
REMARK INTER:                  -9.848
REMARK INTRA:                  -0.585
REMARK UNBOUND:                -0.934
REMARK  Name = 
REMARK  6 active torsions:
REMARK  status: ('A' for Active; 'I' for Inactive)
REMARK    1  A    between atoms: C_2  and  C_25
REMARK    2  A    between atoms: N_3  and  C_4
REMARK    3  A    between atoms: C_4  and  C_5
REMARK    4  A    between atoms: C_8  and  C_9
REMARK    5  A    between atoms: C_9  and  N_10
REMARK    6  A    between atoms: C_11  and  C_13
REMARK                            x       y       z     vdW  Elec       q    Type
REMARK                         _______ _______ _______ _____ _____    ______ ____
ROOT
ATOM      1  C   UNL     1      49.032   5.746  20.209  0.00  0.00    +0.000 C 
ATOM      2  C   UNL     1      47.930   6.460  19.419  0.00  0.00    +0.000 C 
ATOM      3  C   UNL     1      47.771   5.900  18.009  0.00  0.00    +0.000 C 
ATOM      4  C   UNL     1      47.496   4.388  18.001  0.00  0.00    +0.000 C 
ATOM      5  C   UNL     1      48.481   3.612  18.893  0.00  0.00    +0.000 C 
ATOM      6  C   UNL     1      48.703   4.245  20.267  0.00  0.00    +0.000 C 
ENDROOT
BRANCH   1   7
ATOM      7  C   UNL     1      50.446   6.009  19.652  0.00  0.00    +0.000 C 
BRANCH   7  10
ATOM      8  O   UNL     1      51.949   5.590  17.215  0.00  0.00    +0.000 OA
ATOM      9  C   UNL     1      51.805   4.683  18.027  0.00  0.00    +0.000 C 
ATOM     10  N   UNL     1      51.097   4.793  19.206  0.00  0.00    +0.000 N 
ATOM     11  H   UNL     1      51.085   3.963  19.794  0.00  0.00    +0.000 HD
BRANCH   9  12
ATOM     12  C   UNL     1      52.418   3.335  17.794  0.00  0.00    +0.000 A 
ATOM     13  C   UNL     1      51.598   2.226  17.619  0.00  0.00    +0.000 A 
ATOM     14  C   UNL     1      52.204   0.985  17.443  0.00  0.00    +0.000 A 
ATOM     15  C   UNL     1      53.593   0.897  17.452  0.00  0.00    +0.000 A 
ATOM     16  C   UNL     1      54.329   2.061  17.621  0.00  0.00    +0.000 A 
ATOM     17  N   UNL     1      53.780   3.284  17.785  0.00  0.00    +0.000 NA
ENDBRANCH   9  12
ENDBRANCH   7  10
ENDBRANCH   1   7
BRANCH   4  18
ATOM     18  C   UNL     1      47.546   3.810  16.574  0.00  0.00    +0.000 C 
BRANCH  18  19
ATOM     19  N   UNL     1      46.915   4.683  15.607  0.00  0.00    +0.000 N 
ATOM     20  C   UNL     1      46.806   4.350  14.281  0.00  0.00    +0.000 C 
ATOM     21  O   UNL     1      47.168   3.263  13.838  0.00  0.00    +0.000 OA
ATOM     22  H   UNL     1      46.909   5.673  15.837  0.00  0.00    +0.000 HD
BRANCH  20  23
ATOM     23  C   UNL     1      46.142   5.339  13.424  0.00  0.00    +0.000 A 
ATOM     24  C   UNL     1      46.791   6.524  13.115  0.00  0.00    +0.000 A 
ATOM     25  S   UNL     1      45.911   7.534  12.062  0.00  0.00    +0.000 S 
ATOM     26  C   UNL     1      44.603   6.443  12.021  0.00  0.00    +0.000 A 
ATOM     27  N   UNL     1      43.485   6.717  11.301  0.00  0.00    +0.000 NA
ATOM     28  C   UNL     1      42.563   5.818  11.380  0.00  0.00    +0.000 A 
ATOM     29  N   UNL     1      42.659   4.665  12.117  0.00  0.00    +0.000 N 
ATOM     30  C   UNL     1      43.780   4.336  12.842  0.00  0.00    +0.000 A 
ATOM     31  O   UNL     1      43.856   3.275  13.456  0.00  0.00    +0.000 OA
ATOM     32  C   UNL     1      44.844   5.319  12.789  0.00  0.00    +0.000 A 
ATOM     33  H   UNL     1      41.905   3.997  12.135  0.00  0.00    +0.000 HD
ENDBRANCH  20  23
ENDBRANCH  18  19
ENDBRANCH   4  18
TORSDOF 6
ENDMDL
MODEL 8
REMARK VINA RESULT:    -7.021      3.001      4.424
REMARK INTER + INTRA:         -10.418
REMARK INTER:                  -9.495
REMARK INTRA:                  -0.922
REMARK UNBOUND:                -0.934
REMARK  Name = 
REMARK  6 active torsions:
REMARK  status: ('A' for Active; 'I' for Inactive)
REMARK    1  A    between atoms: C_2  and  C_25
REMARK    2  A    between atoms: N_3  and  C_4
REMARK    3  A    between atoms: C_4  and  C_5
REMARK    4  A    between atoms: C_8  and  C_9
REMARK    5  A    between atoms: C_9  and  N_10
REMARK    6  A    between atoms: C_11  and  C_13
REMARK                            x       y       z     vdW  Elec       q    Type
REMARK                         _______ _______ _______ _____ _____    ______ ____
ROOT
ATOM      1  C   UNL     1      47.611   7.850  12.245  0.00  0.00    +0.000 C 
ATOM      2  C   UNL     1      47.624   9.106  13.122  0.00  0.00    +0.000 C 
ATOM      3  C   UNL     1      47.693   8.775  14.609  0.00  0.00    +0.000 C 
ATOM      4  C   UNL     1      48.907   7.903  14.964  0.00  0.00    +0.000 C 
ATOM      5  C   UNL     1      49.045   6.689  14.028  0.00  0.00    +0.000 C 
ATOM      6  C   UNL     1      48.873   7.026  12.546  0.00  0.00    +0.000 C 
ENDROOT
BRANCH   1   7
ATOM      7  C   UNL     1      46.322   7.016  12.396  0.00  0.00    +0.000 C 
BRANCH   7  10
ATOM      8  O   UNL     1      43.954   6.037  11.051  0.00  0.00    +0.000 OA
ATOM      9  C   UNL     1      45.056   5.560  10.807  0.00  0.00    +0.000 C 
ATOM     10  N   UNL     1      46.233   5.958  11.409  0.00  0.00    +0.000 N 
ATOM     11  H   UNL     1      47.075   5.488  11.087  0.00  0.00    +0.000 HD
BRANCH   9  12
ATOM     12  C   UNL     1      45.217   4.468   9.792  0.00  0.00    +0.000 A 
ATOM     13  C   UNL     1      44.820   3.173  10.104  0.00  0.00    +0.000 A 
ATOM     14  C   UNL     1      45.020   2.179   9.150  0.00  0.00    +0.000 A 
ATOM     15  C   UNL     1      45.606   2.512   7.932  0.00  0.00    +0.000 A 
ATOM     16  C   UNL     1      45.958   3.834   7.706  0.00  0.00    +0.000 A 
ATOM     17  N   UNL     1      45.772   4.829   8.601  0.00  0.00    +0.000 NA
ENDBRANCH   9  12
ENDBRANCH   7  10
ENDBRANCH   1   7
BRANCH   4  18
ATOM     18  C   UNL     1      48.845   7.410  16.422  0.00  0.00    +0.000 C 
BRANCH  18  19
ATOM     19  N   UNL     1      49.867   6.429  16.713  0.00  0.00    +0.000 N 
ATOM     20  C   UNL     1      50.278   6.157  17.994  0.00  0.00    +0.000 C 
ATOM     21  O   UNL     1      49.759   6.672  18.980  0.00  0.00    +0.000 OA
ATOM     22  H   UNL     1      50.528   6.238  15.965  0.00  0.00    +0.000 HD
BRANCH  20  23
ATOM     23  C   UNL     1      51.325   5.137  18.128  0.00  0.00    +0.000 A 
ATOM     24  C   UNL     1      52.567   5.491  18.631  0.00  0.00    +0.000 A 
ATOM     25  S   UNL     1      53.646   4.181  18.780  0.00  0.00    +0.000 S 
ATOM     26  C   UNL     1      52.505   3.097  18.126  0.00  0.00    +0.000 A 
ATOM     27  N   UNL     1      52.805   1.783  17.956  0.00  0.00    +0.000 NA
ATOM     28  C   UNL     1      51.860   1.083  17.426  0.00  0.00    +0.000 A 
ATOM     29  N   UNL     1      50.637   1.579  17.051  0.00  0.00    +0.000 N 
ATOM     30  C   UNL     1      50.282   2.896  17.226  0.00  0.00    +0.000 A 
ATOM     31  O   UNL     1      49.164   3.303  16.922  0.00  0.00    +0.000 OA
ATOM     32  C   UNL     1      51.314   3.727  17.814  0.00  0.00    +0.000 A 
ATOM     33  H   UNL     1      49.936   0.979  16.646  0.00  0.00    +0.000 HD
ENDBRANCH  20  23
ENDBRANCH  18  19
ENDBRANCH   4  18
TORSDOF 6
ENDMDL
MODEL 9
REMARK VINA RESULT:    -6.916      3.039      5.092
REMARK INTER + INTRA:         -10.276
REMARK INTER:                  -8.608
REMARK INTRA:                  -1.668
REMARK UNBOUND:                -0.934
REMARK  Name = 
REMARK  6 active torsions:
REMARK  status: ('A' for Active; 'I' for Inactive)
REMARK    1  A    between atoms: C_2  and  C_25
REMARK    2  A    between atoms: N_3  and  C_4
REMARK    3  A    between atoms: C_4  and  C_5
REMARK    4  A    between atoms: C_8  and  C_9
REMARK    5  A    between atoms: C_9  and  N_10
REMARK    6  A    between atoms: C_11  and  C_13
REMARK                            x       y       z     vdW  Elec       q    Type
REMARK                         _______ _______ _______ _____ _____    ______ ____
ROOT
ATOM      1  C   UNL     1      47.915   8.851  12.160  0.00  0.00    +0.000 C 
ATOM      2  C   UNL     1      48.542  10.162  12.645  0.00  0.00    +0.000 C 
ATOM      3  C   UNL     1      49.655   9.931  13.664  0.00  0.00    +0.000 C 
ATOM      4  C   UNL     1      50.763   9.011  13.129  0.00  0.00    +0.000 C 
ATOM      5  C   UNL     1      50.199   7.729  12.492  0.00  0.00    +0.000 C 
ATOM      6  C   UNL     1      49.019   7.972  11.550  0.00  0.00    +0.000 C 
ENDROOT
BRANCH   1   7
ATOM      7  C   UNL     1      47.125   8.112  13.260  0.00  0.00    +0.000 C 
BRANCH   7  10
ATOM      8  O   UNL     1      46.997   5.313  13.984  0.00  0.00    +0.000 OA
ATOM      9  C   UNL     1      46.250   5.774  13.130  0.00  0.00    +0.000 C 
ATOM     10  N   UNL     1      46.250   7.091  12.717  0.00  0.00    +0.000 N 
ATOM     11  H   UNL     1      45.554   7.335  12.017  0.00  0.00    +0.000 HD
BRANCH   9  12
ATOM     12  C   UNL     1      45.233   4.910  12.447  0.00  0.00    +0.000 A 
ATOM     13  C   UNL     1      44.954   5.107  11.099  0.00  0.00    +0.000 A 
ATOM     14  C   UNL     1      43.977   4.311  10.508  0.00  0.00    +0.000 A 
ATOM     15  C   UNL     1      43.318   3.358  11.279  0.00  0.00    +0.000 A 
ATOM     16  C   UNL     1      43.672   3.225  12.614  0.00  0.00    +0.000 A 
ATOM     17  N   UNL     1      44.621   3.971  13.221  0.00  0.00    +0.000 NA
ENDBRANCH   9  12
ENDBRANCH   7  10
ENDBRANCH   1   7
BRANCH   4  18
ATOM     18  C   UNL     1      51.763   8.626  14.236  0.00  0.00    +0.000 C 
BRANCH  18  19
ATOM     19  N   UNL     1      51.343   7.452  14.970  0.00  0.00    +0.000 N 
ATOM     20  C   UNL     1      51.834   7.152  16.215  0.00  0.00    +0.000 C 
ATOM     21  O   UNL     1      52.605   7.891  16.819  0.00  0.00    +0.000 OA
ATOM     22  H   UNL     1      50.994   6.678  14.411  0.00  0.00    +0.000 HD
BRANCH  20  23
ATOM     23  C   UNL     1      51.313   5.926  16.831  0.00  0.00    +0.000 A 
ATOM     24  C   UNL     1      52.195   4.960  17.289  0.00  0.00    +0.000 A 
ATOM     25  S   UNL     1      51.431   3.630  18.031  0.00  0.00    +0.000 S 
ATOM     26  C   UNL     1      49.885   4.276  17.721  0.00  0.00    +0.000 A 
ATOM     27  N   UNL     1      48.761   3.609  18.091  0.00  0.00    +0.000 NA
ATOM     28  C   UNL     1      47.660   4.199  17.770  0.00  0.00    +0.000 A 
ATOM     29  N   UNL     1      47.580   5.400  17.112  0.00  0.00    +0.000 N 
ATOM     30  C   UNL     1      48.691   6.120  16.739  0.00  0.00    +0.000 A 
ATOM     31  O   UNL     1      48.589   7.214  16.191  0.00  0.00    +0.000 OA
ATOM     32  C   UNL     1      49.955   5.495  17.073  0.00  0.00    +0.000 A 
ATOM     33  H   UNL     1      46.687   5.814  16.894  0.00  0.00    +0.000 HD
ENDBRANCH  20  23
ENDBRANCH  18  19
ENDBRANCH   4  18
TORSDOF 6
ENDMDL
