MODEL 1
REMARK VINA RESULT:    -8.561      0.000      0.000
REMARK INTER + INTRA:         -12.561
REMARK INTER:                 -11.564
REMARK INTRA:                  -0.997
REMARK UNBOUND:                -0.997
REMARK  Name = 
REMARK  6 active torsions:
REMARK  status: ('A' for Active; 'I' for Inactive)
REMARK    1  A    between atoms: C_2  and  C_19
REMARK    2  A    between atoms: N_3  and  C_4
REMARK    3  A    between atoms: C_4  and  C_5
REMARK    4  A    between atoms: C_8  and  O_9
REMARK    5  A    between atoms: O_9  and  C_10
REMARK    6  A    between atoms: C_10  and  C_11
REMARK                            x       y       z     vdW  Elec       q    Type
REMARK                         _______ _______ _______ _____ _____    ______ ____
ROOT
ATOM      1  O   UNL     1      49.052   6.657  13.223  0.00  0.00    +0.000 OA
ATOM      2  C   UNL     1      48.276   6.659  14.175  0.00  0.00    +0.000 C 
ATOM      3  N   UNL     1      46.955   6.985  14.041  0.00  0.00    +0.000 N 
ATOM      4  H   UNL     1      46.415   7.230  14.866  0.00  0.00    +0.000 HD
ENDROOT
BRANCH   2   5
ATOM      5  C   UNL     1      48.708   6.246  15.516  0.00  0.00    +0.000 A 
ATOM      6  C   UNL     1      49.639   7.010  16.205  0.00  0.00    +0.000 A 
ATOM      7  S   UNL     1      50.055   6.368  17.729  0.00  0.00    +0.000 S 
ATOM      8  C   UNL     1      48.970   5.071  17.540  0.00  0.00    +0.000 A 
ATOM      9  N   UNL     1      48.816   4.139  18.519  0.00  0.00    +0.000 NA
ATOM     10  C   UNL     1      47.934   3.232  18.259  0.00  0.00    +0.000 A 
ATOM     11  N   UNL     1      47.195   3.169  17.106  0.00  0.00    +0.000 N 
ATOM     12  C   UNL     1      47.356   4.056  16.069  0.00  0.00    +0.000 A 
ATOM     13  O   UNL     1      46.747   3.918  15.015  0.00  0.00    +0.000 OA
ATOM     14  C   UNL     1      48.315   5.114  16.322  0.00  0.00    +0.000 A 
ATOM     15  H   UNL     1      46.533   2.424  16.953  0.00  0.00    +0.000 HD
ENDBRANCH   2   5
BRANCH   3  16
ATOM     16  C   UNL     1      46.413   7.473  12.795  0.00  0.00    +0.000 C 
BRANCH  16  17
ATOM     17  C   UNL     1      45.857   6.345  11.963  0.00  0.00    +0.000 A 
ATOM     18  C   UNL     1      45.950   6.371  10.574  0.00  0.00    +0.000 A 
ATOM     19  C   UNL     1      45.432   5.300   9.845  0.00  0.00    +0.000 A 
ATOM     20  C   UNL     1      44.831   4.240  10.514  0.00  0.00    +0.000 A 
ATOM     21  C   UNL     1      44.719   4.335  11.895  0.00  0.00    +0.000 A 
ATOM     22  N   UNL     1      45.225   5.348  12.632  0.00  0.00    +0.000 NA
BRANCH  20  23
ATOM     23  O   UNL     1      44.408   3.192   9.746  0.00  0.00    +0.000 OA
BRANCH  23  24
ATOM     24  C   UNL     1      44.531   3.402   8.336  0.00  0.00    +0.000 C 
BRANCH  24  25
ATOM     25  C   UNL     1      45.737   2.665   7.822  0.00  0.00    +0.000 A 
ATOM     26  C   UNL     1      45.953   1.326   8.163  0.00  0.00    +0.000 A 
ATOM     27  C   UNL     1      47.062   0.679   7.648  0.00  0.00    +0.000 A 
ATOM     28  N   UNL     1      47.959   1.266   6.827  0.00  0.00    +0.000 NA
ATOM     29  C   UNL     1      47.736   2.561   6.515  0.00  0.00    +0.000 A 
ATOM     30  C   UNL     1      46.657   3.295   6.979  0.00  0.00    +0.000 A 
ENDBRANCH  24  25
ENDBRANCH  23  24
ENDBRANCH  20  23
ENDBRANCH  16  17
ENDBRANCH   3  16
TORSDOF 6
ENDMDL
MODEL 2
REMARK VINA RESULT:    -7.925      2.207      3.965
REMARK INTER + INTRA:         -11.701
REMARK INTER:                 -10.676
REMARK INTRA:                  -1.026
REMARK UNBOUND:                -0.997
REMARK  Name = 
REMARK  6 active torsions:
REMARK  status: ('A' for Active; 'I' for Inactive)
REMARK    1  A    between atoms: C_2  and  C_19
REMARK    2  A    between atoms: N_3  and  C_4
REMARK    3  A    between atoms: C_4  and  C_5
REMARK    4  A    between atoms: C_8  and  O_9
REMARK    5  A    between atoms: O_9  and  C_10
REMARK    6  A    between atoms: C_10  and  C_11
REMARK                            x       y       z     vdW  Elec       q    Type
REMARK                         _______ _______ _______ _____ _____    ______ ____
ROOT
ATOM      1  O   UNL     1      48.853   5.571  15.667  0.00  0.00    +0.000 OA
ATOM      2  C   UNL     1      48.218   6.383  14.999  0.00  0.00    +0.000 C 
ATOM      3  N   UNL     1      47.042   6.058  14.379  0.00  0.00    +0.000 N 
ATOM      4  H   UNL     1      46.688   6.656  13.638  0.00  0.00    +0.000 HD
ENDROOT
BRANCH   2   5
ATOM      5  C   UNL     1      48.650   7.781  14.876  0.00  0.00    +0.000 A 
ATOM      6  C   UNL     1      48.799   8.557  16.016  0.00  0.00    +0.000 A 
ATOM      7  S   UNL     1      49.269  10.163  15.691  0.00  0.00    +0.000 S 
ATOM      8  C   UNL     1      49.334   9.864  14.017  0.00  0.00    +0.000 A 
ATOM      9  N   UNL     1      49.703  10.840  13.145  0.00  0.00    +0.000 NA
ATOM     10  C   UNL     1      49.746  10.465  11.910  0.00  0.00    +0.000 A 
ATOM     11  N   UNL     1      49.447   9.203  11.467  0.00  0.00    +0.000 N 
ATOM     12  C   UNL     1      49.017   8.201  12.304  0.00  0.00    +0.000 A 
ATOM     13  O   UNL     1      48.669   7.111  11.865  0.00  0.00    +0.000 OA
ATOM     14  C   UNL     1      48.981   8.562  13.708  0.00  0.00    +0.000 A 
ATOM     15  H   UNL     1      49.480   8.975  10.484  0.00  0.00    +0.000 HD
ENDBRANCH   2   5
BRANCH   3  16
ATOM     16  C   UNL     1      46.537   4.707  14.362  0.00  0.00    +0.000 C 
BRANCH  16  17
ATOM     17  C   UNL     1      45.892   4.382  13.039  0.00  0.00    +0.000 A 
ATOM     18  C   UNL     1      45.840   5.328  12.019  0.00  0.00    +0.000 A 
ATOM     19  C   UNL     1      45.243   4.980  10.808  0.00  0.00    +0.000 A 
ATOM     20  C   UNL     1      44.710   3.706  10.645  0.00  0.00    +0.000 A 
ATOM     21  C   UNL     1      44.743   2.853  11.741  0.00  0.00    +0.000 A 
ATOM     22  N   UNL     1      45.328   3.153  12.921  0.00  0.00    +0.000 NA
BRANCH  20  23
ATOM     23  O   UNL     1      44.204   3.406   9.412  0.00  0.00    +0.000 OA
BRANCH  23  24
ATOM     24  C   UNL     1      44.910   4.003   8.320  0.00  0.00    +0.000 C 
BRANCH  24  25
ATOM     25  C   UNL     1      45.888   3.012   7.752  0.00  0.00    +0.000 A 
ATOM     26  C   UNL     1      46.760   3.381   6.722  0.00  0.00    +0.000 A 
ATOM     27  C   UNL     1      47.661   2.446   6.245  0.00  0.00    +0.000 A 
ATOM     28  N   UNL     1      47.753   1.184   6.717  0.00  0.00    +0.000 NA
ATOM     29  C   UNL     1      46.897   0.845   7.706  0.00  0.00    +0.000 A 
ATOM     30  C   UNL     1      45.960   1.709   8.250  0.00  0.00    +0.000 A 
ENDBRANCH  24  25
ENDBRANCH  23  24
ENDBRANCH  20  23
ENDBRANCH  16  17
ENDBRANCH   3  16
TORSDOF 6
ENDMDL
MODEL 3
REMARK VINA RESULT:    -7.569      1.976      2.928
REMARK INTER + INTRA:         -11.220
REMARK INTER:                 -10.350
REMARK INTRA:                  -0.871
REMARK UNBOUND:                -0.997
REMARK  Name = 
REMARK  6 active torsions:
REMARK  status: ('A' for Active; 'I' for Inactive)
REMARK    1  A    between atoms: C_2  and  C_19
REMARK    2  A    between atoms: N_3  and  C_4
REMARK    3  A    between atoms: C_4  and  C_5
REMARK    4  A    between atoms: C_8  and  O_9
REMARK    5  A    between atoms: O_9  and  C_10
REMARK    6  A    between atoms: C_10  and  C_11
REMARK                            x       y       z     vdW  Elec       q    Type
REMARK                         _______ _______ _______ _____ _____    ______ ____
ROOT
ATOM      1  O   UNL     1      46.427   3.481  17.285  0.00  0.00    +0.000 OA
ATOM      2  C   UNL     1      47.310   3.724  16.467  0.00  0.00    +0.000 C 
ATOM      3  N   UNL     1      47.037   4.221  15.222  0.00  0.00    +0.000 N 
ATOM      4  H   UNL     1      47.745   4.163  14.496  0.00  0.00    +0.000 HD
ENDROOT
BRANCH   2   5
ATOM      5  C   UNL     1      48.730   3.558  16.800  0.00  0.00    +0.000 A 
ATOM      6  C   UNL     1      49.261   2.283  16.931  0.00  0.00    +0.000 A 
ATOM      7  S   UNL     1      50.912   2.271  17.356  0.00  0.00    +0.000 S 
ATOM      8  C   UNL     1      50.986   3.970  17.334  0.00  0.00    +0.000 A 
ATOM      9  N   UNL     1      52.151   4.624  17.594  0.00  0.00    +0.000 NA
ATOM     10  C   UNL     1      52.073   5.910  17.506  0.00  0.00    +0.000 A 
ATOM     11  N   UNL     1      50.934   6.603  17.187  0.00  0.00    +0.000 N 
ATOM     12  C   UNL     1      49.724   5.989  16.971  0.00  0.00    +0.000 A 
ATOM     13  O   UNL     1      48.705   6.642  16.779  0.00  0.00    +0.000 OA
ATOM     14  C   UNL     1      49.763   4.540  17.028  0.00  0.00    +0.000 A 
ATOM     15  H   UNL     1      50.932   7.611  17.153  0.00  0.00    +0.000 HD
ENDBRANCH   2   5
BRANCH   3  16
ATOM     16  C   UNL     1      45.685   4.371  14.741  0.00  0.00    +0.000 C 
BRANCH  16  17
ATOM     17  C   UNL     1      45.654   4.545  13.244  0.00  0.00    +0.000 A 
ATOM     18  C   UNL     1      46.160   5.698  12.650  0.00  0.00    +0.000 A 
ATOM     19  C   UNL     1      46.121   5.812  11.260  0.00  0.00    +0.000 A 
ATOM     20  C   UNL     1      45.576   4.782  10.501  0.00  0.00    +0.000 A 
ATOM     21  C   UNL     1      45.030   3.703  11.185  0.00  0.00    +0.000 A 
ATOM     22  N   UNL     1      45.067   3.554  12.527  0.00  0.00    +0.000 NA
BRANCH  20  23
ATOM     23  O   UNL     1      45.633   4.925   9.144  0.00  0.00    +0.000 OA
BRANCH  23  24
ATOM     24  C   UNL     1      44.947   3.907   8.410  0.00  0.00    +0.000 C 
BRANCH  24  25
ATOM     25  C   UNL     1      45.949   2.990   7.765  0.00  0.00    +0.000 A 
ATOM     26  C   UNL     1      46.092   1.669   8.201  0.00  0.00    +0.000 A 
ATOM     27  C   UNL     1      47.008   0.852   7.564  0.00  0.00    +0.000 A 
ATOM     28  N   UNL     1      47.783   1.256   6.534  0.00  0.00    +0.000 NA
ATOM     29  C   UNL     1      47.637   2.536   6.133  0.00  0.00    +0.000 A 
ATOM     30  C   UNL     1      46.747   3.431   6.706  0.00  0.00    +0.000 A 
ENDBRANCH  24  25
ENDBRANCH  23  24
ENDBRANCH  20  23
ENDBRANCH  16  17
ENDBRANCH   3  16
TORSDOF 6
ENDMDL
MODEL 4
REMARK VINA RESULT:    -7.434      1.741      3.041
REMARK INTER + INTRA:         -11.039
REMARK INTER:                 -10.152
REMARK INTRA:                  -0.887
REMARK UNBOUND:                -0.997
REMARK  Name = 
REMARK  6 active torsions:
REMARK  status: ('A' for Active; 'I' for Inactive)
REMARK    1  A    between atoms: C_2  and  C_19
REMARK    2  A    between atoms: N_3  and  C_4
REMARK    3  A    between atoms: C_4  and  C_5
REMARK    4  A    between atoms: C_8  and  O_9
REMARK    5  A    between atoms: O_9  and  C_10
REMARK    6  A    between atoms: C_10  and  C_11
REMARK                            x       y       z     vdW  Elec       q    Type
REMARK                         _______ _______ _______ _____ _____    ______ ____
ROOT
ATOM      1  O   UNL     1      46.780   4.362  17.256  0.00  0.00    +0.000 OA
ATOM      2  C   UNL     1      47.548   4.711  16.364  0.00  0.00    +0.000 C 
ATOM      3  N   UNL     1      47.155   4.806  15.057  0.00  0.00    +0.000 N 
ATOM      4  H   UNL     1      47.859   4.839  14.326  0.00  0.00    +0.000 HD
ENDROOT
BRANCH   2   5
ATOM      5  C   UNL     1      48.930   5.114  16.655  0.00  0.00    +0.000 A 
ATOM      6  C   UNL     1      49.702   4.349  17.516  0.00  0.00    +0.000 A 
ATOM      7  S   UNL     1      51.266   4.979  17.773  0.00  0.00    +0.000 S 
ATOM      8  C   UNL     1      50.979   6.272  16.704  0.00  0.00    +0.000 A 
ATOM      9  N   UNL     1      51.946   7.194  16.446  0.00  0.00    +0.000 NA
ATOM     10  C   UNL     1      51.606   8.099  15.589  0.00  0.00    +0.000 A 
ATOM     11  N   UNL     1      50.385   8.168  14.970  0.00  0.00    +0.000 N 
ATOM     12  C   UNL     1      49.361   7.292  15.240  0.00  0.00    +0.000 A 
ATOM     13  O   UNL     1      48.252   7.436  14.740  0.00  0.00    +0.000 OA
ATOM     14  C   UNL     1      49.701   6.236  16.176  0.00  0.00    +0.000 A 
ATOM     15  H   UNL     1      50.172   8.912  14.323  0.00  0.00    +0.000 HD
ENDBRANCH   2   5
BRANCH   3  16
ATOM     16  C   UNL     1      45.847   4.378  14.621  0.00  0.00    +0.000 C 
BRANCH  16  17
ATOM     17  C   UNL     1      45.689   4.540  13.131  0.00  0.00    +0.000 A 
ATOM     18  C   UNL     1      46.140   5.689  12.486  0.00  0.00    +0.000 A 
ATOM     19  C   UNL     1      45.981   5.791  11.104  0.00  0.00    +0.000 A 
ATOM     20  C   UNL     1      45.376   4.754  10.403  0.00  0.00    +0.000 A 
ATOM     21  C   UNL     1      44.892   3.680  11.139  0.00  0.00    +0.000 A 
ATOM     22  N   UNL     1      45.045   3.542  12.474  0.00  0.00    +0.000 NA
BRANCH  20  23
ATOM     23  O   UNL     1      45.316   4.886   9.044  0.00  0.00    +0.000 OA
BRANCH  23  24
ATOM     24  C   UNL     1      44.733   3.771   8.365  0.00  0.00    +0.000 C 
BRANCH  24  25
ATOM     25  C   UNL     1      45.821   2.911   7.783  0.00  0.00    +0.000 A 
ATOM     26  C   UNL     1      46.706   3.427   6.831  0.00  0.00    +0.000 A 
ATOM     27  C   UNL     1      47.708   2.610   6.340  0.00  0.00    +0.000 A 
ATOM     28  N   UNL     1      47.887   1.329   6.727  0.00  0.00    +0.000 NA
ATOM     29  C   UNL     1      47.018   0.846   7.641  0.00  0.00    +0.000 A 
ATOM     30  C   UNL     1      45.983   1.584   8.192  0.00  0.00    +0.000 A 
ENDBRANCH  24  25
ENDBRANCH  23  24
ENDBRANCH  20  23
ENDBRANCH  16  17
ENDBRANCH   3  16
TORSDOF 6
ENDMDL
MODEL 5
REMARK VINA RESULT:    -7.406      1.768      2.631
REMARK INTER + INTRA:         -11.001
REMARK INTER:                 -10.518
REMARK INTRA:                  -0.483
REMARK UNBOUND:                -0.997
REMARK  Name = 
REMARK  6 active torsions:
REMARK  status: ('A' for Active; 'I' for Inactive)
REMARK    1  A    between atoms: C_2  and  C_19
REMARK    2  A    between atoms: N_3  and  C_4
REMARK    3  A    between atoms: C_4  and  C_5
REMARK    4  A    between atoms: C_8  and  O_9
REMARK    5  A    between atoms: O_9  and  C_10
REMARK    6  A    between atoms: C_10  and  C_11
REMARK                            x       y       z     vdW  Elec       q    Type
REMARK                         _______ _______ _______ _____ _____    ______ ____
ROOT
ATOM      1  O   UNL     1      46.877   4.251  16.936  0.00  0.00    +0.000 OA
ATOM      2  C   UNL     1      47.535   4.824  16.071  0.00  0.00    +0.000 C 
ATOM      3  N   UNL     1      47.051   5.045  14.811  0.00  0.00    +0.000 N 
ATOM      4  H   UNL     1      47.697   5.276  14.063  0.00  0.00    +0.000 HD
ENDROOT
BRANCH   2   5
ATOM      5  C   UNL     1      48.867   5.371  16.358  0.00  0.00    +0.000 A 
ATOM      6  C   UNL     1      49.195   6.646  15.920  0.00  0.00    +0.000 A 
ATOM      7  S   UNL     1      50.791   7.109  16.304  0.00  0.00    +0.000 S 
ATOM      8  C   UNL     1      51.082   5.639  17.110  0.00  0.00    +0.000 A 
ATOM      9  N   UNL     1      52.280   5.393  17.706  0.00  0.00    +0.000 NA
ATOM     10  C   UNL     1      52.351   4.255  18.313  0.00  0.00    +0.000 A 
ATOM     11  N   UNL     1      51.334   3.337  18.372  0.00  0.00    +0.000 N 
ATOM     12  C   UNL     1      50.128   3.520  17.740  0.00  0.00    +0.000 A 
ATOM     13  O   UNL     1      49.273   2.641  17.735  0.00  0.00    +0.000 OA
ATOM     14  C   UNL     1      49.985   4.797  17.068  0.00  0.00    +0.000 A 
ATOM     15  H   UNL     1      51.457   2.455  18.846  0.00  0.00    +0.000 HD
ENDBRANCH   2   5
BRANCH   3  16
ATOM     16  C   UNL     1      45.786   4.504  14.375  0.00  0.00    +0.000 C 
BRANCH  16  17
ATOM     17  C   UNL     1      45.642   4.592  12.877  0.00  0.00    +0.000 A 
ATOM     18  C   UNL     1      45.030   3.568  12.158  0.00  0.00    +0.000 A 
ATOM     19  C   UNL     1      44.909   3.697  10.774  0.00  0.00    +0.000 A 
ATOM     20  C   UNL     1      45.404   4.833  10.144  0.00  0.00    +0.000 A 
ATOM     21  C   UNL     1      46.063   5.767  10.933  0.00  0.00    +0.000 A 
ATOM     22  N   UNL     1      46.181   5.682  12.275  0.00  0.00    +0.000 NA
BRANCH  20  23
ATOM     23  O   UNL     1      45.190   4.928   8.798  0.00  0.00    +0.000 OA
BRANCH  23  24
ATOM     24  C   UNL     1      44.692   3.733   8.190  0.00  0.00    +0.000 C 
BRANCH  24  25
ATOM     25  C   UNL     1      45.843   2.917   7.669  0.00  0.00    +0.000 A 
ATOM     26  C   UNL     1      46.774   3.478   6.789  0.00  0.00    +0.000 A 
ATOM     27  C   UNL     1      47.831   2.700   6.353  0.00  0.00    +0.000 A 
ATOM     28  N   UNL     1      48.024   1.418   6.730  0.00  0.00    +0.000 NA
ATOM     29  C   UNL     1      47.110   0.892   7.574  0.00  0.00    +0.000 A 
ATOM     30  C   UNL     1      46.018   1.589   8.065  0.00  0.00    +0.000 A 
ENDBRANCH  24  25
ENDBRANCH  23  24
ENDBRANCH  20  23
ENDBRANCH  16  17
ENDBRANCH   3  16
TORSDOF 6
ENDMDL
MODEL 6
REMARK VINA RESULT:    -6.960      2.474      3.516
REMARK INTER + INTRA:         -10.398
REMARK INTER:                  -9.374
REMARK INTRA:                  -1.024
REMARK UNBOUND:                -0.997
REMARK  Name = 
REMARK  6 active torsions:
REMARK  status: ('A' for Active; 'I' for Inactive)
REMARK    1  A    between atoms: C_2  and  C_19
REMARK    2  A    between atoms: N_3  and  C_4
REMARK    3  A    between atoms: C_4  and  C_5
REMARK    4  A    between atoms: C_8  and  O_9
REMARK    5  A    between atoms: O_9  and  C_10
REMARK    6  A    between atoms: C_10  and  C_11
REMARK                            x       y       z     vdW  Elec       q    Type
REMARK                         _______ _______ _______ _____ _____    ______ ____
ROOT
ATOM      1  O   UNL     1      47.069   5.058  18.203  0.00  0.00    +0.000 OA
ATOM      2  C   UNL     1      47.814   5.717  17.483  0.00  0.00    +0.000 C 
ATOM      3  N   UNL     1      47.945   5.468  16.144  0.00  0.00    +0.000 N 
ATOM      4  H   UNL     1      48.745   5.845  15.644  0.00  0.00    +0.000 HD
ENDROOT
BRANCH   2   5
ATOM      5  C   UNL     1      48.568   6.863  18.005  0.00  0.00    +0.000 A 
ATOM      6  C   UNL     1      47.916   7.832  18.753  0.00  0.00    +0.000 A 
ATOM      7  S   UNL     1      48.930   9.110  19.248  0.00  0.00    +0.000 S 
ATOM      8  C   UNL     1      50.288   8.388  18.519  0.00  0.00    +0.000 A 
ATOM      9  N   UNL     1      51.515   8.970  18.593  0.00  0.00    +0.000 NA
ATOM     10  C   UNL     1      52.461   8.296  18.028  0.00  0.00    +0.000 A 
ATOM     11  N   UNL     1      52.290   7.094  17.391  0.00  0.00    +0.000 N 
ATOM     12  C   UNL     1      51.062   6.497  17.244  0.00  0.00    +0.000 A 
ATOM     13  O   UNL     1      50.928   5.470  16.589  0.00  0.00    +0.000 OA
ATOM     14  C   UNL     1      49.967   7.199  17.888  0.00  0.00    +0.000 A 
ATOM     15  H   UNL     1      53.067   6.624  16.951  0.00  0.00    +0.000 HD
ENDBRANCH   2   5
BRANCH   3  16
ATOM     16  C   UNL     1      47.314   4.333  15.514  0.00  0.00    +0.000 C 
BRANCH  16  17
ATOM     17  C   UNL     1      46.665   4.724  14.211  0.00  0.00    +0.000 A 
ATOM     18  C   UNL     1      47.207   5.732  13.418  0.00  0.00    +0.000 A 
ATOM     19  C   UNL     1      46.579   6.052  12.214  0.00  0.00    +0.000 A 
ATOM     20  C   UNL     1      45.429   5.368  11.836  0.00  0.00    +0.000 A 
ATOM     21  C   UNL     1      44.920   4.429  12.725  0.00  0.00    +0.000 A 
ATOM     22  N   UNL     1      45.513   4.083  13.888  0.00  0.00    +0.000 NA
BRANCH  20  23
ATOM     23  O   UNL     1      44.904   5.681  10.614  0.00  0.00    +0.000 OA
BRANCH  23  24
ATOM     24  C   UNL     1      44.127   4.639  10.017  0.00  0.00    +0.000 C 
BRANCH  24  25
ATOM     25  C   UNL     1      45.012   3.786   9.149  0.00  0.00    +0.000 A 
ATOM     26  C   UNL     1      45.038   2.397   9.305  0.00  0.00    +0.000 A 
ATOM     27  C   UNL     1      45.847   1.648   8.470  0.00  0.00    +0.000 A 
ATOM     28  N   UNL     1      46.624   2.181   7.502  0.00  0.00    +0.000 NA
ATOM     29  C   UNL     1      46.590   3.525   7.373  0.00  0.00    +0.000 A 
ATOM     30  C   UNL     1      45.814   4.360   8.159  0.00  0.00    +0.000 A 
ENDBRANCH  24  25
ENDBRANCH  23  24
ENDBRANCH  20  23
ENDBRANCH  16  17
ENDBRANCH   3  16
TORSDOF 6
ENDMDL
MODEL 7
REMARK VINA RESULT:    -6.904      3.777      7.560
REMARK INTER + INTRA:         -10.322
REMARK INTER:                  -9.145
REMARK INTRA:                  -1.177
REMARK UNBOUND:                -0.997
REMARK  Name = 
REMARK  6 active torsions:
REMARK  status: ('A' for Active; 'I' for Inactive)
REMARK    1  A    between atoms: C_2  and  C_19
REMARK    2  A    between atoms: N_3  and  C_4
REMARK    3  A    between atoms: C_4  and  C_5
REMARK    4  A    between atoms: C_8  and  O_9
REMARK    5  A    between atoms: O_9  and  C_10
REMARK    6  A    between atoms: C_10  and  C_11
REMARK                            x       y       z     vdW  Elec       q    Type
REMARK                         _______ _______ _______ _____ _____    ______ ____
ROOT
ATOM      1  O   UNL     1      47.796   7.089  11.805  0.00  0.00    +0.000 OA
ATOM      2  C   UNL     1      46.777   7.280  12.463  0.00  0.00    +0.000 C 
ATOM      3  N   UNL     1      46.729   8.179  13.493  0.00  0.00    +0.000 N 
ATOM      4  H   UNL     1      45.973   8.123  14.168  0.00  0.00    +0.000 HD
ENDROOT
BRANCH   2   5
ATOM      5  C   UNL     1      45.518   6.597  12.141  0.00  0.00    +0.000 A 
ATOM      6  C   UNL     1      44.476   7.310  11.567  0.00  0.00    +0.000 A 
ATOM      7  S   UNL     1      43.077   6.375  11.295  0.00  0.00    +0.000 S 
ATOM      8  C   UNL     1      43.832   4.972  11.892  0.00  0.00    +0.000 A 
ATOM      9  N   UNL     1      43.176   3.780  11.917  0.00  0.00    +0.000 NA
ATOM     10  C   UNL     1      43.880   2.792  12.360  0.00  0.00    +0.000 A 
ATOM     11  N   UNL     1      45.179   2.889  12.787  0.00  0.00    +0.000 N 
ATOM     12  C   UNL     1      45.862   4.080  12.830  0.00  0.00    +0.000 A 
ATOM     13  O   UNL     1      46.991   4.148  13.303  0.00  0.00    +0.000 OA
ATOM     14  C   UNL     1      45.126   5.218  12.314  0.00  0.00    +0.000 A 
ATOM     15  H   UNL     1      45.671   2.082  13.141  0.00  0.00    +0.000 HD
ENDBRANCH   2   5
BRANCH   3  16
ATOM     16  C   UNL     1      47.909   8.869  13.957  0.00  0.00    +0.000 C 
BRANCH  16  17
ATOM     17  C   UNL     1      48.522   8.164  15.140  0.00  0.00    +0.000 A 
ATOM     18  C   UNL     1      48.188   8.530  16.441  0.00  0.00    +0.000 A 
ATOM     19  C   UNL     1      48.772   7.843  17.505  0.00  0.00    +0.000 A 
ATOM     20  C   UNL     1      49.675   6.818  17.248  0.00  0.00    +0.000 A 
ATOM     21  C   UNL     1      50.003   6.571  15.921  0.00  0.00    +0.000 A 
ATOM     22  N   UNL     1      49.443   7.205  14.868  0.00  0.00    +0.000 NA
BRANCH  20  23
ATOM     23  O   UNL     1      50.156   6.139  18.332  0.00  0.00    +0.000 OA
BRANCH  23  24
ATOM     24  C   UNL     1      49.279   5.127  18.836  0.00  0.00    +0.000 C 
BRANCH  24  25
ATOM     25  C   UNL     1      49.345   3.917  17.944  0.00  0.00    +0.000 A 
ATOM     26  C   UNL     1      48.228   3.516  17.205  0.00  0.00    +0.000 A 
ATOM     27  C   UNL     1      48.338   2.412  16.378  0.00  0.00    +0.000 A 
ATOM     28  N   UNL     1      49.471   1.690  16.239  0.00  0.00    +0.000 NA
ATOM     29  C   UNL     1      50.535   2.089  16.967  0.00  0.00    +0.000 A 
ATOM     30  C   UNL     1      50.525   3.179  17.822  0.00  0.00    +0.000 A 
ENDBRANCH  24  25
ENDBRANCH  23  24
ENDBRANCH  20  23
ENDBRANCH  16  17
ENDBRANCH   3  16
TORSDOF 6
ENDMDL
MODEL 8
REMARK VINA RESULT:    -6.510      3.425      8.232
REMARK INTER + INTRA:          -9.791
REMARK INTER:                  -8.839
REMARK INTRA:                  -0.952
REMARK UNBOUND:                -0.997
REMARK  Name = 
REMARK  6 active torsions:
REMARK  status: ('A' for Active; 'I' for Inactive)
REMARK    1  A    between atoms: C_2  and  C_19
REMARK    2  A    between atoms: N_3  and  C_4
REMARK    3  A    between atoms: C_4  and  C_5
REMARK    4  A    between atoms: C_8  and  O_9
REMARK    5  A    between atoms: O_9  and  C_10
REMARK    6  A    between atoms: C_10  and  C_11
REMARK                            x       y       z     vdW  Elec       q    Type
REMARK                         _______ _______ _______ _____ _____    ______ ____
ROOT
ATOM      1  O   UNL     1      45.691   7.727  11.656  0.00  0.00    +0.000 OA
ATOM      2  C   UNL     1      46.153   6.589  11.689  0.00  0.00    +0.000 C 
ATOM      3  N   UNL     1      47.190   6.245  12.511  0.00  0.00    +0.000 N 
ATOM      4  H   UNL     1      47.709   5.391  12.328  0.00  0.00    +0.000 HD
ENDROOT
BRANCH   2   5
ATOM      5  C   UNL     1      45.574   5.504  10.888  0.00  0.00    +0.000 A 
ATOM      6  C   UNL     1      45.721   5.513   9.508  0.00  0.00    +0.000 A 
ATOM      7  S   UNL     1      44.957   4.202   8.731  0.00  0.00    +0.000 S 
ATOM      8  C   UNL     1      44.442   3.550  10.217  0.00  0.00    +0.000 A 
ATOM      9  N   UNL     1      43.738   2.387  10.265  0.00  0.00    +0.000 NA
ATOM     10  C   UNL     1      43.445   1.990  11.459  0.00  0.00    +0.000 A 
ATOM     11  N   UNL     1      43.787   2.653  12.609  0.00  0.00    +0.000 N 
ATOM     12  C   UNL     1      44.449   3.857  12.606  0.00  0.00    +0.000 A 
ATOM     13  O   UNL     1      44.658   4.470  13.646  0.00  0.00    +0.000 OA
ATOM     14  C   UNL     1      44.829   4.334  11.290  0.00  0.00    +0.000 A 
ATOM     15  H   UNL     1      43.511   2.301  13.513  0.00  0.00    +0.000 HD
ENDBRANCH   2   5
BRANCH   3  16
ATOM     16  C   UNL     1      47.894   7.226  13.301  0.00  0.00    +0.000 C 
BRANCH  16  17
ATOM     17  C   UNL     1      48.350   6.643  14.615  0.00  0.00    +0.000 A 
ATOM     18  C   UNL     1      47.763   5.488  15.125  0.00  0.00    +0.000 A 
ATOM     19  C   UNL     1      48.224   4.979  16.339  0.00  0.00    +0.000 A 
ATOM     20  C   UNL     1      49.249   5.633  17.014  0.00  0.00    +0.000 A 
ATOM     21  C   UNL     1      49.724   6.817  16.465  0.00  0.00    +0.000 A 
ATOM     22  N   UNL     1      49.312   7.328  15.284  0.00  0.00    +0.000 NA
BRANCH  20  23
ATOM     23  O   UNL     1      49.702   5.043  18.160  0.00  0.00    +0.000 OA
BRANCH  23  24
ATOM     24  C   UNL     1      51.126   5.010  18.289  0.00  0.00    +0.000 C 
BRANCH  24  25
ATOM     25  C   UNL     1      51.616   3.602  18.087  0.00  0.00    +0.000 A 
ATOM     26  C   UNL     1      50.782   2.630  17.527  0.00  0.00    +0.000 A 
ATOM     27  C   UNL     1      51.280   1.353  17.336  0.00  0.00    +0.000 A 
ATOM     28  N   UNL     1      52.538   0.983  17.661  0.00  0.00    +0.000 NA
ATOM     29  C   UNL     1      53.325   1.934  18.208  0.00  0.00    +0.000 A 
ATOM     30  C   UNL     1      52.919   3.239  18.439  0.00  0.00    +0.000 A 
ENDBRANCH  24  25
ENDBRANCH  23  24
ENDBRANCH  20  23
ENDBRANCH  16  17
ENDBRANCH   3  16
TORSDOF 6
ENDMDL
MODEL 9
REMARK VINA RESULT:    -6.400      3.975      9.647
REMARK INTER + INTRA:          -9.642
REMARK INTER:                  -8.767
REMARK INTRA:                  -0.875
REMARK UNBOUND:                -0.997
REMARK  Name = 
REMARK  6 active torsions:
REMARK  status: ('A' for Active; 'I' for Inactive)
REMARK    1  A    between atoms: C_2  and  C_19
REMARK    2  A    between atoms: N_3  and  C_4
REMARK    3  A    between atoms: C_4  and  C_5
REMARK    4  A    between atoms: C_8  and  O_9
REMARK    5  A    between atoms: O_9  and  C_10
REMARK    6  A    between atoms: C_10  and  C_11
REMARK                            x       y       z     vdW  Elec       q    Type
REMARK                         _______ _______ _______ _____ _____    ______ ____
ROOT
ATOM      1  O   UNL     1      47.219   3.052  14.025  0.00  0.00    +0.000 OA
ATOM      2  C   UNL     1      46.830   4.124  14.479  0.00  0.00    +0.000 C 
ATOM      3  N   UNL     1      46.874   4.411  15.816  0.00  0.00    +0.000 N 
ATOM      4  H   UNL     1      46.316   5.177  16.180  0.00  0.00    +0.000 HD
ENDROOT
BRANCH   2   5
ATOM      5  C   UNL     1      46.350   5.200  13.603  0.00  0.00    +0.000 A 
ATOM      6  C   UNL     1      47.168   6.288  13.338  0.00  0.00    +0.000 A 
ATOM      7  S   UNL     1      46.443   7.460  12.335  0.00  0.00    +0.000 S 
ATOM      8  C   UNL     1      45.025   6.531  12.182  0.00  0.00    +0.000 A 
ATOM      9  N   UNL     1      43.985   6.961  11.417  0.00  0.00    +0.000 NA
ATOM     10  C   UNL     1      42.989   6.140  11.360  0.00  0.00    +0.000 A 
ATOM     11  N   UNL     1      42.937   4.931  12.003  0.00  0.00    +0.000 N 
ATOM     12  C   UNL     1      43.939   4.482  12.828  0.00  0.00    +0.000 A 
ATOM     13  O   UNL     1      43.821   3.439  13.462  0.00  0.00    +0.000 OA
ATOM     14  C   UNL     1      45.096   5.353  12.904  0.00  0.00    +0.000 A 
ATOM     15  H   UNL     1      42.121   4.342  11.935  0.00  0.00    +0.000 HD
ENDBRANCH   2   5
BRANCH   3  16
ATOM     16  C   UNL     1      47.260   3.423  16.795  0.00  0.00    +0.000 C 
BRANCH  16  17
ATOM     17  C   UNL     1      48.742   3.471  17.064  0.00  0.00    +0.000 A 
ATOM     18  C   UNL     1      49.372   4.673  17.378  0.00  0.00    +0.000 A 
ATOM     19  C   UNL     1      50.743   4.668  17.630  0.00  0.00    +0.000 A 
ATOM     20  C   UNL     1      51.452   3.474  17.557  0.00  0.00    +0.000 A 
ATOM     21  C   UNL     1      50.754   2.339  17.165  0.00  0.00    +0.000 A 
ATOM     22  N   UNL     1      49.424   2.305  16.932  0.00  0.00    +0.000 NA
BRANCH  20  23
ATOM     23  O   UNL     1      52.777   3.527  17.884  0.00  0.00    +0.000 OA
BRANCH  23  24
ATOM     24  C   UNL     1      53.042   3.529  19.290  0.00  0.00    +0.000 C 
BRANCH  24  25
ATOM     25  C   UNL     1      53.725   4.814  19.671  0.00  0.00    +0.000 A 
ATOM     26  C   UNL     1      55.077   5.016  19.378  0.00  0.00    +0.000 A 
ATOM     27  C   UNL     1      55.661   6.221  19.724  0.00  0.00    +0.000 A 
ATOM     28  N   UNL     1      54.998   7.227  20.334  0.00  0.00    +0.000 NA
ATOM     29  C   UNL     1      53.696   7.010  20.616  0.00  0.00    +0.000 A 
ATOM     30  C   UNL     1      53.022   5.838  20.310  0.00  0.00    +0.000 A 
ENDBRANCH  24  25
ENDBRANCH  23  24
ENDBRANCH  20  23
ENDBRANCH  16  17
ENDBRANCH   3  16
TORSDOF 6
ENDMDL
