MODEL 1
REMARK VINA RESULT:    -7.378      0.000      0.000
REMARK INTER + INTRA:          -9.770
REMARK INTER:                  -9.535
REMARK INTRA:                  -0.235
REMARK UNBOUND:                -0.235
REMARK  Name = 
REMARK  7 active torsions:
REMARK  status: ('A' for Active; 'I' for Inactive)
REMARK    1  A    between atoms: C_1  and  N_2
REMARK    2  A    between atoms: N_2  and  C_3
REMARK    3  A    between atoms: C_4  and  C_6
REMARK    4  A    between atoms: C_9  and  O_10
REMARK    5  A    between atoms: O_10  and  C_11
REMARK    6  A    between atoms: C_11  and  C_12
REMARK    7  A    between atoms: C_12  and  C_13
REMARK                            x       y       z     vdW  Elec       q    Type
REMARK                         _______ _______ _______ _____ _____    ______ ____
ROOT
ATOM      1  C   UNL     1      46.165   4.593  13.721  0.00  0.00    +0.000 A 
ATOM      2  C   UNL     1      46.190   3.362  13.076  0.00  0.00    +0.000 A 
ATOM      3  C   UNL     1      45.432   3.192  11.915  0.00  0.00    +0.000 A 
ATOM      4  C   UNL     1      44.670   4.254  11.438  0.00  0.00    +0.000 A 
ATOM      5  C   UNL     1      44.737   5.458  12.128  0.00  0.00    +0.000 A 
ATOM      6  N   UNL     1      45.455   5.655  13.257  0.00  0.00    +0.000 NA
ENDROOT
BRANCH   1  10
ATOM      7  C   UNL     1      48.797   5.849  16.204  0.00  0.00    +0.000 C 
ATOM      8  N   UNL     1      47.980   5.775  15.010  0.00  0.00    +0.000 N 
ATOM      9  C   UNL     1      48.120   6.829  14.015  0.00  0.00    +0.000 C 
ATOM     10  C   UNL     1      46.992   4.781  14.962  0.00  0.00    +0.000 C 
ATOM     11  O   UNL     1      46.758   4.054  15.929  0.00  0.00    +0.000 OA
ENDBRANCH   1  10
BRANCH   4  12
ATOM     12  O   UNL     1      43.863   4.231  10.338  0.00  0.00    +0.000 OA
BRANCH  12  13
ATOM     13  C   UNL     1      44.207   3.267   9.341  0.00  0.00    +0.000 C 
BRANCH  13  14
ATOM     14  C   UNL     1      45.022   3.973   8.256  0.00  0.00    +0.000 C 
BRANCH  14  15
ATOM     15  C   UNL     1      46.017   3.033   7.631  0.00  0.00    +0.000 A 
ATOM     16  C   UNL     1      46.713   3.399   6.475  0.00  0.00    +0.000 A 
ATOM     17  C   UNL     1      47.571   2.476   5.897  0.00  0.00    +0.000 A 
ATOM     18  N   UNL     1      47.776   1.235   6.384  0.00  0.00    +0.000 NA
ATOM     19  C   UNL     1      47.098   0.903   7.503  0.00  0.00    +0.000 A 
ATOM     20  C   UNL     1      46.219   1.754   8.153  0.00  0.00    +0.000 A 
ENDBRANCH  14  15
ENDBRANCH  13  14
ENDBRANCH  12  13
ENDBRANCH   4  12
TORSDOF 5
ENDMDL
MODEL 2
REMARK VINA RESULT:    -7.327      1.223      1.982
REMARK INTER + INTRA:          -9.704
REMARK INTER:                  -9.586
REMARK INTRA:                  -0.117
REMARK UNBOUND:                -0.235
REMARK  Name = 
REMARK  7 active torsions:
REMARK  status: ('A' for Active; 'I' for Inactive)
REMARK    1  A    between atoms: C_1  and  N_2
REMARK    2  A    between atoms: N_2  and  C_3
REMARK    3  A    between atoms: C_4  and  C_6
REMARK    4  A    between atoms: C_9  and  O_10
REMARK    5  A    between atoms: O_10  and  C_11
REMARK    6  A    between atoms: C_11  and  C_12
REMARK    7  A    between atoms: C_12  and  C_13
REMARK                            x       y       z     vdW  Elec       q    Type
REMARK                         _______ _______ _______ _____ _____    ______ ____
ROOT
ATOM      1  C   UNL     1      46.766   5.167  13.527  0.00  0.00    +0.000 A 
ATOM      2  C   UNL     1      46.030   6.147  12.871  0.00  0.00    +0.000 A 
ATOM      3  C   UNL     1      45.010   5.756  12.000  0.00  0.00    +0.000 A 
ATOM      4  C   UNL     1      44.761   4.401  11.808  0.00  0.00    +0.000 A 
ATOM      5  C   UNL     1      45.522   3.495  12.535  0.00  0.00    +0.000 A 
ATOM      6  N   UNL     1      46.520   3.838  13.381  0.00  0.00    +0.000 NA
ENDROOT
BRANCH   1  10
ATOM      7  C   UNL     1      48.877   5.642  16.686  0.00  0.00    +0.000 C 
ATOM      8  N   UNL     1      47.847   5.135  15.803  0.00  0.00    +0.000 N 
ATOM      9  C   UNL     1      46.982   4.072  16.295  0.00  0.00    +0.000 C 
ATOM     10  C   UNL     1      47.854   5.587  14.475  0.00  0.00    +0.000 C 
ATOM     11  O   UNL     1      48.748   6.315  14.043  0.00  0.00    +0.000 OA
ENDBRANCH   1  10
BRANCH   4  12
ATOM     12  O   UNL     1      43.821   3.869  10.973  0.00  0.00    +0.000 OA
BRANCH  12  13
ATOM     13  C   UNL     1      44.308   2.917  10.025  0.00  0.00    +0.000 C 
BRANCH  13  14
ATOM     14  C   UNL     1      44.868   3.680   8.824  0.00  0.00    +0.000 C 
BRANCH  14  15
ATOM     15  C   UNL     1      45.873   2.848   8.076  0.00  0.00    +0.000 A 
ATOM     16  C   UNL     1      45.951   1.467   8.284  0.00  0.00    +0.000 A 
ATOM     17  C   UNL     1      46.936   0.751   7.622  0.00  0.00    +0.000 A 
ATOM     18  N   UNL     1      47.833   1.309   6.784  0.00  0.00    +0.000 NA
ATOM     19  C   UNL     1      47.738   2.642   6.592  0.00  0.00    +0.000 A 
ATOM     20  C   UNL     1      46.791   3.444   7.208  0.00  0.00    +0.000 A 
ENDBRANCH  14  15
ENDBRANCH  13  14
ENDBRANCH  12  13
ENDBRANCH   4  12
TORSDOF 5
ENDMDL
MODEL 3
REMARK VINA RESULT:    -7.214      1.575      2.213
REMARK INTER + INTRA:          -9.557
REMARK INTER:                  -9.353
REMARK INTRA:                  -0.204
REMARK UNBOUND:                -0.235
REMARK  Name = 
REMARK  7 active torsions:
REMARK  status: ('A' for Active; 'I' for Inactive)
REMARK    1  A    between atoms: C_1  and  N_2
REMARK    2  A    between atoms: N_2  and  C_3
REMARK    3  A    between atoms: C_4  and  C_6
REMARK    4  A    between atoms: C_9  and  O_10
REMARK    5  A    between atoms: O_10  and  C_11
REMARK    6  A    between atoms: C_11  and  C_12
REMARK    7  A    between atoms: C_12  and  C_13
REMARK                            x       y       z     vdW  Elec       q    Type
REMARK                         _______ _______ _______ _____ _____    ______ ____
ROOT
ATOM      1  C   UNL     1      46.757   6.097  12.637  0.00  0.00    +0.000 A 
ATOM      2  C   UNL     1      46.583   6.416  11.295  0.00  0.00    +0.000 A 
ATOM      3  C   UNL     1      45.597   5.747  10.565  0.00  0.00    +0.000 A 
ATOM      4  C   UNL     1      44.821   4.780  11.196  0.00  0.00    +0.000 A 
ATOM      5  C   UNL     1      45.042   4.556  12.549  0.00  0.00    +0.000 A 
ATOM      6  N   UNL     1      45.990   5.180  13.284  0.00  0.00    +0.000 NA
ENDROOT
BRANCH   1  10
ATOM      7  C   UNL     1      48.756   8.857  14.386  0.00  0.00    +0.000 C 
ATOM      8  N   UNL     1      47.669   8.197  13.692  0.00  0.00    +0.000 N 
ATOM      9  C   UNL     1      46.443   8.948  13.463  0.00  0.00    +0.000 C 
ATOM     10  C   UNL     1      47.807   6.826  13.427  0.00  0.00    +0.000 C 
ATOM     11  O   UNL     1      48.769   6.180  13.845  0.00  0.00    +0.000 OA
ENDBRANCH   1  10
BRANCH   4  12
ATOM     12  O   UNL     1      43.844   4.028  10.610  0.00  0.00    +0.000 OA
BRANCH  12  13
ATOM     13  C   UNL     1      44.303   2.948   9.796  0.00  0.00    +0.000 C 
BRANCH  13  14
ATOM     14  C   UNL     1      44.661   3.505   8.417  0.00  0.00    +0.000 C 
BRANCH  14  15
ATOM     15  C   UNL     1      45.814   2.752   7.812  0.00  0.00    +0.000 A 
ATOM     16  C   UNL     1      46.029   1.407   8.128  0.00  0.00    +0.000 A 
ATOM     17  C   UNL     1      47.142   0.772   7.598  0.00  0.00    +0.000 A 
ATOM     18  N   UNL     1      48.038   1.377   6.792  0.00  0.00    +0.000 NA
ATOM     19  C   UNL     1      47.809   2.674   6.496  0.00  0.00    +0.000 A 
ATOM     20  C   UNL     1      46.728   3.395   6.976  0.00  0.00    +0.000 A 
ENDBRANCH  14  15
ENDBRANCH  13  14
ENDBRANCH  12  13
ENDBRANCH   4  12
TORSDOF 5
ENDMDL
MODEL 4
REMARK VINA RESULT:    -6.978      1.905      2.224
REMARK INTER + INTRA:          -9.253
REMARK INTER:                  -9.187
REMARK INTRA:                  -0.066
REMARK UNBOUND:                -0.235
REMARK  Name = 
REMARK  7 active torsions:
REMARK  status: ('A' for Active; 'I' for Inactive)
REMARK    1  A    between atoms: C_1  and  N_2
REMARK    2  A    between atoms: N_2  and  C_3
REMARK    3  A    between atoms: C_4  and  C_6
REMARK    4  A    between atoms: C_9  and  O_10
REMARK    5  A    between atoms: O_10  and  C_11
REMARK    6  A    between atoms: C_11  and  C_12
REMARK    7  A    between atoms: C_12  and  C_13
REMARK                            x       y       z     vdW  Elec       q    Type
REMARK                         _______ _______ _______ _____ _____    ______ ____
ROOT
ATOM      1  C   UNL     1      45.671   6.796  12.395  0.00  0.00    +0.000 A 
ATOM      2  C   UNL     1      45.934   6.591  11.045  0.00  0.00    +0.000 A 
ATOM      3  C   UNL     1      45.292   5.541  10.385  0.00  0.00    +0.000 A 
ATOM      4  C   UNL     1      44.412   4.727  11.093  0.00  0.00    +0.000 A 
ATOM      5  C   UNL     1      44.184   5.032  12.428  0.00  0.00    +0.000 A 
ATOM      6  N   UNL     1      44.793   6.036  13.100  0.00  0.00    +0.000 NA
ENDROOT
BRANCH   1  10
ATOM      7  C   UNL     1      48.056   8.827  14.600  0.00  0.00    +0.000 C 
ATOM      8  N   UNL     1      47.498   7.702  13.876  0.00  0.00    +0.000 N 
ATOM      9  C   UNL     1      48.248   6.455  13.861  0.00  0.00    +0.000 C 
ATOM     10  C   UNL     1      46.351   7.935  13.103  0.00  0.00    +0.000 C 
ATOM     11  O   UNL     1      45.881   9.065  12.965  0.00  0.00    +0.000 OA
ENDBRANCH   1  10
BRANCH   4  12
ATOM     12  O   UNL     1      43.736   3.653  10.593  0.00  0.00    +0.000 OA
BRANCH  12  13
ATOM     13  C   UNL     1      44.513   2.746   9.810  0.00  0.00    +0.000 C 
BRANCH  13  14
ATOM     14  C   UNL     1      44.693   3.350   8.416  0.00  0.00    +0.000 C 
BRANCH  14  15
ATOM     15  C   UNL     1      45.854   2.717   7.699  0.00  0.00    +0.000 A 
ATOM     16  C   UNL     1      46.433   3.344   6.590  0.00  0.00    +0.000 A 
ATOM     17  C   UNL     1      47.457   2.692   5.921  0.00  0.00    +0.000 A 
ATOM     18  N   UNL     1      47.934   1.481   6.275  0.00  0.00    +0.000 NA
ATOM     19  C   UNL     1      47.365   0.896   7.350  0.00  0.00    +0.000 A 
ATOM     20  C   UNL     1      46.336   1.464   8.083  0.00  0.00    +0.000 A 
ENDBRANCH  14  15
ENDBRANCH  13  14
ENDBRANCH  12  13
ENDBRANCH   4  12
TORSDOF 5
ENDMDL
MODEL 5
REMARK VINA RESULT:    -6.070      1.975      2.918
REMARK INTER + INTRA:          -8.079
REMARK INTER:                  -7.579
REMARK INTRA:                  -0.499
REMARK UNBOUND:                -0.235
REMARK  Name = 
REMARK  7 active torsions:
REMARK  status: ('A' for Active; 'I' for Inactive)
REMARK    1  A    between atoms: C_1  and  N_2
REMARK    2  A    between atoms: N_2  and  C_3
REMARK    3  A    between atoms: C_4  and  C_6
REMARK    4  A    between atoms: C_9  and  O_10
REMARK    5  A    between atoms: O_10  and  C_11
REMARK    6  A    between atoms: C_11  and  C_12
REMARK    7  A    between atoms: C_12  and  C_13
REMARK                            x       y       z     vdW  Elec       q    Type
REMARK                         _______ _______ _______ _____ _____    ______ ____
ROOT
ATOM      1  C   UNL     1      47.636   6.857  13.563  0.00  0.00    +0.000 A 
ATOM      2  C   UNL     1      46.657   7.657  12.983  0.00  0.00    +0.000 A 
ATOM      3  C   UNL     1      45.486   7.058  12.513  0.00  0.00    +0.000 A 
ATOM      4  C   UNL     1      45.332   5.680  12.631  0.00  0.00    +0.000 A 
ATOM      5  C   UNL     1      46.346   4.968  13.258  0.00  0.00    +0.000 A 
ATOM      6  N   UNL     1      47.494   5.514  13.719  0.00  0.00    +0.000 NA
ENDROOT
BRANCH   1  10
ATOM      7  C   UNL     1      51.166   8.325  13.792  0.00  0.00    +0.000 C 
ATOM      8  N   UNL     1      49.955   7.779  13.213  0.00  0.00    +0.000 N 
ATOM      9  C   UNL     1      49.859   7.708  11.762  0.00  0.00    +0.000 C 
ATOM     10  C   UNL     1      48.889   7.503  14.082  0.00  0.00    +0.000 C 
ATOM     11  O   UNL     1      48.937   7.795  15.278  0.00  0.00    +0.000 OA
ENDBRANCH   1  10
BRANCH   4  12
ATOM     12  O   UNL     1      44.262   4.953  12.196  0.00  0.00    +0.000 OA
BRANCH  12  13
ATOM     13  C   UNL     1      44.527   3.579  11.909  0.00  0.00    +0.000 C 
BRANCH  13  14
ATOM     14  C   UNL     1      43.863   3.233  10.575  0.00  0.00    +0.000 C 
BRANCH  14  15
ATOM     15  C   UNL     1      44.880   3.152   9.470  0.00  0.00    +0.000 A 
ATOM     16  C   UNL     1      45.317   4.310   8.819  0.00  0.00    +0.000 A 
ATOM     17  C   UNL     1      46.206   4.181   7.762  0.00  0.00    +0.000 A 
ATOM     18  N   UNL     1      46.678   2.998   7.319  0.00  0.00    +0.000 NA
ATOM     19  C   UNL     1      46.248   1.893   7.964  0.00  0.00    +0.000 A 
ATOM     20  C   UNL     1      45.360   1.917   9.028  0.00  0.00    +0.000 A 
ENDBRANCH  14  15
ENDBRANCH  13  14
ENDBRANCH  12  13
ENDBRANCH   4  12
TORSDOF 5
ENDMDL
MODEL 6
REMARK VINA RESULT:    -5.138      3.801      6.178
REMARK INTER + INTRA:          -6.874
REMARK INTER:                  -6.665
REMARK INTRA:                  -0.209
REMARK UNBOUND:                -0.235
REMARK  Name = 
REMARK  7 active torsions:
REMARK  status: ('A' for Active; 'I' for Inactive)
REMARK    1  A    between atoms: C_1  and  N_2
REMARK    2  A    between atoms: N_2  and  C_3
REMARK    3  A    between atoms: C_4  and  C_6
REMARK    4  A    between atoms: C_9  and  O_10
REMARK    5  A    between atoms: O_10  and  C_11
REMARK    6  A    between atoms: C_11  and  C_12
REMARK    7  A    between atoms: C_12  and  C_13
REMARK                            x       y       z     vdW  Elec       q    Type
REMARK                         _______ _______ _______ _____ _____    ______ ____
ROOT
ATOM      1  C   UNL     1      50.389   3.968  17.760  0.00  0.00    +0.000 A 
ATOM      2  C   UNL     1      49.899   5.203  17.349  0.00  0.00    +0.000 A 
ATOM      3  C   UNL     1      48.676   5.253  16.675  0.00  0.00    +0.000 A 
ATOM      4  C   UNL     1      47.985   4.071  16.428  0.00  0.00    +0.000 A 
ATOM      5  C   UNL     1      48.535   2.890  16.909  0.00  0.00    +0.000 A 
ATOM      6  N   UNL     1      49.717   2.804  17.560  0.00  0.00    +0.000 NA
ENDROOT
BRANCH   1  10
ATOM      7  C   UNL     1      53.128   4.490  20.386  0.00  0.00    +0.000 C 
ATOM      8  N   UNL     1      51.819   4.505  19.764  0.00  0.00    +0.000 N 
ATOM      9  C   UNL     1      50.690   4.974  20.554  0.00  0.00    +0.000 C 
ATOM     10  C   UNL     1      51.697   3.915  18.498  0.00  0.00    +0.000 C 
ATOM     11  O   UNL     1      52.638   3.324  17.966  0.00  0.00    +0.000 OA
ENDBRANCH   1  10
BRANCH   4  12
ATOM     12  O   UNL     1      46.800   3.959  15.762  0.00  0.00    +0.000 OA
BRANCH  12  13
ATOM     13  C   UNL     1      46.724   4.661  14.519  0.00  0.00    +0.000 C 
BRANCH  13  14
ATOM     14  C   UNL     1      46.586   3.631  13.396  0.00  0.00    +0.000 C 
BRANCH  14  15
ATOM     15  C   UNL     1      45.456   3.990  12.470  0.00  0.00    +0.000 A 
ATOM     16  C   UNL     1      44.359   3.135  12.321  0.00  0.00    +0.000 A 
ATOM     17  C   UNL     1      43.373   3.475  11.408  0.00  0.00    +0.000 A 
ATOM     18  N   UNL     1      43.407   4.588  10.646  0.00  0.00    +0.000 NA
ATOM     19  C   UNL     1      44.472   5.402  10.809  0.00  0.00    +0.000 A 
ATOM     20  C   UNL     1      45.508   5.149  11.693  0.00  0.00    +0.000 A 
ENDBRANCH  14  15
ENDBRANCH  13  14
ENDBRANCH  12  13
ENDBRANCH   4  12
TORSDOF 5
ENDMDL
MODEL 7
REMARK VINA RESULT:    -5.071      4.568      7.153
REMARK INTER + INTRA:          -6.787
REMARK INTER:                  -6.170
REMARK INTRA:                  -0.618
REMARK UNBOUND:                -0.235
REMARK  Name = 
REMARK  7 active torsions:
REMARK  status: ('A' for Active; 'I' for Inactive)
REMARK    1  A    between atoms: C_1  and  N_2
REMARK    2  A    between atoms: N_2  and  C_3
REMARK    3  A    between atoms: C_4  and  C_6
REMARK    4  A    between atoms: C_9  and  O_10
REMARK    5  A    between atoms: O_10  and  C_11
REMARK    6  A    between atoms: C_11  and  C_12
REMARK    7  A    between atoms: C_12  and  C_13
REMARK                            x       y       z     vdW  Elec       q    Type
REMARK                         _______ _______ _______ _____ _____    ______ ____
ROOT
ATOM      1  C   UNL     1      45.670   6.097  12.483  0.00  0.00    +0.000 A 
ATOM      2  C   UNL     1      46.979   6.162  12.017  0.00  0.00    +0.000 A 
ATOM      3  C   UNL     1      47.567   7.415  11.831  0.00  0.00    +0.000 A 
ATOM      4  C   UNL     1      46.831   8.562  12.110  0.00  0.00    +0.000 A 
ATOM      5  C   UNL     1      45.544   8.398  12.607  0.00  0.00    +0.000 A 
ATOM      6  N   UNL     1      44.941   7.202  12.794  0.00  0.00    +0.000 NA
ENDROOT
BRANCH   1  10
ATOM      7  C   UNL     1      43.511   2.962  12.059  0.00  0.00    +0.000 C 
ATOM      8  N   UNL     1      44.146   4.228  11.752  0.00  0.00    +0.000 N 
ATOM      9  C   UNL     1      43.948   4.792  10.425  0.00  0.00    +0.000 C 
ATOM     10  C   UNL     1      45.041   4.749  12.698  0.00  0.00    +0.000 C 
ATOM     11  O   UNL     1      45.352   4.120  13.710  0.00  0.00    +0.000 OA
ENDBRANCH   1  10
BRANCH   4  12
ATOM     12  O   UNL     1      47.259   9.848  11.952  0.00  0.00    +0.000 OA
BRANCH  12  13
ATOM     13  C   UNL     1      46.253  10.854  12.090  0.00  0.00    +0.000 C 
BRANCH  13  14
ATOM     14  C   UNL     1      45.985  11.455  10.710  0.00  0.00    +0.000 C 
BRANCH  14  15
ATOM     15  C   UNL     1      44.547  11.269  10.309  0.00  0.00    +0.000 A 
ATOM     16  C   UNL     1      44.182  11.242   8.959  0.00  0.00    +0.000 A 
ATOM     17  C   UNL     1      42.838  11.134   8.638  0.00  0.00    +0.000 A 
ATOM     18  N   UNL     1      41.851  11.054   9.555  0.00  0.00    +0.000 NA
ATOM     19  C   UNL     1      42.225  11.076  10.852  0.00  0.00    +0.000 A 
ATOM     20  C   UNL     1      43.541  11.183  11.274  0.00  0.00    +0.000 A 
ENDBRANCH  14  15
ENDBRANCH  13  14
ENDBRANCH  12  13
ENDBRANCH   4  12
TORSDOF 5
ENDMDL
MODEL 8
REMARK VINA RESULT:    -5.055      3.328      5.126
REMARK INTER + INTRA:          -6.767
REMARK INTER:                  -6.372
REMARK INTRA:                  -0.395
REMARK UNBOUND:                -0.235
REMARK  Name = 
REMARK  7 active torsions:
REMARK  status: ('A' for Active; 'I' for Inactive)
REMARK    1  A    between atoms: C_1  and  N_2
REMARK    2  A    between atoms: N_2  and  C_3
REMARK    3  A    between atoms: C_4  and  C_6
REMARK    4  A    between atoms: C_9  and  O_10
REMARK    5  A    between atoms: O_10  and  C_11
REMARK    6  A    between atoms: C_11  and  C_12
REMARK    7  A    between atoms: C_12  and  C_13
REMARK                            x       y       z     vdW  Elec       q    Type
REMARK                         _______ _______ _______ _____ _____    ______ ____
ROOT
ATOM      1  C   UNL     1      48.635   5.581  17.032  0.00  0.00    +0.000 A 
ATOM      2  C   UNL     1      47.785   4.498  16.835  0.00  0.00    +0.000 A 
ATOM      3  C   UNL     1      47.190   4.326  15.583  0.00  0.00    +0.000 A 
ATOM      4  C   UNL     1      47.457   5.241  14.570  0.00  0.00    +0.000 A 
ATOM      5  C   UNL     1      48.348   6.270  14.848  0.00  0.00    +0.000 A 
ATOM      6  N   UNL     1      48.937   6.470  16.049  0.00  0.00    +0.000 NA
ENDROOT
BRANCH   1  10
ATOM      7  C   UNL     1      50.993   5.211  20.028  0.00  0.00    +0.000 C 
ATOM      8  N   UNL     1      50.461   5.058  18.688  0.00  0.00    +0.000 N 
ATOM      9  C   UNL     1      51.258   4.329  17.712  0.00  0.00    +0.000 C 
ATOM     10  C   UNL     1      49.288   5.759  18.374  0.00  0.00    +0.000 C 
ATOM     11  O   UNL     1      48.772   6.548  19.168  0.00  0.00    +0.000 OA
ENDBRANCH   1  10
BRANCH   4  12
ATOM     12  O   UNL     1      46.931   5.220  13.311  0.00  0.00    +0.000 OA
BRANCH  12  13
ATOM     13  C   UNL     1      47.224   6.360  12.502  0.00  0.00    +0.000 C 
BRANCH  13  14
ATOM     14  C   UNL     1      45.899   6.998  12.079  0.00  0.00    +0.000 C 
BRANCH  14  15
ATOM     15  C   UNL     1      44.916   5.953  11.627  0.00  0.00    +0.000 A 
ATOM     16  C   UNL     1      43.771   5.679  12.381  0.00  0.00    +0.000 A 
ATOM     17  C   UNL     1      42.928   4.662  11.961  0.00  0.00    +0.000 A 
ATOM     18  N   UNL     1      43.146   3.913  10.861  0.00  0.00    +0.000 NA
ATOM     19  C   UNL     1      44.254   4.197  10.144  0.00  0.00    +0.000 A 
ATOM     20  C   UNL     1      45.158   5.191  10.482  0.00  0.00    +0.000 A 
ENDBRANCH  14  15
ENDBRANCH  13  14
ENDBRANCH  12  13
ENDBRANCH   4  12
TORSDOF 5
ENDMDL
MODEL 9
REMARK VINA RESULT:    -5.046      3.376      4.753
REMARK INTER + INTRA:          -6.756
REMARK INTER:                  -6.315
REMARK INTRA:                  -0.441
REMARK UNBOUND:                -0.235
REMARK  Name = 
REMARK  7 active torsions:
REMARK  status: ('A' for Active; 'I' for Inactive)
REMARK    1  A    between atoms: C_1  and  N_2
REMARK    2  A    between atoms: N_2  and  C_3
REMARK    3  A    between atoms: C_4  and  C_6
REMARK    4  A    between atoms: C_9  and  O_10
REMARK    5  A    between atoms: O_10  and  C_11
REMARK    6  A    between atoms: C_11  and  C_12
REMARK    7  A    between atoms: C_12  and  C_13
REMARK                            x       y       z     vdW  Elec       q    Type
REMARK                         _______ _______ _______ _____ _____    ______ ____
ROOT
ATOM      1  C   UNL     1      49.709   8.119  12.798  0.00  0.00    +0.000 A 
ATOM      2  C   UNL     1      48.710   8.799  12.110  0.00  0.00    +0.000 A 
ATOM      3  C   UNL     1      47.394   8.342  12.206  0.00  0.00    +0.000 A 
ATOM      4  C   UNL     1      47.117   7.218  12.980  0.00  0.00    +0.000 A 
ATOM      5  C   UNL     1      48.174   6.628  13.660  0.00  0.00    +0.000 A 
ATOM      6  N   UNL     1      49.460   7.040  13.585  0.00  0.00    +0.000 NA
ENDROOT
BRANCH   1  10
ATOM      7  C   UNL     1      53.347   8.616  11.709  0.00  0.00    +0.000 C 
ATOM      8  N   UNL     1      51.973   8.159  11.690  0.00  0.00    +0.000 N 
ATOM      9  C   UNL     1      51.518   7.395  10.538  0.00  0.00    +0.000 C 
ATOM     10  C   UNL     1      51.124   8.619  12.708  0.00  0.00    +0.000 C 
ATOM     11  O   UNL     1      51.498   9.451  13.536  0.00  0.00    +0.000 OA
ENDBRANCH   1  10
BRANCH   4  12
ATOM     12  O   UNL     1      45.892   6.641  13.146  0.00  0.00    +0.000 OA
BRANCH  12  13
ATOM     13  C   UNL     1      45.674   5.437  12.408  0.00  0.00    +0.000 C 
BRANCH  13  14
ATOM     14  C   UNL     1      45.094   5.810  11.043  0.00  0.00    +0.000 C 
BRANCH  14  15
ATOM     15  C   UNL     1      45.131   4.637  10.101  0.00  0.00    +0.000 A 
ATOM     16  C   UNL     1      45.655   4.776   8.812  0.00  0.00    +0.000 A 
ATOM     17  C   UNL     1      45.608   3.686   7.957  0.00  0.00    +0.000 A 
ATOM     18  N   UNL     1      45.083   2.490   8.294  0.00  0.00    +0.000 NA
ATOM     19  C   UNL     1      44.588   2.375   9.545  0.00  0.00    +0.000 A 
ATOM     20  C   UNL     1      44.587   3.406  10.471  0.00  0.00    +0.000 A 
ENDBRANCH  14  15
ENDBRANCH  13  14
ENDBRANCH  12  13
ENDBRANCH   4  12
TORSDOF 5
ENDMDL
