MODEL 1
REMARK VINA RESULT:    -8.030      0.000      0.000
REMARK INTER + INTRA:         -10.453
REMARK INTER:                 -10.143
REMARK INTRA:                  -0.310
REMARK UNBOUND:                -0.310
REMARK  Name = 
REMARK  6 active torsions:
REMARK  status: ('A' for Active; 'I' for Inactive)
REMARK    1  A    between atoms: C_1  and  O_2
REMARK    2  A    between atoms: O_2  and  C_3
REMARK    3  A    between atoms: N_9  and  C_10
REMARK    4  A    between atoms: C_10  and  C_11
REMARK    5  A    between atoms: C_15  and  C_16
REMARK    6  A    between atoms: C_16  and  N_17
REMARK                            x       y       z     vdW  Elec       q    Type
REMARK                         _______ _______ _______ _____ _____    ______ ____
ROOT
ATOM      1  C   UNL     1      46.814   6.205  12.186  0.00  0.00    +0.000 A 
ATOM      2  C   UNL     1      46.580   5.658  13.444  0.00  0.00    +0.000 A 
ATOM      3  N   UNL     1      45.637   4.732  13.744  0.00  0.00    +0.000 NA
ATOM      4  C   UNL     1      44.886   4.328  12.693  0.00  0.00    +0.000 A 
ATOM      5  C   UNL     1      43.833   3.385  12.673  0.00  0.00    +0.000 A 
ATOM      6  C   UNL     1      43.383   3.294  11.375  0.00  0.00    +0.000 A 
ATOM      7  N   UNL     1      44.141   4.144  10.602  0.00  0.00    +0.000 N 
ATOM      8  C   UNL     1      45.052   4.813  11.395  0.00  0.00    +0.000 A 
ATOM      9  C   UNL     1      46.016   5.791  11.121  0.00  0.00    +0.000 A 
ENDROOT
BRANCH   1  11
ATOM     10  C   UNL     1      48.892   7.176  12.737  0.00  0.00    +0.000 C 
ATOM     11  O   UNL     1      47.747   7.161  11.891  0.00  0.00    +0.000 OA
ENDBRANCH   1  11
BRANCH   7  12
ATOM     12  C   UNL     1      44.073   4.196   9.143  0.00  0.00    +0.000 C 
BRANCH  12  13
ATOM     13  C   UNL     1      44.942   3.188   8.445  0.00  0.00    +0.000 A 
ATOM     14  C   UNL     1      45.111   1.924   9.008  0.00  0.00    +0.000 A 
ATOM     15  N   UNL     1      45.955   0.982   8.535  0.00  0.00    +0.000 NA
ATOM     16  C   UNL     1      46.682   1.310   7.444  0.00  0.00    +0.000 A 
ATOM     17  C   UNL     1      46.584   2.526   6.781  0.00  0.00    +0.000 A 
ATOM     18  C   UNL     1      45.703   3.478   7.308  0.00  0.00    +0.000 A 
BRANCH  17  19
ATOM     19  C   UNL     1      47.426   2.826   5.576  0.00  0.00    +0.000 C 
BRANCH  19  20
ATOM     20  N   UNL     1      48.508   1.861   5.433  0.00  0.00    +0.000 NA
ATOM     21  H   UNL     1      48.208   1.110   4.812  0.00  0.00    +0.000 HD
ATOM     22  H   UNL     1      48.687   1.425   6.336  0.00  0.00    +0.000 HD
ENDBRANCH  19  20
ENDBRANCH  17  19
ENDBRANCH  12  13
ENDBRANCH   7  12
TORSDOF 5
ENDMDL
MODEL 2
REMARK VINA RESULT:    -7.201      2.003      2.526
REMARK INTER + INTRA:          -9.405
REMARK INTER:                  -8.913
REMARK INTRA:                  -0.492
REMARK UNBOUND:                -0.310
REMARK  Name = 
REMARK  6 active torsions:
REMARK  status: ('A' for Active; 'I' for Inactive)
REMARK    1  A    between atoms: C_1  and  O_2
REMARK    2  A    between atoms: O_2  and  C_3
REMARK    3  A    between atoms: N_9  and  C_10
REMARK    4  A    between atoms: C_10  and  C_11
REMARK    5  A    between atoms: C_15  and  C_16
REMARK    6  A    between atoms: C_16  and  N_17
REMARK                            x       y       z     vdW  Elec       q    Type
REMARK                         _______ _______ _______ _____ _____    ______ ____
ROOT
ATOM      1  C   UNL     1      44.906   7.715  11.793  0.00  0.00    +0.000 A 
ATOM      2  C   UNL     1      45.740   7.718  12.906  0.00  0.00    +0.000 A 
ATOM      3  N   UNL     1      46.257   6.622  13.513  0.00  0.00    +0.000 NA
ATOM      4  C   UNL     1      45.909   5.444  12.946  0.00  0.00    +0.000 A 
ATOM      5  C   UNL     1      46.278   4.136  13.334  0.00  0.00    +0.000 A 
ATOM      6  C   UNL     1      45.694   3.260  12.446  0.00  0.00    +0.000 A 
ATOM      7  N   UNL     1      44.993   3.998  11.520  0.00  0.00    +0.000 N 
ATOM      8  C   UNL     1      45.086   5.342  11.824  0.00  0.00    +0.000 A 
ATOM      9  C   UNL     1      44.544   6.491  11.235  0.00  0.00    +0.000 A 
ENDROOT
BRANCH   1  11
ATOM     10  C   UNL     1      44.962  10.062  11.557  0.00  0.00    +0.000 C 
ATOM     11  O   UNL     1      44.363   8.821  11.199  0.00  0.00    +0.000 OA
ENDBRANCH   1  11
BRANCH   7  12
ATOM     12  C   UNL     1      44.381   3.431  10.321  0.00  0.00    +0.000 C 
BRANCH  12  13
ATOM     13  C   UNL     1      45.315   3.294   9.152  0.00  0.00    +0.000 A 
ATOM     14  C   UNL     1      45.702   4.433   8.448  0.00  0.00    +0.000 A 
ATOM     15  N   UNL     1      46.439   4.422   7.318  0.00  0.00    +0.000 NA
ATOM     16  C   UNL     1      46.812   3.210   6.847  0.00  0.00    +0.000 A 
ATOM     17  C   UNL     1      46.508   2.007   7.471  0.00  0.00    +0.000 A 
ATOM     18  C   UNL     1      45.736   2.063   8.637  0.00  0.00    +0.000 A 
BRANCH  17  19
ATOM     19  C   UNL     1      46.950   0.696   6.891  0.00  0.00    +0.000 C 
BRANCH  19  20
ATOM     20  N   UNL     1      46.854  -0.376   7.873  0.00  0.00    +0.000 NA
ATOM     21  H   UNL     1      47.260  -1.226   7.484  0.00  0.00    +0.000 HD
ATOM     22  H   UNL     1      45.872  -0.584   8.044  0.00  0.00    +0.000 HD
ENDBRANCH  19  20
ENDBRANCH  17  19
ENDBRANCH  12  13
ENDBRANCH   7  12
TORSDOF 5
ENDMDL
MODEL 3
REMARK VINA RESULT:    -7.088      1.989      2.812
REMARK INTER + INTRA:          -9.264
REMARK INTER:                  -8.638
REMARK INTRA:                  -0.625
REMARK UNBOUND:                -0.310
REMARK  Name = 
REMARK  6 active torsions:
REMARK  status: ('A' for Active; 'I' for Inactive)
REMARK    1  A    between atoms: C_1  and  O_2
REMARK    2  A    between atoms: O_2  and  C_3
REMARK    3  A    between atoms: N_9  and  C_10
REMARK    4  A    between atoms: C_10  and  C_11
REMARK    5  A    between atoms: C_15  and  C_16
REMARK    6  A    between atoms: C_16  and  N_17
REMARK                            x       y       z     vdW  Elec       q    Type
REMARK                         _______ _______ _______ _____ _____    ______ ____
ROOT
ATOM      1  C   UNL     1      47.110   4.463  14.000  0.00  0.00    +0.000 A 
ATOM      2  C   UNL     1      47.649   5.696  14.354  0.00  0.00    +0.000 A 
ATOM      3  N   UNL     1      47.319   6.892  13.811  0.00  0.00    +0.000 NA
ATOM      4  C   UNL     1      46.371   6.834  12.847  0.00  0.00    +0.000 A 
ATOM      5  C   UNL     1      45.813   7.892  12.094  0.00  0.00    +0.000 A 
ATOM      6  C   UNL     1      44.874   7.347  11.246  0.00  0.00    +0.000 A 
ATOM      7  N   UNL     1      44.835   5.990  11.472  0.00  0.00    +0.000 N 
ATOM      8  C   UNL     1      45.767   5.647  12.431  0.00  0.00    +0.000 A 
ATOM      9  C   UNL     1      46.150   4.422  12.992  0.00  0.00    +0.000 A 
ENDROOT
BRANCH   1  11
ATOM     10  C   UNL     1      47.709   3.251  15.933  0.00  0.00    +0.000 C 
ATOM     11  O   UNL     1      47.466   3.254  14.530  0.00  0.00    +0.000 OA
ENDBRANCH   1  11
BRANCH   7  12
ATOM     12  C   UNL     1      43.841   5.095  10.883  0.00  0.00    +0.000 C 
BRANCH  12  13
ATOM     13  C   UNL     1      44.401   4.109   9.895  0.00  0.00    +0.000 A 
ATOM     14  C   UNL     1      44.163   2.748  10.078  0.00  0.00    +0.000 A 
ATOM     15  N   UNL     1      44.708   1.768   9.327  0.00  0.00    +0.000 NA
ATOM     16  C   UNL     1      45.546   2.154   8.339  0.00  0.00    +0.000 A 
ATOM     17  C   UNL     1      45.842   3.479   8.044  0.00  0.00    +0.000 A 
ATOM     18  C   UNL     1      45.261   4.464   8.851  0.00  0.00    +0.000 A 
BRANCH  17  19
ATOM     19  C   UNL     1      46.785   3.837   6.933  0.00  0.00    +0.000 C 
BRANCH  19  20
ATOM     20  N   UNL     1      47.901   2.903   6.865  0.00  0.00    +0.000 NA
ATOM     21  H   UNL     1      47.661   2.139   6.234  0.00  0.00    +0.000 HD
ATOM     22  H   UNL     1      48.037   2.479   7.781  0.00  0.00    +0.000 HD
ENDBRANCH  19  20
ENDBRANCH  17  19
ENDBRANCH  12  13
ENDBRANCH   7  12
TORSDOF 5
ENDMDL
MODEL 4
REMARK VINA RESULT:    -6.927      2.387      5.935
REMARK INTER + INTRA:          -9.059
REMARK INTER:                  -8.488
REMARK INTRA:                  -0.571
REMARK UNBOUND:                -0.310
REMARK  Name = 
REMARK  6 active torsions:
REMARK  status: ('A' for Active; 'I' for Inactive)
REMARK    1  A    between atoms: C_1  and  O_2
REMARK    2  A    between atoms: O_2  and  C_3
REMARK    3  A    between atoms: N_9  and  C_10
REMARK    4  A    between atoms: C_10  and  C_11
REMARK    5  A    between atoms: C_15  and  C_16
REMARK    6  A    between atoms: C_16  and  N_17
REMARK                            x       y       z     vdW  Elec       q    Type
REMARK                         _______ _______ _______ _____ _____    ______ ____
ROOT
ATOM      1  C   UNL     1      45.647   3.770   8.224  0.00  0.00    +0.000 A 
ATOM      2  C   UNL     1      45.334   2.438   8.477  0.00  0.00    +0.000 A 
ATOM      3  N   UNL     1      44.616   1.978   9.529  0.00  0.00    +0.000 NA
ATOM      4  C   UNL     1      44.178   2.936  10.379  0.00  0.00    +0.000 A 
ATOM      5  C   UNL     1      43.413   2.787  11.557  0.00  0.00    +0.000 A 
ATOM      6  C   UNL     1      43.199   4.045  12.075  0.00  0.00    +0.000 A 
ATOM      7  N   UNL     1      43.801   4.956  11.238  0.00  0.00    +0.000 N 
ATOM      8  C   UNL     1      44.435   4.296  10.203  0.00  0.00    +0.000 A 
ATOM      9  C   UNL     1      45.205   4.739   9.120  0.00  0.00    +0.000 A 
ENDROOT
BRANCH   1  11
ATOM     10  C   UNL     1      46.764   3.247   6.212  0.00  0.00    +0.000 C 
ATOM     11  O   UNL     1      46.396   4.229   7.176  0.00  0.00    +0.000 OA
ENDBRANCH   1  11
BRANCH   7  12
ATOM     12  C   UNL     1      43.646   6.404  11.363  0.00  0.00    +0.000 C 
BRANCH  12  13
ATOM     13  C   UNL     1      44.843   7.110  11.937  0.00  0.00    +0.000 A 
ATOM     14  C   UNL     1      45.000   8.477  11.719  0.00  0.00    +0.000 A 
ATOM     15  N   UNL     1      46.087   9.191  12.083  0.00  0.00    +0.000 NA
ATOM     16  C   UNL     1      47.083   8.511  12.694  0.00  0.00    +0.000 A 
ATOM     17  C   UNL     1      47.033   7.155  12.987  0.00  0.00    +0.000 A 
ATOM     18  C   UNL     1      45.892   6.450  12.586  0.00  0.00    +0.000 A 
BRANCH  17  19
ATOM     19  C   UNL     1      48.179   6.462  13.665  0.00  0.00    +0.000 C 
BRANCH  19  20
ATOM     20  N   UNL     1      49.424   6.663  12.936  0.00  0.00    +0.000 NA
ATOM     21  H   UNL     1      50.140   6.993  13.582  0.00  0.00    +0.000 HD
ATOM     22  H   UNL     1      49.294   7.408  12.254  0.00  0.00    +0.000 HD
ENDBRANCH  19  20
ENDBRANCH  17  19
ENDBRANCH  12  13
ENDBRANCH   7  12
TORSDOF 5
ENDMDL
MODEL 5
REMARK VINA RESULT:    -6.787      1.646      2.756
REMARK INTER + INTRA:          -8.882
REMARK INTER:                  -8.415
REMARK INTRA:                  -0.467
REMARK UNBOUND:                -0.310
REMARK  Name = 
REMARK  6 active torsions:
REMARK  status: ('A' for Active; 'I' for Inactive)
REMARK    1  A    between atoms: C_1  and  O_2
REMARK    2  A    between atoms: O_2  and  C_3
REMARK    3  A    between atoms: N_9  and  C_10
REMARK    4  A    between atoms: C_10  and  C_11
REMARK    5  A    between atoms: C_15  and  C_16
REMARK    6  A    between atoms: C_16  and  N_17
REMARK                            x       y       z     vdW  Elec       q    Type
REMARK                         _______ _______ _______ _____ _____    ______ ____
ROOT
ATOM      1  C   UNL     1      48.545   7.780  12.140  0.00  0.00    +0.000 A 
ATOM      2  C   UNL     1      49.188   7.165  13.210  0.00  0.00    +0.000 A 
ATOM      3  N   UNL     1      48.684   6.164  13.970  0.00  0.00    +0.000 NA
ATOM      4  C   UNL     1      47.444   5.753  13.615  0.00  0.00    +0.000 A 
ATOM      5  C   UNL     1      46.650   4.740  14.199  0.00  0.00    +0.000 A 
ATOM      6  C   UNL     1      45.474   4.672  13.486  0.00  0.00    +0.000 A 
ATOM      7  N   UNL     1      45.536   5.605  12.476  0.00  0.00    +0.000 N 
ATOM      8  C   UNL     1      46.725   6.302  12.553  0.00  0.00    +0.000 A 
ATOM      9  C   UNL     1      47.262   7.356  11.802  0.00  0.00    +0.000 A 
ENDROOT
BRANCH   1  11
ATOM     10  C   UNL     1      49.285  10.020  12.104  0.00  0.00    +0.000 C 
ATOM     11  O   UNL     1      49.045   8.810  11.392  0.00  0.00    +0.000 OA
ENDBRANCH   1  11
BRANCH   7  12
ATOM     12  C   UNL     1      44.546   5.713  11.406  0.00  0.00    +0.000 C 
BRANCH  12  13
ATOM     13  C   UNL     1      44.550   4.565  10.437  0.00  0.00    +0.000 A 
ATOM     14  C   UNL     1      43.876   3.390  10.766  0.00  0.00    +0.000 A 
ATOM     15  N   UNL     1      43.907   2.258  10.032  0.00  0.00    +0.000 NA
ATOM     16  C   UNL     1      44.656   2.283   8.907  0.00  0.00    +0.000 A 
ATOM     17  C   UNL     1      45.353   3.399   8.462  0.00  0.00    +0.000 A 
ATOM     18  C   UNL     1      45.300   4.551   9.256  0.00  0.00    +0.000 A 
BRANCH  17  19
ATOM     19  C   UNL     1      46.170   3.357   7.204  0.00  0.00    +0.000 C 
BRANCH  19  20
ATOM     20  N   UNL     1      47.144   4.439   7.170  0.00  0.00    +0.000 NA
ATOM     21  H   UNL     1      47.531   4.513   6.230  0.00  0.00    +0.000 HD
ATOM     22  H   UNL     1      47.926   4.203   7.779  0.00  0.00    +0.000 HD
ENDBRANCH  19  20
ENDBRANCH  17  19
ENDBRANCH  12  13
ENDBRANCH   7  12
TORSDOF 5
ENDMDL
MODEL 6
REMARK VINA RESULT:    -6.770      2.350      5.855
REMARK INTER + INTRA:          -8.861
REMARK INTER:                  -8.326
REMARK INTRA:                  -0.535
REMARK UNBOUND:                -0.310
REMARK  Name = 
REMARK  6 active torsions:
REMARK  status: ('A' for Active; 'I' for Inactive)
REMARK    1  A    between atoms: C_1  and  O_2
REMARK    2  A    between atoms: O_2  and  C_3
REMARK    3  A    between atoms: N_9  and  C_10
REMARK    4  A    between atoms: C_10  and  C_11
REMARK    5  A    between atoms: C_15  and  C_16
REMARK    6  A    between atoms: C_16  and  N_17
REMARK                            x       y       z     vdW  Elec       q    Type
REMARK                         _______ _______ _______ _____ _____    ______ ____
ROOT
ATOM      1  C   UNL     1      45.461   3.965   8.424  0.00  0.00    +0.000 A 
ATOM      2  C   UNL     1      44.745   2.778   8.544  0.00  0.00    +0.000 A 
ATOM      3  N   UNL     1      44.059   2.373   9.639  0.00  0.00    +0.000 NA
ATOM      4  C   UNL     1      44.096   3.234  10.682  0.00  0.00    +0.000 A 
ATOM      5  C   UNL     1      43.490   3.108  11.953  0.00  0.00    +0.000 A 
ATOM      6  C   UNL     1      43.795   4.242  12.672  0.00  0.00    +0.000 A 
ATOM      7  N   UNL     1      44.557   5.061  11.871  0.00  0.00    +0.000 N 
ATOM      8  C   UNL     1      44.781   4.450  10.652  0.00  0.00    +0.000 A 
ATOM      9  C   UNL     1      45.505   4.829   9.515  0.00  0.00    +0.000 A 
ENDROOT
BRANCH   1  11
ATOM     10  C   UNL     1      46.557   3.312   6.439  0.00  0.00    +0.000 C 
ATOM     11  O   UNL     1      46.177   4.359   7.327  0.00  0.00    +0.000 OA
ENDBRANCH   1  11
BRANCH   7  12
ATOM     12  C   UNL     1      44.930   6.429  12.225  0.00  0.00    +0.000 C 
BRANCH  12  13
ATOM     13  C   UNL     1      46.408   6.650  12.380  0.00  0.00    +0.000 A 
ATOM     14  C   UNL     1      47.156   5.759  13.148  0.00  0.00    +0.000 A 
ATOM     15  N   UNL     1      48.461   5.919  13.453  0.00  0.00    +0.000 NA
ATOM     16  C   UNL     1      49.065   7.031  12.977  0.00  0.00    +0.000 A 
ATOM     17  C   UNL     1      48.433   7.978  12.182  0.00  0.00    +0.000 A 
ATOM     18  C   UNL     1      47.078   7.779  11.895  0.00  0.00    +0.000 A 
BRANCH  17  19
ATOM     19  C   UNL     1      49.163   9.194  11.691  0.00  0.00    +0.000 C 
BRANCH  19  20
ATOM     20  N   UNL     1      48.242  10.292  11.426  0.00  0.00    +0.000 NA
ATOM     21  H   UNL     1      48.378  10.620  10.470  0.00  0.00    +0.000 HD
ATOM     22  H   UNL     1      48.478  11.077  12.030  0.00  0.00    +0.000 HD
ENDBRANCH  19  20
ENDBRANCH  17  19
ENDBRANCH  12  13
ENDBRANCH   7  12
TORSDOF 5
ENDMDL
MODEL 7
REMARK VINA RESULT:    -6.278      2.842      3.642
REMARK INTER + INTRA:          -8.240
REMARK INTER:                  -7.773
REMARK INTRA:                  -0.466
REMARK UNBOUND:                -0.310
REMARK  Name = 
REMARK  6 active torsions:
REMARK  status: ('A' for Active; 'I' for Inactive)
REMARK    1  A    between atoms: C_1  and  O_2
REMARK    2  A    between atoms: O_2  and  C_3
REMARK    3  A    between atoms: N_9  and  C_10
REMARK    4  A    between atoms: C_10  and  C_11
REMARK    5  A    between atoms: C_15  and  C_16
REMARK    6  A    between atoms: C_16  and  N_17
REMARK                            x       y       z     vdW  Elec       q    Type
REMARK                         _______ _______ _______ _____ _____    ______ ____
ROOT
ATOM      1  C   UNL     1      45.168   9.962  11.576  0.00  0.00    +0.000 A 
ATOM      2  C   UNL     1      46.460   9.967  12.095  0.00  0.00    +0.000 A 
ATOM      3  N   UNL     1      47.165   8.875  12.477  0.00  0.00    +0.000 NA
ATOM      4  C   UNL     1      46.517   7.698  12.315  0.00  0.00    +0.000 A 
ATOM      5  C   UNL     1      46.972   6.393  12.614  0.00  0.00    +0.000 A 
ATOM      6  C   UNL     1      45.972   5.515  12.264  0.00  0.00    +0.000 A 
ATOM      7  N   UNL     1      44.926   6.246  11.748  0.00  0.00    +0.000 N 
ATOM      8  C   UNL     1      45.227   7.593  11.796  0.00  0.00    +0.000 A 
ATOM      9  C   UNL     1      44.512   8.742  11.436  0.00  0.00    +0.000 A 
ENDROOT
BRANCH   1  11
ATOM     10  C   UNL     1      43.039  10.963  11.401  0.00  0.00    +0.000 C 
ATOM     11  O   UNL     1      44.448  11.068  11.217  0.00  0.00    +0.000 OA
ENDBRANCH   1  11
BRANCH   7  12
ATOM     12  C   UNL     1      43.753   5.652  11.111  0.00  0.00    +0.000 C 
BRANCH  12  13
ATOM     13  C   UNL     1      44.051   4.453  10.255  0.00  0.00    +0.000 A 
ATOM     14  C   UNL     1      43.726   3.181  10.722  0.00  0.00    +0.000 A 
ATOM     15  N   UNL     1      44.050   2.029  10.096  0.00  0.00    +0.000 NA
ATOM     16  C   UNL     1      44.744   2.139   8.941  0.00  0.00    +0.000 A 
ATOM     17  C   UNL     1      45.105   3.350   8.364  0.00  0.00    +0.000 A 
ATOM     18  C   UNL     1      44.756   4.520   9.048  0.00  0.00    +0.000 A 
BRANCH  17  19
ATOM     19  C   UNL     1      45.880   3.400   7.080  0.00  0.00    +0.000 C 
BRANCH  19  20
ATOM     20  N   UNL     1      47.004   4.322   7.177  0.00  0.00    +0.000 NA
ATOM     21  H   UNL     1      47.869   3.789   7.257  0.00  0.00    +0.000 HD
ATOM     22  H   UNL     1      46.922   4.858   8.038  0.00  0.00    +0.000 HD
ENDBRANCH  19  20
ENDBRANCH  17  19
ENDBRANCH  12  13
ENDBRANCH   7  12
TORSDOF 5
ENDMDL
MODEL 8
REMARK VINA RESULT:    -5.958      2.877      5.272
REMARK INTER + INTRA:          -7.835
REMARK INTER:                  -7.318
REMARK INTRA:                  -0.518
REMARK UNBOUND:                -0.310
REMARK  Name = 
REMARK  6 active torsions:
REMARK  status: ('A' for Active; 'I' for Inactive)
REMARK    1  A    between atoms: C_1  and  O_2
REMARK    2  A    between atoms: O_2  and  C_3
REMARK    3  A    between atoms: N_9  and  C_10
REMARK    4  A    between atoms: C_10  and  C_11
REMARK    5  A    between atoms: C_15  and  C_16
REMARK    6  A    between atoms: C_16  and  N_17
REMARK                            x       y       z     vdW  Elec       q    Type
REMARK                         _______ _______ _______ _____ _____    ______ ____
ROOT
ATOM      1  C   UNL     1      45.626  10.023  12.189  0.00  0.00    +0.000 A 
ATOM      2  C   UNL     1      46.809  10.552  11.683  0.00  0.00    +0.000 A 
ATOM      3  N   UNL     1      48.011   9.928  11.658  0.00  0.00    +0.000 NA
ATOM      4  C   UNL     1      48.010   8.677  12.175  0.00  0.00    +0.000 A 
ATOM      5  C   UNL     1      49.089   7.772  12.294  0.00  0.00    +0.000 A 
ATOM      6  C   UNL     1      48.601   6.619  12.868  0.00  0.00    +0.000 A 
ATOM      7  N   UNL     1      47.254   6.792  13.089  0.00  0.00    +0.000 N 
ATOM      8  C   UNL     1      46.873   8.061  12.698  0.00  0.00    +0.000 A 
ATOM      9  C   UNL     1      45.650   8.742  12.736  0.00  0.00    +0.000 A 
ENDROOT
BRANCH   1  11
ATOM     10  C   UNL     1      43.612  10.539  11.074  0.00  0.00    +0.000 C 
ATOM     11  O   UNL     1      44.420  10.666  12.240  0.00  0.00    +0.000 OA
ENDBRANCH   1  11
BRANCH   7  12
ATOM     12  C   UNL     1      46.357   5.725  13.527  0.00  0.00    +0.000 C 
BRANCH  12  13
ATOM     13  C   UNL     1      45.245   5.413  12.565  0.00  0.00    +0.000 A 
ATOM     14  C   UNL     1      43.925   5.443  13.012  0.00  0.00    +0.000 A 
ATOM     15  N   UNL     1      42.858   5.070  12.274  0.00  0.00    +0.000 NA
ATOM     16  C   UNL     1      43.110   4.632  11.020  0.00  0.00    +0.000 A 
ATOM     17  C   UNL     1      44.377   4.578  10.455  0.00  0.00    +0.000 A 
ATOM     18  C   UNL     1      45.457   4.967  11.256  0.00  0.00    +0.000 A 
BRANCH  17  19
ATOM     19  C   UNL     1      44.586   4.076   9.056  0.00  0.00    +0.000 C 
BRANCH  19  20
ATOM     20  N   UNL     1      45.557   4.893   8.341  0.00  0.00    +0.000 NA
ATOM     21  H   UNL     1      45.132   5.247   7.485  0.00  0.00    +0.000 HD
ATOM     22  H   UNL     1      46.335   4.305   8.047  0.00  0.00    +0.000 HD
ENDBRANCH  19  20
ENDBRANCH  17  19
ENDBRANCH  12  13
ENDBRANCH   7  12
TORSDOF 5
ENDMDL
MODEL 9
REMARK VINA RESULT:    -5.807      4.339      7.836
REMARK INTER + INTRA:          -7.645
REMARK INTER:                  -7.037
REMARK INTRA:                  -0.608
REMARK UNBOUND:                -0.310
REMARK  Name = 
REMARK  6 active torsions:
REMARK  status: ('A' for Active; 'I' for Inactive)
REMARK    1  A    between atoms: C_1  and  O_2
REMARK    2  A    between atoms: O_2  and  C_3
REMARK    3  A    between atoms: N_9  and  C_10
REMARK    4  A    between atoms: C_10  and  C_11
REMARK    5  A    between atoms: C_15  and  C_16
REMARK    6  A    between atoms: C_16  and  N_17
REMARK                            x       y       z     vdW  Elec       q    Type
REMARK                         _______ _______ _______ _____ _____    ______ ____
ROOT
ATOM      1  C   UNL     1      44.732   4.469  12.545  0.00  0.00    +0.000 A 
ATOM      2  C   UNL     1      43.865   5.384  11.955  0.00  0.00    +0.000 A 
ATOM      3  N   UNL     1      44.048   6.725  11.897  0.00  0.00    +0.000 NA
ATOM      4  C   UNL     1      45.192   7.166  12.471  0.00  0.00    +0.000 A 
ATOM      5  C   UNL     1      45.671   8.492  12.576  0.00  0.00    +0.000 A 
ATOM      6  C   UNL     1      46.884   8.444  13.226  0.00  0.00    +0.000 A 
ATOM      7  N   UNL     1      47.164   7.126  13.506  0.00  0.00    +0.000 N 
ATOM      8  C   UNL     1      46.124   6.324  13.078  0.00  0.00    +0.000 A 
ATOM      9  C   UNL     1      45.894   4.944  13.147  0.00  0.00    +0.000 A 
ENDROOT
BRANCH   1  11
ATOM     10  C   UNL     1      43.411   2.622  11.901  0.00  0.00    +0.000 C 
ATOM     11  O   UNL     1      44.532   3.118  12.627  0.00  0.00    +0.000 OA
ENDBRANCH   1  11
BRANCH   7  12
ATOM     12  C   UNL     1      48.442   6.660  14.038  0.00  0.00    +0.000 C 
BRANCH  12  13
ATOM     13  C   UNL     1      48.428   6.351  15.509  0.00  0.00    +0.000 A 
ATOM     14  C   UNL     1      48.849   7.322  16.416  0.00  0.00    +0.000 A 
ATOM     15  N   UNL     1      48.989   7.121  17.743  0.00  0.00    +0.000 NA
ATOM     16  C   UNL     1      48.704   5.883  18.204  0.00  0.00    +0.000 A 
ATOM     17  C   UNL     1      48.255   4.840  17.404  0.00  0.00    +0.000 A 
ATOM     18  C   UNL     1      48.129   5.088  16.032  0.00  0.00    +0.000 A 
BRANCH  17  19
ATOM     19  C   UNL     1      47.960   3.487  17.981  0.00  0.00    +0.000 C 
BRANCH  19  20
ATOM     20  N   UNL     1      46.626   3.033  17.611  0.00  0.00    +0.000 NA
ATOM     21  H   UNL     1      46.703   2.312  16.895  0.00  0.00    +0.000 HD
ATOM     22  H   UNL     1      46.119   3.805  17.182  0.00  0.00    +0.000 HD
ENDBRANCH  19  20
ENDBRANCH  17  19
ENDBRANCH  12  13
ENDBRANCH   7  12
TORSDOF 5
ENDMDL
