MODEL 1
REMARK VINA RESULT:    -8.282      0.000      0.000
REMARK INTER + INTRA:         -11.297
REMARK INTER:                 -10.703
REMARK INTRA:                  -0.595
REMARK UNBOUND:                -0.595
REMARK  Name = 
REMARK  7 active torsions:
REMARK  status: ('A' for Active; 'I' for Inactive)
REMARK    1  A    between atoms: C_1  and  O_2
REMARK    2  A    between atoms: O_2  and  C_3
REMARK    3  A    between atoms: C_6  and  C_7
REMARK    4  A    between atoms: C_7  and  C_8
REMARK    5  A    between atoms: C_7  and  N_9
REMARK    6  A    between atoms: N_9  and  C_10
REMARK    7  A    between atoms: C_13  and  C_14
REMARK                            x       y       z     vdW  Elec       q    Type
REMARK                         _______ _______ _______ _____ _____    ______ ____
ROOT
ATOM      1  N   UNL     1      43.751   4.829   9.849  0.00  0.00    +0.000 N 
ATOM      2  H   UNL     1      44.049   5.784   9.645  0.00  0.00    +0.000 HD
ENDROOT
BRANCH   1   3
ATOM      3  C   UNL     1      44.571   3.919   9.158  0.00  0.00    +0.000 A 
ATOM      4  C   UNL     1      45.556   4.300   8.246  0.00  0.00    +0.000 A 
ATOM      5  C   UNL     1      46.383   3.354   7.640  0.00  0.00    +0.000 A 
ATOM      6  C   UNL     1      46.218   2.023   7.979  0.00  0.00    +0.000 A 
ATOM      7  N   UNL     1      45.313   1.587   8.895  0.00  0.00    +0.000 NA
ATOM      8  C   UNL     1      44.538   2.550   9.466  0.00  0.00    +0.000 A 
BRANCH   6   9
ATOM      9  C   UNL     1      47.073   0.994   7.307  0.00  0.00    +0.000 C 
ATOM     10  N   UNL     1      46.808  -0.308   7.642  0.00  0.00    +0.000 N 
ATOM     11  O   UNL     1      47.949   1.281   6.501  0.00  0.00    +0.000 OA
ATOM     12  H   UNL     1      46.068  -0.514   8.301  0.00  0.00    +0.000 HD
ATOM     13  H   UNL     1      47.338  -1.047   7.205  0.00  0.00    +0.000 HD
ENDBRANCH   6   9
ENDBRANCH   1   3
BRANCH   1  14
ATOM     14  C   UNL     1      43.555   4.657  11.307  0.00  0.00    +0.000 C 
ATOM     15  C   UNL     1      42.449   5.575  11.840  0.00  0.00    +0.000 C 
BRANCH  14  19
ATOM     16  C   UNL     1      47.070   5.540  13.621  0.00  0.00    +0.000 A 
ATOM     17  C   UNL     1      46.696   6.414  12.607  0.00  0.00    +0.000 A 
ATOM     18  C   UNL     1      45.585   6.119  11.815  0.00  0.00    +0.000 A 
ATOM     19  C   UNL     1      44.852   4.957  12.066  0.00  0.00    +0.000 A 
ATOM     20  N   UNL     1      45.220   4.076  13.028  0.00  0.00    +0.000 NA
ATOM     21  C   UNL     1      46.308   4.388  13.775  0.00  0.00    +0.000 A 
BRANCH  16  23
ATOM     22  C   UNL     1      48.644   7.012  14.606  0.00  0.00    +0.000 C 
ATOM     23  O   UNL     1      48.109   5.700  14.488  0.00  0.00    +0.000 OA
ENDBRANCH  16  23
ENDBRANCH  14  19
ENDBRANCH   1  14
TORSDOF 5
ENDMDL
MODEL 2
REMARK VINA RESULT:    -6.741      1.679      6.382
REMARK INTER + INTRA:          -9.305
REMARK INTER:                  -9.390
REMARK INTRA:                   0.085
REMARK UNBOUND:                -0.595
REMARK  Name = 
REMARK  7 active torsions:
REMARK  status: ('A' for Active; 'I' for Inactive)
REMARK    1  A    between atoms: C_1  and  O_2
REMARK    2  A    between atoms: O_2  and  C_3
REMARK    3  A    between atoms: C_6  and  C_7
REMARK    4  A    between atoms: C_7  and  C_8
REMARK    5  A    between atoms: C_7  and  N_9
REMARK    6  A    between atoms: N_9  and  C_10
REMARK    7  A    between atoms: C_13  and  C_14
REMARK                            x       y       z     vdW  Elec       q    Type
REMARK                         _______ _______ _______ _____ _____    ______ ____
ROOT
ATOM      1  N   UNL     1      44.262   5.554  10.399  0.00  0.00    +0.000 N 
ATOM      2  H   UNL     1      43.457   6.127  10.655  0.00  0.00    +0.000 HD
ENDROOT
BRANCH   1   3
ATOM      3  C   UNL     1      45.240   5.635  11.407  0.00  0.00    +0.000 A 
ATOM      4  C   UNL     1      46.456   6.304  11.256  0.00  0.00    +0.000 A 
ATOM      5  C   UNL     1      47.358   6.405  12.314  0.00  0.00    +0.000 A 
ATOM      6  C   UNL     1      47.014   5.842  13.530  0.00  0.00    +0.000 A 
ATOM      7  N   UNL     1      45.827   5.218  13.760  0.00  0.00    +0.000 NA
ATOM      8  C   UNL     1      44.976   5.156  12.699  0.00  0.00    +0.000 A 
BRANCH   6   9
ATOM      9  C   UNL     1      47.991   5.910  14.662  0.00  0.00    +0.000 C 
ATOM     10  N   UNL     1      47.592   5.309  15.827  0.00  0.00    +0.000 N 
ATOM     11  O   UNL     1      49.083   6.454  14.565  0.00  0.00    +0.000 OA
ATOM     12  H   UNL     1      46.688   4.855  15.872  0.00  0.00    +0.000 HD
ATOM     13  H   UNL     1      48.217   5.305  16.619  0.00  0.00    +0.000 HD
ENDBRANCH   6   9
ENDBRANCH   1   3
BRANCH   1  14
ATOM     14  C   UNL     1      43.813   4.220   9.939  0.00  0.00    +0.000 C 
ATOM     15  C   UNL     1      43.471   3.301  11.118  0.00  0.00    +0.000 C 
BRANCH  14  19
ATOM     16  C   UNL     1      46.719   2.356   7.376  0.00  0.00    +0.000 A 
ATOM     17  C   UNL     1      46.077   1.584   8.336  0.00  0.00    +0.000 A 
ATOM     18  C   UNL     1      45.165   2.182   9.207  0.00  0.00    +0.000 A 
ATOM     19  C   UNL     1      44.896   3.548   9.089  0.00  0.00    +0.000 A 
ATOM     20  N   UNL     1      45.537   4.324   8.181  0.00  0.00    +0.000 NA
ATOM     21  C   UNL     1      46.422   3.714   7.354  0.00  0.00    +0.000 A 
BRANCH  16  23
ATOM     22  C   UNL     1      47.621   2.603   5.198  0.00  0.00    +0.000 C 
ATOM     23  O   UNL     1      47.611   1.917   6.444  0.00  0.00    +0.000 OA
ENDBRANCH  16  23
ENDBRANCH  14  19
ENDBRANCH   1  14
TORSDOF 5
ENDMDL
MODEL 3
REMARK VINA RESULT:    -6.453      2.137      6.485
REMARK INTER + INTRA:          -8.934
REMARK INTER:                  -8.346
REMARK INTRA:                  -0.588
REMARK UNBOUND:                -0.595
REMARK  Name = 
REMARK  7 active torsions:
REMARK  status: ('A' for Active; 'I' for Inactive)
REMARK    1  A    between atoms: C_1  and  O_2
REMARK    2  A    between atoms: O_2  and  C_3
REMARK    3  A    between atoms: C_6  and  C_7
REMARK    4  A    between atoms: C_7  and  C_8
REMARK    5  A    between atoms: C_7  and  N_9
REMARK    6  A    between atoms: N_9  and  C_10
REMARK    7  A    between atoms: C_13  and  C_14
REMARK                            x       y       z     vdW  Elec       q    Type
REMARK                         _______ _______ _______ _____ _____    ______ ____
ROOT
ATOM      1  N   UNL     1      45.160   4.834  12.372  0.00  0.00    +0.000 N 
ATOM      2  H   UNL     1      45.339   3.833  12.469  0.00  0.00    +0.000 HD
ENDROOT
BRANCH   1   3
ATOM      3  C   UNL     1      46.343   5.552  12.623  0.00  0.00    +0.000 A 
ATOM      4  C   UNL     1      46.755   6.655  11.874  0.00  0.00    +0.000 A 
ATOM      5  C   UNL     1      47.906   7.366  12.211  0.00  0.00    +0.000 A 
ATOM      6  C   UNL     1      48.625   6.966  13.324  0.00  0.00    +0.000 A 
ATOM      7  N   UNL     1      48.255   5.932  14.126  0.00  0.00    +0.000 NA
ATOM      8  C   UNL     1      47.119   5.277  13.761  0.00  0.00    +0.000 A 
BRANCH   6   9
ATOM      9  C   UNL     1      49.883   7.697  13.674  0.00  0.00    +0.000 C 
ATOM     10  N   UNL     1      50.819   7.779  12.676  0.00  0.00    +0.000 N 
ATOM     11  O   UNL     1      50.075   8.203  14.772  0.00  0.00    +0.000 OA
ATOM     12  H   UNL     1      50.626   7.362  11.773  0.00  0.00    +0.000 HD
ATOM     13  H   UNL     1      51.679   8.277  12.846  0.00  0.00    +0.000 HD
ENDBRANCH   6   9
ENDBRANCH   1   3
BRANCH   1  14
ATOM     14  C   UNL     1      44.409   5.100  11.124  0.00  0.00    +0.000 C 
ATOM     15  C   UNL     1      42.907   4.848  11.304  0.00  0.00    +0.000 C 
BRANCH  14  19
ATOM     16  C   UNL     1      46.006   2.533   8.067  0.00  0.00    +0.000 A 
ATOM     17  C   UNL     1      46.169   3.908   7.942  0.00  0.00    +0.000 A 
ATOM     18  C   UNL     1      45.616   4.758   8.901  0.00  0.00    +0.000 A 
ATOM     19  C   UNL     1      44.923   4.214   9.984  0.00  0.00    +0.000 A 
ATOM     20  N   UNL     1      44.725   2.878  10.105  0.00  0.00    +0.000 NA
ATOM     21  C   UNL     1      45.268   2.079   9.153  0.00  0.00    +0.000 A 
BRANCH  16  23
ATOM     22  C   UNL     1      47.742   1.870   6.595  0.00  0.00    +0.000 C 
ATOM     23  O   UNL     1      46.503   1.578   7.230  0.00  0.00    +0.000 OA
ENDBRANCH  16  23
ENDBRANCH  14  19
ENDBRANCH   1  14
TORSDOF 5
ENDMDL
MODEL 4
REMARK VINA RESULT:    -6.377      2.532      6.828
REMARK INTER + INTRA:          -8.836
REMARK INTER:                  -8.266
REMARK INTRA:                  -0.570
REMARK UNBOUND:                -0.595
REMARK  Name = 
REMARK  7 active torsions:
REMARK  status: ('A' for Active; 'I' for Inactive)
REMARK    1  A    between atoms: C_1  and  O_2
REMARK    2  A    between atoms: O_2  and  C_3
REMARK    3  A    between atoms: C_6  and  C_7
REMARK    4  A    between atoms: C_7  and  C_8
REMARK    5  A    between atoms: C_7  and  N_9
REMARK    6  A    between atoms: N_9  and  C_10
REMARK    7  A    between atoms: C_13  and  C_14
REMARK                            x       y       z     vdW  Elec       q    Type
REMARK                         _______ _______ _______ _____ _____    ______ ____
ROOT
ATOM      1  N   UNL     1      45.323   4.469  11.927  0.00  0.00    +0.000 N 
ATOM      2  H   UNL     1      46.183   3.933  11.803  0.00  0.00    +0.000 HD
ENDROOT
BRANCH   1   3
ATOM      3  C   UNL     1      45.629   5.839  12.020  0.00  0.00    +0.000 A 
ATOM      4  C   UNL     1      46.928   6.338  12.138  0.00  0.00    +0.000 A 
ATOM      5  C   UNL     1      47.173   7.710  12.160  0.00  0.00    +0.000 A 
ATOM      6  C   UNL     1      46.098   8.573  12.043  0.00  0.00    +0.000 A 
ATOM      7  N   UNL     1      44.814   8.157  11.876  0.00  0.00    +0.000 NA
ATOM      8  C   UNL     1      44.628   6.808  11.850  0.00  0.00    +0.000 A 
BRANCH   6   9
ATOM      9  C   UNL     1      46.345  10.048  12.105  0.00  0.00    +0.000 C 
ATOM     10  N   UNL     1      45.224  10.835  12.152  0.00  0.00    +0.000 N 
ATOM     11  O   UNL     1      47.468  10.534  12.123  0.00  0.00    +0.000 OA
ATOM     12  H   UNL     1      44.309  10.403  12.150  0.00  0.00    +0.000 HD
ATOM     13  H   UNL     1      45.327  11.837  12.216  0.00  0.00    +0.000 HD
ENDBRANCH   6   9
ENDBRANCH   1   3
BRANCH   1  14
ATOM     14  C   UNL     1      44.300   4.025  10.953  0.00  0.00    +0.000 C 
ATOM     15  C   UNL     1      43.408   2.922  11.534  0.00  0.00    +0.000 C 
BRANCH  14  19
ATOM     16  C   UNL     1      46.336   2.488   7.491  0.00  0.00    +0.000 A 
ATOM     17  C   UNL     1      46.148   3.861   7.605  0.00  0.00    +0.000 A 
ATOM     18  C   UNL     1      45.448   4.373   8.699  0.00  0.00    +0.000 A 
ATOM     19  C   UNL     1      44.962   3.499   9.675  0.00  0.00    +0.000 A 
ATOM     20  N   UNL     1      45.107   2.156   9.563  0.00  0.00    +0.000 NA
ATOM     21  C   UNL     1      45.785   1.689   8.485  0.00  0.00    +0.000 A 
BRANCH  16  23
ATOM     22  C   UNL     1      47.434   2.633   5.395  0.00  0.00    +0.000 C 
ATOM     23  O   UNL     1      47.013   1.842   6.500  0.00  0.00    +0.000 OA
ENDBRANCH  16  23
ENDBRANCH  14  19
ENDBRANCH   1  14
TORSDOF 5
ENDMDL
MODEL 5
REMARK VINA RESULT:    -6.131      2.302      6.869
REMARK INTER + INTRA:          -8.518
REMARK INTER:                  -7.950
REMARK INTRA:                  -0.567
REMARK UNBOUND:                -0.595
REMARK  Name = 
REMARK  7 active torsions:
REMARK  status: ('A' for Active; 'I' for Inactive)
REMARK    1  A    between atoms: C_1  and  O_2
REMARK    2  A    between atoms: O_2  and  C_3
REMARK    3  A    between atoms: C_6  and  C_7
REMARK    4  A    between atoms: C_7  and  C_8
REMARK    5  A    between atoms: C_7  and  N_9
REMARK    6  A    between atoms: N_9  and  C_10
REMARK    7  A    between atoms: C_13  and  C_14
REMARK                            x       y       z     vdW  Elec       q    Type
REMARK                         _______ _______ _______ _____ _____    ______ ____
ROOT
ATOM      1  N   UNL     1      45.384   4.270  13.514  0.00  0.00    +0.000 N 
ATOM      2  H   UNL     1      45.652   3.371  13.113  0.00  0.00    +0.000 HD
ENDROOT
BRANCH   1   3
ATOM      3  C   UNL     1      46.523   4.920  14.023  0.00  0.00    +0.000 A 
ATOM      4  C   UNL     1      47.059   6.087  13.477  0.00  0.00    +0.000 A 
ATOM      5  C   UNL     1      48.153   6.722  14.066  0.00  0.00    +0.000 A 
ATOM      6  C   UNL     1      48.686   6.178  15.220  0.00  0.00    +0.000 A 
ATOM      7  N   UNL     1      48.184   5.072  15.832  0.00  0.00    +0.000 NA
ATOM      8  C   UNL     1      47.110   4.496  15.225  0.00  0.00    +0.000 A 
BRANCH   6   9
ATOM      9  C   UNL     1      49.885   6.828  15.839  0.00  0.00    +0.000 C 
ATOM     10  N   UNL     1      50.807   7.330  14.959  0.00  0.00    +0.000 N 
ATOM     11  O   UNL     1      50.039   6.920  17.050  0.00  0.00    +0.000 OA
ATOM     12  H   UNL     1      50.644   7.250  13.964  0.00  0.00    +0.000 HD
ATOM     13  H   UNL     1      51.627   7.797  15.318  0.00  0.00    +0.000 HD
ENDBRANCH   6   9
ENDBRANCH   1   3
BRANCH   1  14
ATOM     14  C   UNL     1      44.496   5.001  12.581  0.00  0.00    +0.000 C 
ATOM     15  C   UNL     1      43.017   4.800  12.933  0.00  0.00    +0.000 C 
BRANCH  14  19
ATOM     16  C   UNL     1      45.294   3.545   8.614  0.00  0.00    +0.000 A 
ATOM     17  C   UNL     1      45.684   4.837   8.946  0.00  0.00    +0.000 A 
ATOM     18  C   UNL     1      45.391   5.342  10.214  0.00  0.00    +0.000 A 
ATOM     19  C   UNL     1      44.726   4.534  11.139  0.00  0.00    +0.000 A 
ATOM     20  N   UNL     1      44.309   3.284  10.822  0.00  0.00    +0.000 NA
ATOM     21  C   UNL     1      44.602   2.825   9.580  0.00  0.00    +0.000 A 
BRANCH  16  23
ATOM     22  C   UNL     1      46.596   3.405   6.638  0.00  0.00    +0.000 C 
ATOM     23  O   UNL     1      45.526   2.906   7.432  0.00  0.00    +0.000 OA
ENDBRANCH  16  23
ENDBRANCH  14  19
ENDBRANCH   1  14
TORSDOF 5
ENDMDL
MODEL 6
REMARK VINA RESULT:    -5.883      4.225      6.176
REMARK INTER + INTRA:          -8.198
REMARK INTER:                  -7.695
REMARK INTRA:                  -0.503
REMARK UNBOUND:                -0.595
REMARK  Name = 
REMARK  7 active torsions:
REMARK  status: ('A' for Active; 'I' for Inactive)
REMARK    1  A    between atoms: C_1  and  O_2
REMARK    2  A    between atoms: O_2  and  C_3
REMARK    3  A    between atoms: C_6  and  C_7
REMARK    4  A    between atoms: C_7  and  C_8
REMARK    5  A    between atoms: C_7  and  N_9
REMARK    6  A    between atoms: N_9  and  C_10
REMARK    7  A    between atoms: C_13  and  C_14
REMARK                            x       y       z     vdW  Elec       q    Type
REMARK                         _______ _______ _______ _____ _____    ______ ____
ROOT
ATOM      1  N   UNL     1      47.478   5.148  15.441  0.00  0.00    +0.000 N 
ATOM      2  H   UNL     1      48.423   5.307  15.089  0.00  0.00    +0.000 HD
ENDROOT
BRANCH   1   3
ATOM      3  C   UNL     1      46.648   4.713  14.392  0.00  0.00    +0.000 A 
ATOM      4  C   UNL     1      45.825   5.563  13.651  0.00  0.00    +0.000 A 
ATOM      5  C   UNL     1      45.073   5.083  12.579  0.00  0.00    +0.000 A 
ATOM      6  C   UNL     1      45.175   3.743  12.251  0.00  0.00    +0.000 A 
ATOM      7  N   UNL     1      45.992   2.870  12.899  0.00  0.00    +0.000 NA
ATOM      8  C   UNL     1      46.714   3.390  13.931  0.00  0.00    +0.000 A 
BRANCH   6   9
ATOM      9  C   UNL     1      44.342   3.208  11.127  0.00  0.00    +0.000 C 
ATOM     10  N   UNL     1      45.034   2.582  10.124  0.00  0.00    +0.000 N 
ATOM     11  O   UNL     1      43.123   3.308  11.098  0.00  0.00    +0.000 OA
ATOM     12  H   UNL     1      46.041   2.503  10.184  0.00  0.00    +0.000 HD
ATOM     13  H   UNL     1      44.524   2.183   9.349  0.00  0.00    +0.000 HD
ENDBRANCH   6   9
ENDBRANCH   1   3
BRANCH   1  14
ATOM     14  C   UNL     1      47.527   4.358  16.693  0.00  0.00    +0.000 C 
ATOM     15  C   UNL     1      47.062   5.182  17.900  0.00  0.00    +0.000 C 
BRANCH  14  19
ATOM     16  C   UNL     1      51.438   2.826  17.613  0.00  0.00    +0.000 A 
ATOM     17  C   UNL     1      51.171   4.169  17.847  0.00  0.00    +0.000 A 
ATOM     18  C   UNL     1      49.922   4.694  17.511  0.00  0.00    +0.000 A 
ATOM     19  C   UNL     1      48.950   3.856  16.960  0.00  0.00    +0.000 A 
ATOM     20  N   UNL     1      49.203   2.551  16.694  0.00  0.00    +0.000 NA
ATOM     21  C   UNL     1      50.428   2.073  17.025  0.00  0.00    +0.000 A 
BRANCH  16  23
ATOM     22  C   UNL     1      52.591   0.757  17.702  0.00  0.00    +0.000 C 
ATOM     23  O   UNL     1      52.594   2.165  17.906  0.00  0.00    +0.000 OA
ENDBRANCH  16  23
ENDBRANCH  14  19
ENDBRANCH   1  14
TORSDOF 5
ENDMDL
MODEL 7
REMARK VINA RESULT:    -5.516      3.765      6.996
REMARK INTER + INTRA:          -7.723
REMARK INTER:                  -7.487
REMARK INTRA:                  -0.236
REMARK UNBOUND:                -0.595
REMARK  Name = 
REMARK  7 active torsions:
REMARK  status: ('A' for Active; 'I' for Inactive)
REMARK    1  A    between atoms: C_1  and  O_2
REMARK    2  A    between atoms: O_2  and  C_3
REMARK    3  A    between atoms: C_6  and  C_7
REMARK    4  A    between atoms: C_7  and  C_8
REMARK    5  A    between atoms: C_7  and  N_9
REMARK    6  A    between atoms: N_9  and  C_10
REMARK    7  A    between atoms: C_13  and  C_14
REMARK                            x       y       z     vdW  Elec       q    Type
REMARK                         _______ _______ _______ _____ _____    ______ ____
ROOT
ATOM      1  N   UNL     1      48.044   7.067  12.799  0.00  0.00    +0.000 N 
ATOM      2  H   UNL     1      48.814   7.728  12.910  0.00  0.00    +0.000 HD
ENDROOT
BRANCH   1   3
ATOM      3  C   UNL     1      47.898   6.310  13.975  0.00  0.00    +0.000 A 
ATOM      4  C   UNL     1      47.205   5.100  14.038  0.00  0.00    +0.000 A 
ATOM      5  C   UNL     1      47.150   4.362  15.220  0.00  0.00    +0.000 A 
ATOM      6  C   UNL     1      47.816   4.846  16.331  0.00  0.00    +0.000 A 
ATOM      7  N   UNL     1      48.549   5.992  16.327  0.00  0.00    +0.000 NA
ATOM      8  C   UNL     1      48.582   6.670  15.147  0.00  0.00    +0.000 A 
BRANCH   6   9
ATOM      9  C   UNL     1      47.731   4.083  17.616  0.00  0.00    +0.000 C 
ATOM     10  N   UNL     1      46.987   2.933  17.574  0.00  0.00    +0.000 N 
ATOM     11  O   UNL     1      48.292   4.445  18.642  0.00  0.00    +0.000 OA
ATOM     12  H   UNL     1      46.546   2.653  16.707  0.00  0.00    +0.000 HD
ATOM     13  H   UNL     1      46.910   2.366  18.405  0.00  0.00    +0.000 HD
ENDBRANCH   6   9
ENDBRANCH   1   3
BRANCH   1  14
ATOM     14  C   UNL     1      46.860   7.754  12.235  0.00  0.00    +0.000 C 
ATOM     15  C   UNL     1      46.226   8.714  13.249  0.00  0.00    +0.000 C 
BRANCH  14  19
ATOM     16  C   UNL     1      43.947   4.772  11.180  0.00  0.00    +0.000 A 
ATOM     17  C   UNL     1      45.070   4.928  10.376  0.00  0.00    +0.000 A 
ATOM     18  C   UNL     1      46.002   5.922  10.677  0.00  0.00    +0.000 A 
ATOM     19  C   UNL     1      45.802   6.736  11.795  0.00  0.00    +0.000 A 
ATOM     20  N   UNL     1      44.697   6.621  12.571  0.00  0.00    +0.000 NA
ATOM     21  C   UNL     1      43.807   5.650  12.248  0.00  0.00    +0.000 A 
BRANCH  16  23
ATOM     22  C   UNL     1      43.216   2.555  11.591  0.00  0.00    +0.000 C 
ATOM     23  O   UNL     1      42.965   3.838  11.031  0.00  0.00    +0.000 OA
ENDBRANCH  16  23
ENDBRANCH  14  19
ENDBRANCH   1  14
TORSDOF 5
ENDMDL
MODEL 8
REMARK VINA RESULT:    -5.409      3.717      5.523
REMARK INTER + INTRA:          -7.585
REMARK INTER:                  -7.033
REMARK INTRA:                  -0.552
REMARK UNBOUND:                -0.595
REMARK  Name = 
REMARK  7 active torsions:
REMARK  status: ('A' for Active; 'I' for Inactive)
REMARK    1  A    between atoms: C_1  and  O_2
REMARK    2  A    between atoms: O_2  and  C_3
REMARK    3  A    between atoms: C_6  and  C_7
REMARK    4  A    between atoms: C_7  and  C_8
REMARK    5  A    between atoms: C_7  and  N_9
REMARK    6  A    between atoms: N_9  and  C_10
REMARK    7  A    between atoms: C_13  and  C_14
REMARK                            x       y       z     vdW  Elec       q    Type
REMARK                         _______ _______ _______ _____ _____    ______ ____
ROOT
ATOM      1  N   UNL     1      46.905   7.004  13.607  0.00  0.00    +0.000 N 
ATOM      2  H   UNL     1      46.629   7.926  13.268  0.00  0.00    +0.000 HD
ENDROOT
BRANCH   1   3
ATOM      3  C   UNL     1      46.149   6.014  12.955  0.00  0.00    +0.000 A 
ATOM      4  C   UNL     1      45.773   6.083  11.613  0.00  0.00    +0.000 A 
ATOM      5  C   UNL     1      45.077   5.038  11.005  0.00  0.00    +0.000 A 
ATOM      6  C   UNL     1      44.782   3.916  11.759  0.00  0.00    +0.000 A 
ATOM      7  N   UNL     1      45.159   3.762  13.057  0.00  0.00    +0.000 NA
ATOM      8  C   UNL     1      45.846   4.805  13.601  0.00  0.00    +0.000 A 
BRANCH   6   9
ATOM      9  C   UNL     1      44.001   2.805  11.129  0.00  0.00    +0.000 C 
ATOM     10  N   UNL     1      44.496   2.332   9.942  0.00  0.00    +0.000 N 
ATOM     11  O   UNL     1      42.991   2.334  11.633  0.00  0.00    +0.000 OA
ATOM     12  H   UNL     1      45.342   2.733   9.557  0.00  0.00    +0.000 HD
ATOM     13  H   UNL     1      44.023   1.570   9.480  0.00  0.00    +0.000 HD
ENDBRANCH   6   9
ENDBRANCH   1   3
BRANCH   1  14
ATOM     14  C   UNL     1      48.382   6.887  13.621  0.00  0.00    +0.000 C 
ATOM     15  C   UNL     1      48.948   7.051  15.037  0.00  0.00    +0.000 C 
BRANCH  14  19
ATOM     16  C   UNL     1      50.262   9.945  11.255  0.00  0.00    +0.000 A 
ATOM     17  C   UNL     1      48.883   9.978  11.421  0.00  0.00    +0.000 A 
ATOM     18  C   UNL     1      48.251   8.967  12.147  0.00  0.00    +0.000 A 
ATOM     19  C   UNL     1      49.017   7.946  12.713  0.00  0.00    +0.000 A 
ATOM     20  N   UNL     1      50.359   7.879  12.533  0.00  0.00    +0.000 NA
ATOM     21  C   UNL     1      50.942   8.872  11.817  0.00  0.00    +0.000 A 
BRANCH  16  23
ATOM     22  C   UNL     1      52.207  10.384   9.973  0.00  0.00    +0.000 C 
ATOM     23  O   UNL     1      51.023  10.866  10.596  0.00  0.00    +0.000 OA
ENDBRANCH  16  23
ENDBRANCH  14  19
ENDBRANCH   1  14
TORSDOF 5
ENDMDL
MODEL 9
REMARK VINA RESULT:    -5.322      3.796      5.785
REMARK INTER + INTRA:          -7.472
REMARK INTER:                  -6.946
REMARK INTRA:                  -0.526
REMARK UNBOUND:                -0.595
REMARK  Name = 
REMARK  7 active torsions:
REMARK  status: ('A' for Active; 'I' for Inactive)
REMARK    1  A    between atoms: C_1  and  O_2
REMARK    2  A    between atoms: O_2  and  C_3
REMARK    3  A    between atoms: C_6  and  C_7
REMARK    4  A    between atoms: C_7  and  C_8
REMARK    5  A    between atoms: C_7  and  N_9
REMARK    6  A    between atoms: N_9  and  C_10
REMARK    7  A    between atoms: C_13  and  C_14
REMARK                            x       y       z     vdW  Elec       q    Type
REMARK                         _______ _______ _______ _____ _____    ______ ____
ROOT
ATOM      1  N   UNL     1      48.314   6.225  13.236  0.00  0.00    +0.000 N 
ATOM      2  H   UNL     1      48.796   5.447  13.689  0.00  0.00    +0.000 HD
ENDROOT
BRANCH   1   3
ATOM      3  C   UNL     1      47.031   5.814  12.831  0.00  0.00    +0.000 A 
ATOM      4  C   UNL     1      46.427   6.216  11.639  0.00  0.00    +0.000 A 
ATOM      5  C   UNL     1      45.178   5.724  11.261  0.00  0.00    +0.000 A 
ATOM      6  C   UNL     1      44.554   4.808  12.089  0.00  0.00    +0.000 A 
ATOM      7  N   UNL     1      45.105   4.337  13.240  0.00  0.00    +0.000 NA
ATOM      8  C   UNL     1      46.330   4.839  13.558  0.00  0.00    +0.000 A 
BRANCH   6   9
ATOM      9  C   UNL     1      43.196   4.302  11.714  0.00  0.00    +0.000 C 
ATOM     10  N   UNL     1      42.188   5.229  11.751  0.00  0.00    +0.000 N 
ATOM     11  O   UNL     1      42.987   3.142  11.385  0.00  0.00    +0.000 OA
ATOM     12  H   UNL     1      42.395   6.184  12.013  0.00  0.00    +0.000 HD
ATOM     13  H   UNL     1      41.253   4.951  11.488  0.00  0.00    +0.000 HD
ENDBRANCH   6   9
ENDBRANCH   1   3
BRANCH   1  14
ATOM     14  C   UNL     1      48.452   7.455  14.049  0.00  0.00    +0.000 C 
ATOM     15  C   UNL     1      49.553   8.372  13.503  0.00  0.00    +0.000 C 
BRANCH  14  19
ATOM     16  C   UNL     1      49.175   6.369  18.146  0.00  0.00    +0.000 A 
ATOM     17  C   UNL     1      48.943   7.704  17.836  0.00  0.00    +0.000 A 
ATOM     18  C   UNL     1      48.753   8.081  16.505  0.00  0.00    +0.000 A 
ATOM     19  C   UNL     1      48.780   7.107  15.505  0.00  0.00    +0.000 A 
ATOM     20  N   UNL     1      49.038   5.805  15.785  0.00  0.00    +0.000 NA
ATOM     21  C   UNL     1      49.225   5.473  17.086  0.00  0.00    +0.000 A 
BRANCH  16  23
ATOM     22  C   UNL     1      48.818   4.547  19.620  0.00  0.00    +0.000 C 
ATOM     23  O   UNL     1      49.355   5.845  19.392  0.00  0.00    +0.000 OA
ENDBRANCH  16  23
ENDBRANCH  14  19
ENDBRANCH   1  14
TORSDOF 5
ENDMDL
