MODEL 1
REMARK VINA RESULT:    -9.166      0.000      0.000
REMARK INTER + INTRA:         -11.995
REMARK INTER:                 -11.845
REMARK INTRA:                  -0.150
REMARK UNBOUND:                -0.150
REMARK  Name = 
REMARK  6 active torsions:
REMARK  status: ('A' for Active; 'I' for Inactive)
REMARK    1  A    between atoms: C_1  and  O_2
REMARK    2  A    between atoms: O_2  and  C_3
REMARK    3  A    between atoms: C_6  and  C_7
REMARK    4  A    between atoms: C_11  and  C_12
REMARK    5  A    between atoms: C_12  and  N_13
REMARK    6  A    between atoms: C_17  and  C_18
REMARK                            x       y       z     vdW  Elec       q    Type
REMARK                         _______ _______ _______ _____ _____    ______ ____
ROOT
ATOM      1  C   UNL     1      44.104   5.339  11.160  0.00  0.00    +0.000 C 
ATOM      2  C   UNL     1      42.779   5.972  11.547  0.00  0.00    +0.000 C 
ATOM      3  C   UNL     1      42.867   4.486  11.433  0.00  0.00    +0.000 C 
ENDROOT
BRANCH   1   4
ATOM      4  N   UNL     1      44.567   5.372   9.764  0.00  0.00    +0.000 N 
ATOM      5  C   UNL     1      45.225   4.343   9.088  0.00  0.00    +0.000 A 
ATOM      6  C   UNL     1      45.125   3.003   9.440  0.00  0.00    +0.000 A 
ATOM      7  C   UNL     1      45.778   2.025   8.690  0.00  0.00    +0.000 A 
ATOM      8  C   UNL     1      46.533   2.409   7.589  0.00  0.00    +0.000 A 
ATOM      9  C   UNL     1      46.601   3.764   7.305  0.00  0.00    +0.000 A 
ATOM     10  N   UNL     1      45.958   4.725   8.021  0.00  0.00    +0.000 NA
ATOM     11  H   UNL     1      44.880   6.252   9.363  0.00  0.00    +0.000 HD
BRANCH   8  12
ATOM     12  C   UNL     1      47.278   1.447   6.751  0.00  0.00    +0.000 C 
ATOM     13  N   UNL     1      48.264   1.942   5.946  0.00  0.00    +0.000 N 
ATOM     14  O   UNL     1      47.032   0.247   6.788  0.00  0.00    +0.000 OA
ATOM     15  H   UNL     1      48.650   2.870   6.051  0.00  0.00    +0.000 HD
ATOM     16  H   UNL     1      48.814   1.266   5.432  0.00  0.00    +0.000 HD
ENDBRANCH   8  12
ENDBRANCH   1   4
BRANCH   1  21
ATOM     17  C   UNL     1      47.360   6.045  13.142  0.00  0.00    +0.000 A 
ATOM     18  C   UNL     1      47.162   5.103  14.150  0.00  0.00    +0.000 A 
ATOM     19  N   UNL     1      46.110   4.253  14.230  0.00  0.00    +0.000 NA
ATOM     20  C   UNL     1      45.185   4.343  13.248  0.00  0.00    +0.000 A 
ATOM     21  C   UNL     1      45.212   5.266  12.205  0.00  0.00    +0.000 A 
ATOM     22  C   UNL     1      46.325   6.126  12.197  0.00  0.00    +0.000 A 
BRANCH  17  26
ATOM     23  C   UNL     1      50.882   8.550  12.830  0.00  0.00    +0.000 A 
ATOM     24  C   UNL     1      50.159   8.198  11.696  0.00  0.00    +0.000 A 
ATOM     25  C   UNL     1      49.026   7.380  11.804  0.00  0.00    +0.000 A 
ATOM     26  C   UNL     1      48.587   6.875  13.043  0.00  0.00    +0.000 A 
ATOM     27  C   UNL     1      49.341   7.238  14.174  0.00  0.00    +0.000 A 
ATOM     28  C   UNL     1      50.464   8.069  14.068  0.00  0.00    +0.000 A 
BRANCH  23  30
ATOM     29  C   UNL     1      52.379   9.945  11.630  0.00  0.00    +0.000 C 
ATOM     30  O   UNL     1      51.991   9.348  12.861  0.00  0.00    +0.000 OA
ENDBRANCH  23  30
ENDBRANCH  17  26
ENDBRANCH   1  21
TORSDOF 5
ENDMDL
MODEL 2
REMARK VINA RESULT:    -8.449      2.623      3.783
REMARK INTER + INTRA:         -11.069
REMARK INTER:                 -11.000
REMARK INTRA:                  -0.069
REMARK UNBOUND:                -0.150
REMARK  Name = 
REMARK  6 active torsions:
REMARK  status: ('A' for Active; 'I' for Inactive)
REMARK    1  A    between atoms: C_1  and  O_2
REMARK    2  A    between atoms: O_2  and  C_3
REMARK    3  A    between atoms: C_6  and  C_7
REMARK    4  A    between atoms: C_11  and  C_12
REMARK    5  A    between atoms: C_12  and  N_13
REMARK    6  A    between atoms: C_17  and  C_18
REMARK                            x       y       z     vdW  Elec       q    Type
REMARK                         _______ _______ _______ _____ _____    ______ ____
ROOT
ATOM      1  C   UNL     1      43.982   5.167  11.214  0.00  0.00    +0.000 C 
ATOM      2  C   UNL     1      42.609   5.338  11.839  0.00  0.00    +0.000 C 
ATOM      3  C   UNL     1      43.289   4.012  11.935  0.00  0.00    +0.000 C 
ENDROOT
BRANCH   1   4
ATOM      4  N   UNL     1      44.125   5.023   9.757  0.00  0.00    +0.000 N 
ATOM      5  C   UNL     1      44.908   4.076   9.095  0.00  0.00    +0.000 A 
ATOM      6  C   UNL     1      45.280   2.859   9.651  0.00  0.00    +0.000 A 
ATOM      7  C   UNL     1      46.029   1.943   8.912  0.00  0.00    +0.000 A 
ATOM      8  C   UNL     1      46.401   2.267   7.613  0.00  0.00    +0.000 A 
ATOM      9  C   UNL     1      46.008   3.503   7.127  0.00  0.00    +0.000 A 
ATOM     10  N   UNL     1      45.267   4.399   7.834  0.00  0.00    +0.000 NA
ATOM     11  H   UNL     1      44.079   5.850   9.167  0.00  0.00    +0.000 HD
BRANCH   8  12
ATOM     12  C   UNL     1      47.213   1.370   6.764  0.00  0.00    +0.000 C 
ATOM     13  N   UNL     1      48.242   1.928   6.060  0.00  0.00    +0.000 N 
ATOM     14  O   UNL     1      46.983   0.168   6.705  0.00  0.00    +0.000 OA
ATOM     15  H   UNL     1      48.606   2.852   6.252  0.00  0.00    +0.000 HD
ATOM     16  H   UNL     1      48.834   1.294   5.540  0.00  0.00    +0.000 HD
ENDBRANCH   8  12
ENDBRANCH   1   4
BRANCH   1  21
ATOM     17  C   UNL     1      46.897   5.730  13.708  0.00  0.00    +0.000 A 
ATOM     18  C   UNL     1      47.391   6.903  13.140  0.00  0.00    +0.000 A 
ATOM     19  N   UNL     1      46.862   7.536  12.067  0.00  0.00    +0.000 NA
ATOM     20  C   UNL     1      45.768   6.968  11.510  0.00  0.00    +0.000 A 
ATOM     21  C   UNL     1      45.188   5.772  11.925  0.00  0.00    +0.000 A 
ATOM     22  C   UNL     1      45.802   5.164  13.035  0.00  0.00    +0.000 A 
BRANCH  17  26
ATOM     23  C   UNL     1      48.453   4.070  17.396  0.00  0.00    +0.000 A 
ATOM     24  C   UNL     1      48.806   5.352  16.990  0.00  0.00    +0.000 A 
ATOM     25  C   UNL     1      48.305   5.879  15.791  0.00  0.00    +0.000 A 
ATOM     26  C   UNL     1      47.450   5.139  14.952  0.00  0.00    +0.000 A 
ATOM     27  C   UNL     1      47.116   3.842  15.381  0.00  0.00    +0.000 A 
ATOM     28  C   UNL     1      47.602   3.321  16.587  0.00  0.00    +0.000 A 
BRANCH  23  30
ATOM     29  C   UNL     1      49.159   4.292  19.650  0.00  0.00    +0.000 C 
ATOM     30  O   UNL     1      48.860   3.450  18.543  0.00  0.00    +0.000 OA
ENDBRANCH  23  30
ENDBRANCH  17  26
ENDBRANCH   1  21
TORSDOF 5
ENDMDL
MODEL 3
REMARK VINA RESULT:    -7.770      3.333      7.297
REMARK INTER + INTRA:         -10.192
REMARK INTER:                  -9.925
REMARK INTRA:                  -0.267
REMARK UNBOUND:                -0.150
REMARK  Name = 
REMARK  6 active torsions:
REMARK  status: ('A' for Active; 'I' for Inactive)
REMARK    1  A    between atoms: C_1  and  O_2
REMARK    2  A    between atoms: O_2  and  C_3
REMARK    3  A    between atoms: C_6  and  C_7
REMARK    4  A    between atoms: C_11  and  C_12
REMARK    5  A    between atoms: C_12  and  N_13
REMARK    6  A    between atoms: C_17  and  C_18
REMARK                            x       y       z     vdW  Elec       q    Type
REMARK                         _______ _______ _______ _____ _____    ______ ____
ROOT
ATOM      1  C   UNL     1      45.874   7.808  12.335  0.00  0.00    +0.000 C 
ATOM      2  C   UNL     1      45.126   9.028  12.843  0.00  0.00    +0.000 C 
ATOM      3  C   UNL     1      45.952   9.147  11.604  0.00  0.00    +0.000 C 
ENDROOT
BRANCH   1   4
ATOM      4  N   UNL     1      47.111   7.363  12.996  0.00  0.00    +0.000 N 
ATOM      5  C   UNL     1      47.231   6.297  13.890  0.00  0.00    +0.000 A 
ATOM      6  C   UNL     1      46.351   5.223  13.932  0.00  0.00    +0.000 A 
ATOM      7  C   UNL     1      46.560   4.173  14.826  0.00  0.00    +0.000 A 
ATOM      8  C   UNL     1      47.658   4.218  15.676  0.00  0.00    +0.000 A 
ATOM      9  C   UNL     1      48.486   5.326  15.591  0.00  0.00    +0.000 A 
ATOM     10  N   UNL     1      48.299   6.349  14.714  0.00  0.00    +0.000 NA
ATOM     11  H   UNL     1      47.822   8.047  13.236  0.00  0.00    +0.000 HD
BRANCH   8  12
ATOM     12  C   UNL     1      47.947   3.163  16.671  0.00  0.00    +0.000 C 
ATOM     13  N   UNL     1      46.982   2.889  17.598  0.00  0.00    +0.000 N 
ATOM     14  O   UNL     1      49.005   2.546  16.654  0.00  0.00    +0.000 OA
ATOM     15  H   UNL     1      46.025   3.202  17.509  0.00  0.00    +0.000 HD
ATOM     16  H   UNL     1      47.162   2.117  18.226  0.00  0.00    +0.000 HD
ENDBRANCH   8  12
ENDBRANCH   1   4
BRANCH   1  21
ATOM     17  C   UNL     1      44.957   4.778  10.097  0.00  0.00    +0.000 A 
ATOM     18  C   UNL     1      43.604   4.718  10.426  0.00  0.00    +0.000 A 
ATOM     19  N   UNL     1      42.963   5.569  11.263  0.00  0.00    +0.000 NA
ATOM     20  C   UNL     1      43.714   6.547  11.819  0.00  0.00    +0.000 A 
ATOM     21  C   UNL     1      45.085   6.707  11.634  0.00  0.00    +0.000 A 
ATOM     22  C   UNL     1      45.683   5.777  10.765  0.00  0.00    +0.000 A 
BRANCH  17  26
ATOM     23  C   UNL     1      46.687   2.152   7.116  0.00  0.00    +0.000 A 
ATOM     24  C   UNL     1      46.023   1.631   8.221  0.00  0.00    +0.000 A 
ATOM     25  C   UNL     1      45.473   2.487   9.185  0.00  0.00    +0.000 A 
ATOM     26  C   UNL     1      45.582   3.887   9.088  0.00  0.00    +0.000 A 
ATOM     27  C   UNL     1      46.267   4.389   7.966  0.00  0.00    +0.000 A 
ATOM     28  C   UNL     1      46.802   3.534   6.993  0.00  0.00    +0.000 A 
BRANCH  23  30
ATOM     29  C   UNL     1      47.837   2.171   5.041  0.00  0.00    +0.000 C 
ATOM     30  O   UNL     1      47.253   1.429   6.104  0.00  0.00    +0.000 OA
ENDBRANCH  23  30
ENDBRANCH  17  26
ENDBRANCH   1  21
TORSDOF 5
ENDMDL
MODEL 4
REMARK VINA RESULT:    -7.228      5.109      8.827
REMARK INTER + INTRA:          -9.491
REMARK INTER:                  -8.908
REMARK INTRA:                  -0.583
REMARK UNBOUND:                -0.150
REMARK  Name = 
REMARK  6 active torsions:
REMARK  status: ('A' for Active; 'I' for Inactive)
REMARK    1  A    between atoms: C_1  and  O_2
REMARK    2  A    between atoms: O_2  and  C_3
REMARK    3  A    between atoms: C_6  and  C_7
REMARK    4  A    between atoms: C_11  and  C_12
REMARK    5  A    between atoms: C_12  and  N_13
REMARK    6  A    between atoms: C_17  and  C_18
REMARK                            x       y       z     vdW  Elec       q    Type
REMARK                         _______ _______ _______ _____ _____    ______ ____
ROOT
ATOM      1  C   UNL     1      48.802   4.999  17.393  0.00  0.00    +0.000 C 
ATOM      2  C   UNL     1      47.804   4.026  17.994  0.00  0.00    +0.000 C 
ATOM      3  C   UNL     1      47.925   5.393  18.581  0.00  0.00    +0.000 C 
ENDROOT
BRANCH   1   4
ATOM      4  N   UNL     1      50.240   4.861  17.673  0.00  0.00    +0.000 N 
ATOM      5  C   UNL     1      50.960   3.666  17.722  0.00  0.00    +0.000 A 
ATOM      6  C   UNL     1      50.571   2.504  17.068  0.00  0.00    +0.000 A 
ATOM      7  C   UNL     1      51.364   1.359  17.130  0.00  0.00    +0.000 A 
ATOM      8  C   UNL     1      52.548   1.396  17.857  0.00  0.00    +0.000 A 
ATOM      9  C   UNL     1      52.867   2.583  18.496  0.00  0.00    +0.000 A 
ATOM     10  N   UNL     1      52.107   3.709  18.432  0.00  0.00    +0.000 NA
ATOM     11  H   UNL     1      50.690   5.518  18.304  0.00  0.00    +0.000 HD
BRANCH   8  12
ATOM     12  C   UNL     1      53.441   0.226  17.996  0.00  0.00    +0.000 C 
ATOM     13  N   UNL     1      53.857  -0.391  16.851  0.00  0.00    +0.000 N 
ATOM     14  O   UNL     1      53.808  -0.166  19.098  0.00  0.00    +0.000 OA
ATOM     15  H   UNL     1      53.769   0.027  15.935  0.00  0.00    +0.000 HD
ATOM     16  H   UNL     1      54.524  -1.144  16.957  0.00  0.00    +0.000 HD
ENDBRANCH   8  12
ENDBRANCH   1   4
BRANCH   1  21
ATOM     17  C   UNL     1      47.229   5.725  13.924  0.00  0.00    +0.000 A 
ATOM     18  C   UNL     1      47.876   6.936  13.687  0.00  0.00    +0.000 A 
ATOM     19  N   UNL     1      48.781   7.515  14.511  0.00  0.00    +0.000 NA
ATOM     20  C   UNL     1      49.064   6.852  15.656  0.00  0.00    +0.000 A 
ATOM     21  C   UNL     1      48.464   5.663  16.062  0.00  0.00    +0.000 A 
ATOM     22  C   UNL     1      47.524   5.131  15.162  0.00  0.00    +0.000 A 
BRANCH  17  26
ATOM     23  C   UNL     1      44.683   3.840  10.968  0.00  0.00    +0.000 A 
ATOM     24  C   UNL     1      45.155   5.134  10.777  0.00  0.00    +0.000 A 
ATOM     25  C   UNL     1      45.971   5.740  11.742  0.00  0.00    +0.000 A 
ATOM     26  C   UNL     1      46.329   5.082  12.934  0.00  0.00    +0.000 A 
ATOM     27  C   UNL     1      45.831   3.778  13.108  0.00  0.00    +0.000 A 
ATOM     28  C   UNL     1      45.029   3.166  12.136  0.00  0.00    +0.000 A 
BRANCH  23  30
ATOM     29  C   UNL     1      44.567   2.371   9.109  0.00  0.00    +0.000 C 
ATOM     30  O   UNL     1      43.895   3.136  10.102  0.00  0.00    +0.000 OA
ENDBRANCH  23  30
ENDBRANCH  17  26
ENDBRANCH   1  21
TORSDOF 5
ENDMDL
MODEL 5
REMARK VINA RESULT:    -7.079      2.699      7.735
REMARK INTER + INTRA:          -9.299
REMARK INTER:                  -8.727
REMARK INTRA:                  -0.572
REMARK UNBOUND:                -0.150
REMARK  Name = 
REMARK  6 active torsions:
REMARK  status: ('A' for Active; 'I' for Inactive)
REMARK    1  A    between atoms: C_1  and  O_2
REMARK    2  A    between atoms: O_2  and  C_3
REMARK    3  A    between atoms: C_6  and  C_7
REMARK    4  A    between atoms: C_11  and  C_12
REMARK    5  A    between atoms: C_12  and  N_13
REMARK    6  A    between atoms: C_17  and  C_18
REMARK                            x       y       z     vdW  Elec       q    Type
REMARK                         _______ _______ _______ _____ _____    ______ ____
ROOT
ATOM      1  C   UNL     1      45.858   8.223  11.871  0.00  0.00    +0.000 C 
ATOM      2  C   UNL     1      45.268   9.165  12.905  0.00  0.00    +0.000 C 
ATOM      3  C   UNL     1      45.340   9.605  11.479  0.00  0.00    +0.000 C 
ENDROOT
BRANCH   1   4
ATOM      4  N   UNL     1      47.313   8.031  11.779  0.00  0.00    +0.000 N 
ATOM      5  C   UNL     1      48.184   7.802  12.846  0.00  0.00    +0.000 A 
ATOM      6  C   UNL     1      47.789   7.254  14.060  0.00  0.00    +0.000 A 
ATOM      7  C   UNL     1      48.725   7.015  15.066  0.00  0.00    +0.000 A 
ATOM      8  C   UNL     1      50.057   7.335  14.838  0.00  0.00    +0.000 A 
ATOM      9  C   UNL     1      50.379   7.891  13.610  0.00  0.00    +0.000 A 
ATOM     10  N   UNL     1      49.477   8.117  12.617  0.00  0.00    +0.000 NA
ATOM     11  H   UNL     1      47.836   8.516  11.055  0.00  0.00    +0.000 HD
BRANCH   8  12
ATOM     12  C   UNL     1      51.115   7.138  15.852  0.00  0.00    +0.000 C 
ATOM     13  N   UNL     1      52.401   7.021  15.408  0.00  0.00    +0.000 N 
ATOM     14  O   UNL     1      50.850   7.100  17.048  0.00  0.00    +0.000 OA
ATOM     15  H   UNL     1      52.688   7.273  14.472  0.00  0.00    +0.000 HD
ATOM     16  H   UNL     1      53.122   6.960  16.115  0.00  0.00    +0.000 HD
ENDBRANCH   8  12
ENDBRANCH   1   4
BRANCH   1  21
ATOM     17  C   UNL     1      44.776   4.909  10.171  0.00  0.00    +0.000 A 
ATOM     18  C   UNL     1      43.456   4.904  10.618  0.00  0.00    +0.000 A 
ATOM     19  N   UNL     1      42.883   5.868  11.377  0.00  0.00    +0.000 NA
ATOM     20  C   UNL     1      43.671   6.911  11.723  0.00  0.00    +0.000 A 
ATOM     21  C   UNL     1      45.020   7.037  11.402  0.00  0.00    +0.000 A 
ATOM     22  C   UNL     1      45.549   5.990  10.626  0.00  0.00    +0.000 A 
BRANCH  17  26
ATOM     23  C   UNL     1      46.462   1.929   7.517  0.00  0.00    +0.000 A 
ATOM     24  C   UNL     1      46.664   3.284   7.281  0.00  0.00    +0.000 A 
ATOM     25  C   UNL     1      46.108   4.242   8.139  0.00  0.00    +0.000 A 
ATOM     26  C   UNL     1      45.321   3.881   9.249  0.00  0.00    +0.000 A 
ATOM     27  C   UNL     1      45.124   2.505   9.460  0.00  0.00    +0.000 A 
ATOM     28  C   UNL     1      45.694   1.546   8.612  0.00  0.00    +0.000 A 
BRANCH  23  30
ATOM     29  C   UNL     1      46.790  -0.410   7.292  0.00  0.00    +0.000 C 
ATOM     30  O   UNL     1      46.958   0.900   6.766  0.00  0.00    +0.000 OA
ENDBRANCH  23  30
ENDBRANCH  17  26
ENDBRANCH   1  21
TORSDOF 5
ENDMDL
MODEL 6
REMARK VINA RESULT:    -7.063      4.077      6.326
REMARK INTER + INTRA:          -9.277
REMARK INTER:                  -8.515
REMARK INTRA:                  -0.762
REMARK UNBOUND:                -0.150
REMARK  Name = 
REMARK  6 active torsions:
REMARK  status: ('A' for Active; 'I' for Inactive)
REMARK    1  A    between atoms: C_1  and  O_2
REMARK    2  A    between atoms: O_2  and  C_3
REMARK    3  A    between atoms: C_6  and  C_7
REMARK    4  A    between atoms: C_11  and  C_12
REMARK    5  A    between atoms: C_12  and  N_13
REMARK    6  A    between atoms: C_17  and  C_18
REMARK                            x       y       z     vdW  Elec       q    Type
REMARK                         _______ _______ _______ _____ _____    ______ ____
ROOT
ATOM      1  C   UNL     1      48.060   8.708  14.042  0.00  0.00    +0.000 C 
ATOM      2  C   UNL     1      49.183   8.734  13.021  0.00  0.00    +0.000 C 
ATOM      3  C   UNL     1      48.775  10.009  13.683  0.00  0.00    +0.000 C 
ENDROOT
BRANCH   1   4
ATOM      4  N   UNL     1      46.658   8.603  13.607  0.00  0.00    +0.000 N 
ATOM      5  C   UNL     1      46.086   7.531  12.918  0.00  0.00    +0.000 A 
ATOM      6  C   UNL     1      46.587   6.237  12.954  0.00  0.00    +0.000 A 
ATOM      7  C   UNL     1      45.936   5.208  12.273  0.00  0.00    +0.000 A 
ATOM      8  C   UNL     1      44.781   5.497  11.556  0.00  0.00    +0.000 A 
ATOM      9  C   UNL     1      44.346   6.812  11.553  0.00  0.00    +0.000 A 
ATOM     10  N   UNL     1      44.966   7.821  12.223  0.00  0.00    +0.000 NA
ATOM     11  H   UNL     1      46.154   9.444  13.340  0.00  0.00    +0.000 HD
BRANCH   8  12
ATOM     12  C   UNL     1      44.038   4.478  10.787  0.00  0.00    +0.000 C 
ATOM     13  N   UNL     1      43.982   4.627   9.430  0.00  0.00    +0.000 N 
ATOM     14  O   UNL     1      43.506   3.524  11.342  0.00  0.00    +0.000 OA
ATOM     15  H   UNL     1      44.587   5.255   8.918  0.00  0.00    +0.000 HD
ATOM     16  H   UNL     1      43.533   3.886   8.909  0.00  0.00    +0.000 HD
ENDBRANCH   8  12
ENDBRANCH   1   4
BRANCH   1  21
ATOM     17  C   UNL     1      49.129   6.333  16.915  0.00  0.00    +0.000 A 
ATOM     18  C   UNL     1      48.877   7.208  17.971  0.00  0.00    +0.000 A 
ATOM     19  N   UNL     1      48.372   8.459  17.847  0.00  0.00    +0.000 NA
ATOM     20  C   UNL     1      48.101   8.878  16.590  0.00  0.00    +0.000 A 
ATOM     21  C   UNL     1      48.347   8.146  15.431  0.00  0.00    +0.000 A 
ATOM     22  C   UNL     1      48.886   6.864  15.638  0.00  0.00    +0.000 A 
BRANCH  17  26
ATOM     23  C   UNL     1      50.432   2.230  17.401  0.00  0.00    +0.000 A 
ATOM     24  C   UNL     1      49.111   2.522  17.082  0.00  0.00    +0.000 A 
ATOM     25  C   UNL     1      48.695   3.852  16.935  0.00  0.00    +0.000 A 
ATOM     26  C   UNL     1      49.578   4.933  17.117  0.00  0.00    +0.000 A 
ATOM     27  C   UNL     1      50.907   4.611  17.448  0.00  0.00    +0.000 A 
ATOM     28  C   UNL     1      51.327   3.281  17.578  0.00  0.00    +0.000 A 
BRANCH  23  30
ATOM     29  C   UNL     1      52.376   0.904  17.702  0.00  0.00    +0.000 C 
ATOM     30  O   UNL     1      50.964   0.981  17.558  0.00  0.00    +0.000 OA
ENDBRANCH  23  30
ENDBRANCH  17  26
ENDBRANCH   1  21
TORSDOF 5
ENDMDL
MODEL 7
REMARK VINA RESULT:    -6.540      1.659      2.022
REMARK INTER + INTRA:          -8.602
REMARK INTER:                  -7.796
REMARK INTRA:                  -0.806
REMARK UNBOUND:                -0.150
REMARK  Name = 
REMARK  6 active torsions:
REMARK  status: ('A' for Active; 'I' for Inactive)
REMARK    1  A    between atoms: C_1  and  O_2
REMARK    2  A    between atoms: O_2  and  C_3
REMARK    3  A    between atoms: C_6  and  C_7
REMARK    4  A    between atoms: C_11  and  C_12
REMARK    5  A    between atoms: C_12  and  N_13
REMARK    6  A    between atoms: C_17  and  C_18
REMARK                            x       y       z     vdW  Elec       q    Type
REMARK                         _______ _______ _______ _____ _____    ______ ____
ROOT
ATOM      1  C   UNL     1      44.451   4.039  11.446  0.00  0.00    +0.000 C 
ATOM      2  C   UNL     1      43.465   4.977  10.773  0.00  0.00    +0.000 C 
ATOM      3  C   UNL     1      42.970   4.036  11.821  0.00  0.00    +0.000 C 
ENDROOT
BRANCH   1   4
ATOM      4  N   UNL     1      44.940   2.842  10.745  0.00  0.00    +0.000 N 
ATOM      5  C   UNL     1      45.565   2.814   9.497  0.00  0.00    +0.000 A 
ATOM      6  C   UNL     1      46.242   3.896   8.950  0.00  0.00    +0.000 A 
ATOM      7  C   UNL     1      46.880   3.780   7.715  0.00  0.00    +0.000 A 
ATOM      8  C   UNL     1      46.826   2.568   7.038  0.00  0.00    +0.000 A 
ATOM      9  C   UNL     1      46.121   1.535   7.635  0.00  0.00    +0.000 A 
ATOM     10  N   UNL     1      45.506   1.633   8.845  0.00  0.00    +0.000 NA
ATOM     11  H   UNL     1      44.448   1.960  10.862  0.00  0.00    +0.000 HD
BRANCH   8  12
ATOM     12  C   UNL     1      47.451   2.358   5.716  0.00  0.00    +0.000 C 
ATOM     13  N   UNL     1      47.007   3.127   4.678  0.00  0.00    +0.000 N 
ATOM     14  O   UNL     1      48.347   1.537   5.558  0.00  0.00    +0.000 OA
ATOM     15  H   UNL     1      46.447   3.959   4.807  0.00  0.00    +0.000 HD
ATOM     16  H   UNL     1      47.492   3.026   3.796  0.00  0.00    +0.000 HD
ENDBRANCH   8  12
ENDBRANCH   1   4
BRANCH   1  21
ATOM     17  C   UNL     1      46.885   6.404  13.321  0.00  0.00    +0.000 A 
ATOM     18  C   UNL     1      47.096   5.594  14.435  0.00  0.00    +0.000 A 
ATOM     19  N   UNL     1      46.562   4.363  14.620  0.00  0.00    +0.000 NA
ATOM     20  C   UNL     1      45.757   3.901  13.636  0.00  0.00    +0.000 A 
ATOM     21  C   UNL     1      45.406   4.610  12.490  0.00  0.00    +0.000 A 
ATOM     22  C   UNL     1      45.986   5.885  12.376  0.00  0.00    +0.000 A 
BRANCH  17  26
ATOM     23  C   UNL     1      49.016  10.129  12.722  0.00  0.00    +0.000 A 
ATOM     24  C   UNL     1      49.178   9.400  13.895  0.00  0.00    +0.000 A 
ATOM     25  C   UNL     1      48.478   8.200  14.085  0.00  0.00    +0.000 A 
ATOM     26  C   UNL     1      47.584   7.698  13.120  0.00  0.00    +0.000 A 
ATOM     27  C   UNL     1      47.432   8.459  11.947  0.00  0.00    +0.000 A 
ATOM     28  C   UNL     1      48.144   9.649  11.749  0.00  0.00    +0.000 A 
BRANCH  23  30
ATOM     29  C   UNL     1      51.064  11.312  12.535  0.00  0.00    +0.000 C 
ATOM     30  O   UNL     1      49.647  11.300  12.411  0.00  0.00    +0.000 OA
ENDBRANCH  23  30
ENDBRANCH  17  26
ENDBRANCH   1  21
TORSDOF 5
ENDMDL
MODEL 8
REMARK VINA RESULT:    -6.442      5.265      8.388
REMARK INTER + INTRA:          -8.476
REMARK INTER:                  -8.138
REMARK INTRA:                  -0.338
REMARK UNBOUND:                -0.150
REMARK  Name = 
REMARK  6 active torsions:
REMARK  status: ('A' for Active; 'I' for Inactive)
REMARK    1  A    between atoms: C_1  and  O_2
REMARK    2  A    between atoms: O_2  and  C_3
REMARK    3  A    between atoms: C_6  and  C_7
REMARK    4  A    between atoms: C_11  and  C_12
REMARK    5  A    between atoms: C_12  and  N_13
REMARK    6  A    between atoms: C_17  and  C_18
REMARK                            x       y       z     vdW  Elec       q    Type
REMARK                         _______ _______ _______ _____ _____    ______ ____
ROOT
ATOM      1  C   UNL     1      48.806   4.931  17.413  0.00  0.00    +0.000 C 
ATOM      2  C   UNL     1      48.057   4.657  18.705  0.00  0.00    +0.000 C 
ATOM      3  C   UNL     1      48.212   6.068  18.242  0.00  0.00    +0.000 C 
ENDROOT
BRANCH   1   4
ATOM      4  N   UNL     1      50.275   4.863  17.373  0.00  0.00    +0.000 N 
ATOM      5  C   UNL     1      51.053   3.718  17.554  0.00  0.00    +0.000 A 
ATOM      6  C   UNL     1      50.591   2.428  17.324  0.00  0.00    +0.000 A 
ATOM      7  C   UNL     1      51.441   1.334  17.485  0.00  0.00    +0.000 A 
ATOM      8  C   UNL     1      52.755   1.551  17.881  0.00  0.00    +0.000 A 
ATOM      9  C   UNL     1      53.145   2.862  18.106  0.00  0.00    +0.000 A 
ATOM     10  N   UNL     1      52.328   3.938  17.940  0.00  0.00    +0.000 NA
ATOM     11  H   UNL     1      50.820   5.658  17.694  0.00  0.00    +0.000 HD
BRANCH   8  12
ATOM     12  C   UNL     1      53.720   0.453  18.099  0.00  0.00    +0.000 C 
ATOM     13  N   UNL     1      53.224  -0.750  18.514  0.00  0.00    +0.000 N 
ATOM     14  O   UNL     1      54.919   0.610  17.899  0.00  0.00    +0.000 OA
ATOM     15  H   UNL     1      52.243  -0.988  18.469  0.00  0.00    +0.000 HD
ATOM     16  H   UNL     1      53.885  -1.512  18.589  0.00  0.00    +0.000 HD
ENDBRANCH   8  12
ENDBRANCH   1   4
BRANCH   1  21
ATOM     17  C   UNL     1      46.981   5.376  14.021  0.00  0.00    +0.000 A 
ATOM     18  C   UNL     1      46.893   4.025  13.689  0.00  0.00    +0.000 A 
ATOM     19  N   UNL     1      47.331   3.000  14.459  0.00  0.00    +0.000 NA
ATOM     20  C   UNL     1      47.901   3.333  15.639  0.00  0.00    +0.000 A 
ATOM     21  C   UNL     1      48.111   4.634  16.088  0.00  0.00    +0.000 A 
ATOM     22  C   UNL     1      47.645   5.645  15.229  0.00  0.00    +0.000 A 
BRANCH  17  26
ATOM     23  C   UNL     1      45.159   8.519  11.661  0.00  0.00    +0.000 A 
ATOM     24  C   UNL     1      44.641   7.229  11.645  0.00  0.00    +0.000 A 
ATOM     25  C   UNL     1      45.241   6.215  12.405  0.00  0.00    +0.000 A 
ATOM     26  C   UNL     1      46.385   6.452  13.191  0.00  0.00    +0.000 A 
ATOM     27  C   UNL     1      46.895   7.763  13.182  0.00  0.00    +0.000 A 
ATOM     28  C   UNL     1      46.285   8.780  12.436  0.00  0.00    +0.000 A 
BRANCH  23  30
ATOM     29  C   UNL     1      44.551  10.812  11.703  0.00  0.00    +0.000 C 
ATOM     30  O   UNL     1      44.660   9.593  10.979  0.00  0.00    +0.000 OA
ENDBRANCH  23  30
ENDBRANCH  17  26
ENDBRANCH   1  21
TORSDOF 5
ENDMDL
MODEL 9
REMARK VINA RESULT:    -6.407      3.121      7.535
REMARK INTER + INTRA:          -8.430
REMARK INTER:                  -7.614
REMARK INTRA:                  -0.815
REMARK UNBOUND:                -0.150
REMARK  Name = 
REMARK  6 active torsions:
REMARK  status: ('A' for Active; 'I' for Inactive)
REMARK    1  A    between atoms: C_1  and  O_2
REMARK    2  A    between atoms: O_2  and  C_3
REMARK    3  A    between atoms: C_6  and  C_7
REMARK    4  A    between atoms: C_11  and  C_12
REMARK    5  A    between atoms: C_12  and  N_13
REMARK    6  A    between atoms: C_17  and  C_18
REMARK                            x       y       z     vdW  Elec       q    Type
REMARK                         _______ _______ _______ _____ _____    ______ ____
ROOT
ATOM      1  C   UNL     1      48.756   8.176  14.150  0.00  0.00    +0.000 C 
ATOM      2  C   UNL     1      49.185   7.019  15.033  0.00  0.00    +0.000 C 
ATOM      3  C   UNL     1      48.607   8.240  15.669  0.00  0.00    +0.000 C 
ENDROOT
BRANCH   1   4
ATOM      4  N   UNL     1      49.758   9.079  13.563  0.00  0.00    +0.000 N 
ATOM      5  C   UNL     1      50.653   8.764  12.538  0.00  0.00    +0.000 A 
ATOM      6  C   UNL     1      50.434   7.757  11.607  0.00  0.00    +0.000 A 
ATOM      7  C   UNL     1      51.354   7.529  10.584  0.00  0.00    +0.000 A 
ATOM      8  C   UNL     1      52.494   8.320  10.512  0.00  0.00    +0.000 A 
ATOM      9  C   UNL     1      52.655   9.296  11.481  0.00  0.00    +0.000 A 
ATOM     10  N   UNL     1      51.758   9.536  12.476  0.00  0.00    +0.000 NA
ATOM     11  H   UNL     1      50.198   9.784  14.149  0.00  0.00    +0.000 HD
BRANCH   8  12
ATOM     12  C   UNL     1      53.534   8.136   9.478  0.00  0.00    +0.000 C 
ATOM     13  N   UNL     1      53.296   7.213   8.500  0.00  0.00    +0.000 N 
ATOM     14  O   UNL     1      54.564   8.800   9.486  0.00  0.00    +0.000 OA
ATOM     15  H   UNL     1      52.383   6.817   8.324  0.00  0.00    +0.000 HD
ATOM     16  H   UNL     1      53.982   7.148   7.759  0.00  0.00    +0.000 HD
ENDBRANCH   8  12
ENDBRANCH   1   4
BRANCH   1  21
ATOM     17  C   UNL     1      45.902   6.744  11.951  0.00  0.00    +0.000 A 
ATOM     18  C   UNL     1      45.085   7.873  11.963  0.00  0.00    +0.000 A 
ATOM     19  N   UNL     1      45.378   9.045  12.576  0.00  0.00    +0.000 NA
ATOM     20  C   UNL     1      46.562   9.103  13.229  0.00  0.00    +0.000 A 
ATOM     21  C   UNL     1      47.460   8.047  13.355  0.00  0.00    +0.000 A 
ATOM     22  C   UNL     1      47.080   6.859  12.705  0.00  0.00    +0.000 A 
BRANCH  17  26
ATOM     23  C   UNL     1      44.863   3.195   9.694  0.00  0.00    +0.000 A 
ATOM     24  C   UNL     1      44.817   3.190  11.083  0.00  0.00    +0.000 A 
ATOM     25  C   UNL     1      45.163   4.340  11.807  0.00  0.00    +0.000 A 
ATOM     26  C   UNL     1      45.580   5.524  11.169  0.00  0.00    +0.000 A 
ATOM     27  C   UNL     1      45.627   5.499   9.764  0.00  0.00    +0.000 A 
ATOM     28  C   UNL     1      45.265   4.356   9.039  0.00  0.00    +0.000 A 
BRANCH  23  30
ATOM     29  C   UNL     1      45.617   1.344   8.415  0.00  0.00    +0.000 C 
ATOM     30  O   UNL     1      44.539   2.149   8.876  0.00  0.00    +0.000 OA
ENDBRANCH  23  30
ENDBRANCH  17  26
ENDBRANCH   1  21
TORSDOF 5
ENDMDL
