MODEL 1
REMARK VINA RESULT:    -7.840      0.000      0.000
REMARK INTER + INTRA:          -8.620
REMARK INTER:                  -9.444
REMARK INTRA:                   0.824
REMARK UNBOUND:                 0.824
REMARK  Name = 
REMARK  5 active torsions:
REMARK  status: ('A' for Active; 'I' for Inactive)
REMARK    1  A    between atoms: C_1  and  C_2
REMARK    2  A    between atoms: C_5  and  N_6
REMARK    3  A    between atoms: C_5  and  C_17
REMARK    4  A    between atoms: C_10  and  C_11
REMARK    5  A    between atoms: C_14  and  N_15
REMARK                            x       y       z     vdW  Elec       q    Type
REMARK                         _______ _______ _______ _____ _____    ______ ____
ROOT
ATOM      1  N   UNL     1      44.611   5.454   9.468  0.00  0.00    +0.000 N 
ATOM      2  C   UNL     1      45.233   4.337   8.915  0.00  0.00    +0.000 A 
ATOM      3  N   UNL     1      45.264   3.188   9.591  0.00  0.00    +0.000 NA
ATOM      4  C   UNL     1      45.866   2.124   9.038  0.00  0.00    +0.000 A 
ATOM      5  C   UNL     1      46.486   2.169   7.821  0.00  0.00    +0.000 A 
ATOM      6  C   UNL     1      46.443   3.399   7.181  0.00  0.00    +0.000 A 
ATOM      7  N   UNL     1      45.826   4.483   7.715  0.00  0.00    +0.000 NA
ATOM      8  H   UNL     1      44.961   6.251   8.943  0.00  0.00    +0.000 HD
ENDROOT
BRANCH   1  13
ATOM      9  C   UNL     1      43.300   2.694  13.017  0.00  0.00    +0.000 C 
ATOM     10  C   UNL     1      43.329   3.775  11.945  0.00  0.00    +0.000 C 
ATOM     11  C   UNL     1      42.661   5.065  12.372  0.00  0.00    +0.000 C 
ATOM     12  C   UNL     1      43.237   6.125  11.431  0.00  0.00    +0.000 C 
ATOM     13  C   UNL     1      44.641   5.616  10.947  0.00  0.00    +0.000 C 
ATOM     14  C   UNL     1      44.752   4.219  11.632  0.00  0.00    +0.000 C 
BRANCH  13  15
ATOM     15  C   UNL     1      45.777   6.635  11.344  0.00  0.00    +0.000 C 
ATOM     16  C   UNL     1      46.804   6.065  12.349  0.00  0.00    +0.000 C 
ATOM     17  C   UNL     1      47.852   7.092  12.760  0.00  0.00    +0.000 C 
ATOM     18  C   UNL     1      47.209   8.357  13.308  0.00  0.00    +0.000 C 
ATOM     19  C   UNL     1      46.266   8.968  12.284  0.00  0.00    +0.000 C 
ATOM     20  C   UNL     1      45.190   7.975  11.862  0.00  0.00    +0.000 C 
ENDBRANCH  13  15
ENDBRANCH   1  13
BRANCH   5  21
ATOM     21  C   UNL     1      47.044   0.953   7.199  0.00  0.00    +0.000 C 
ATOM     22  N   UNL     1      46.625  -0.267   7.659  0.00  0.00    +0.000 N 
ATOM     23  O   UNL     1      47.843   1.024   6.273  0.00  0.00    +0.000 OA
ATOM     24  H   UNL     1      46.039  -0.421   8.468  0.00  0.00    +0.000 HD
ATOM     25  H   UNL     1      47.051  -1.082   7.232  0.00  0.00    +0.000 HD
ENDBRANCH   5  21
BRANCH   6  26
ATOM     26  N   UNL     1      47.170   3.631   6.008  0.00  0.00    +0.000 N 
ATOM     27  H   UNL     1      47.881   2.914   5.842  0.00  0.00    +0.000 HD
ATOM     28  H   UNL     1      46.544   3.796   5.229  0.00  0.00    +0.000 HD
ENDBRANCH   6  26
TORSDOF 4
ENDMDL
MODEL 2
REMARK VINA RESULT:    -7.201      3.442      5.941
REMARK INTER + INTRA:          -7.850
REMARK INTER:                  -7.673
REMARK INTRA:                  -0.178
REMARK UNBOUND:                 0.824
REMARK  Name = 
REMARK  5 active torsions:
REMARK  status: ('A' for Active; 'I' for Inactive)
REMARK    1  A    between atoms: C_1  and  C_2
REMARK    2  A    between atoms: C_5  and  N_6
REMARK    3  A    between atoms: C_5  and  C_17
REMARK    4  A    between atoms: C_10  and  C_11
REMARK    5  A    between atoms: C_14  and  N_15
REMARK                            x       y       z     vdW  Elec       q    Type
REMARK                         _______ _______ _______ _____ _____    ______ ____
ROOT
ATOM      1  N   UNL     1      46.445   8.099  13.352  0.00  0.00    +0.000 N 
ATOM      2  C   UNL     1      45.902   6.898  12.900  0.00  0.00    +0.000 A 
ATOM      3  N   UNL     1      46.492   5.742  13.210  0.00  0.00    +0.000 NA
ATOM      4  C   UNL     1      45.950   4.597  12.765  0.00  0.00    +0.000 A 
ATOM      5  C   UNL     1      44.836   4.558  11.975  0.00  0.00    +0.000 A 
ATOM      6  C   UNL     1      44.288   5.794  11.665  0.00  0.00    +0.000 A 
ATOM      7  N   UNL     1      44.810   6.963  12.116  0.00  0.00    +0.000 NA
ATOM      8  H   UNL     1      46.033   8.822  12.769  0.00  0.00    +0.000 HD
ENDROOT
BRANCH   1  13
ATOM      9  C   UNL     1      49.755  10.599  11.179  0.00  0.00    +0.000 C 
ATOM     10  C   UNL     1      48.822   9.474  11.603  0.00  0.00    +0.000 C 
ATOM     11  C   UNL     1      49.466   8.105  11.547  0.00  0.00    +0.000 C 
ATOM     12  C   UNL     1      48.605   7.237  12.467  0.00  0.00    +0.000 C 
ATOM     13  C   UNL     1      47.921   8.188  13.512  0.00  0.00    +0.000 C 
ATOM     14  C   UNL     1      48.420   9.597  13.067  0.00  0.00    +0.000 C 
BRANCH  13  15
ATOM     15  C   UNL     1      48.319   7.784  14.984  0.00  0.00    +0.000 C 
ATOM     16  C   UNL     1      48.319   8.969  15.977  0.00  0.00    +0.000 C 
ATOM     17  C   UNL     1      48.766   8.559  17.375  0.00  0.00    +0.000 C 
ATOM     18  C   UNL     1      50.126   7.879  17.350  0.00  0.00    +0.000 C 
ATOM     19  C   UNL     1      50.101   6.661  16.441  0.00  0.00    +0.000 C 
ATOM     20  C   UNL     1      49.676   7.034  15.027  0.00  0.00    +0.000 C 
ENDBRANCH  13  15
ENDBRANCH   1  13
BRANCH   5  21
ATOM     21  C   UNL     1      44.211   3.278  11.595  0.00  0.00    +0.000 C 
ATOM     22  N   UNL     1      43.738   2.461  12.587  0.00  0.00    +0.000 N 
ATOM     23  O   UNL     1      44.087   2.957  10.418  0.00  0.00    +0.000 OA
ATOM     24  H   UNL     1      43.873   2.603  13.579  0.00  0.00    +0.000 HD
ATOM     25  H   UNL     1      43.342   1.575  12.294  0.00  0.00    +0.000 HD
ENDBRANCH   5  21
BRANCH   6  26
ATOM     26  N   UNL     1      43.247   5.913  10.738  0.00  0.00    +0.000 N 
ATOM     27  H   UNL     1      42.385   5.464  11.061  0.00  0.00    +0.000 HD
ATOM     28  H   UNL     1      43.139   6.876  10.446  0.00  0.00    +0.000 HD
ENDBRANCH   6  26
TORSDOF 4
ENDMDL
MODEL 3
REMARK VINA RESULT:    -7.017      3.099      5.338
REMARK INTER + INTRA:          -7.628
REMARK INTER:                  -7.473
REMARK INTRA:                  -0.155
REMARK UNBOUND:                 0.824
REMARK  Name = 
REMARK  5 active torsions:
REMARK  status: ('A' for Active; 'I' for Inactive)
REMARK    1  A    between atoms: C_1  and  C_2
REMARK    2  A    between atoms: C_5  and  N_6
REMARK    3  A    between atoms: C_5  and  C_17
REMARK    4  A    between atoms: C_10  and  C_11
REMARK    5  A    between atoms: C_14  and  N_15
REMARK                            x       y       z     vdW  Elec       q    Type
REMARK                         _______ _______ _______ _____ _____    ______ ____
ROOT
ATOM      1  N   UNL     1      46.412   7.743  13.667  0.00  0.00    +0.000 N 
ATOM      2  C   UNL     1      45.881   6.630  13.018  0.00  0.00    +0.000 A 
ATOM      3  N   UNL     1      46.448   5.433  13.177  0.00  0.00    +0.000 NA
ATOM      4  C   UNL     1      45.918   4.374  12.545  0.00  0.00    +0.000 A 
ATOM      5  C   UNL     1      44.839   4.468  11.712  0.00  0.00    +0.000 A 
ATOM      6  C   UNL     1      44.314   5.743  11.567  0.00  0.00    +0.000 A 
ATOM      7  N   UNL     1      44.824   6.825  12.208  0.00  0.00    +0.000 NA
ATOM      8  H   UNL     1      46.031   8.551  13.181  0.00  0.00    +0.000 HD
ENDROOT
BRANCH   1  13
ATOM      9  C   UNL     1      49.223   5.672  16.787  0.00  0.00    +0.000 C 
ATOM     10  C   UNL     1      48.348   6.683  16.060  0.00  0.00    +0.000 C 
ATOM     11  C   UNL     1      48.843   8.108  16.185  0.00  0.00    +0.000 C 
ATOM     12  C   UNL     1      48.187   8.847  15.017  0.00  0.00    +0.000 C 
ATOM     13  C   UNL     1      47.881   7.788  13.900  0.00  0.00    +0.000 C 
ATOM     14  C   UNL     1      48.356   6.454  14.554  0.00  0.00    +0.000 C 
BRANCH  13  15
ATOM     15  C   UNL     1      48.617   8.159  12.555  0.00  0.00    +0.000 C 
ATOM     16  C   UNL     1      49.937   7.386  12.332  0.00  0.00    +0.000 C 
ATOM     17  C   UNL     1      50.655   7.811  11.057  0.00  0.00    +0.000 C 
ATOM     18  C   UNL     1      50.901   9.311  11.028  0.00  0.00    +0.000 C 
ATOM     19  C   UNL     1      49.592  10.073  11.158  0.00  0.00    +0.000 C 
ATOM     20  C   UNL     1      48.852   9.688  12.433  0.00  0.00    +0.000 C 
ENDBRANCH  13  15
ENDBRANCH   1  13
BRANCH   5  21
ATOM     21  C   UNL     1      44.221   3.267  11.119  0.00  0.00    +0.000 C 
ATOM     22  N   UNL     1      44.974   2.493  10.276  0.00  0.00    +0.000 N 
ATOM     23  O   UNL     1      43.070   2.946  11.392  0.00  0.00    +0.000 OA
ATOM     24  H   UNL     1      45.895   2.725   9.930  0.00  0.00    +0.000 HD
ATOM     25  H   UNL     1      44.510   1.692   9.862  0.00  0.00    +0.000 HD
ENDBRANCH   5  21
BRANCH   6  26
ATOM     26  N   UNL     1      43.314   6.012  10.625  0.00  0.00    +0.000 N 
ATOM     27  H   UNL     1      42.409   6.204  11.062  0.00  0.00    +0.000 HD
ATOM     28  H   UNL     1      43.626   6.717   9.968  0.00  0.00    +0.000 HD
ENDBRANCH   6  26
TORSDOF 4
ENDMDL
MODEL 4
REMARK VINA RESULT:    -6.976      4.244      6.763
REMARK INTER + INTRA:          -7.579
REMARK INTER:                  -7.174
REMARK INTRA:                  -0.406
REMARK UNBOUND:                 0.824
REMARK  Name = 
REMARK  5 active torsions:
REMARK  status: ('A' for Active; 'I' for Inactive)
REMARK    1  A    between atoms: C_1  and  C_2
REMARK    2  A    between atoms: C_5  and  N_6
REMARK    3  A    between atoms: C_5  and  C_17
REMARK    4  A    between atoms: C_10  and  C_11
REMARK    5  A    between atoms: C_14  and  N_15
REMARK                            x       y       z     vdW  Elec       q    Type
REMARK                         _______ _______ _______ _____ _____    ______ ____
ROOT
ATOM      1  N   UNL     1      48.485   6.783  12.563  0.00  0.00    +0.000 N 
ATOM      2  C   UNL     1      47.135   6.445  12.613  0.00  0.00    +0.000 A 
ATOM      3  N   UNL     1      46.207   7.403  12.614  0.00  0.00    +0.000 NA
ATOM      4  C   UNL     1      44.912   7.054  12.660  0.00  0.00    +0.000 A 
ATOM      5  C   UNL     1      44.494   5.755  12.743  0.00  0.00    +0.000 A 
ATOM      6  C   UNL     1      45.507   4.809  12.766  0.00  0.00    +0.000 A 
ATOM      7  N   UNL     1      46.822   5.139  12.705  0.00  0.00    +0.000 NA
ATOM      8  H   UNL     1      48.987   5.954  12.869  0.00  0.00    +0.000 HD
ENDROOT
BRANCH   1  13
ATOM      9  C   UNL     1      49.363  11.078  10.916  0.00  0.00    +0.000 C 
ATOM     10  C   UNL     1      49.521   9.653  11.427  0.00  0.00    +0.000 C 
ATOM     11  C   UNL     1      50.764   9.448  12.266  0.00  0.00    +0.000 C 
ATOM     12  C   UNL     1      50.475   8.185  13.079  0.00  0.00    +0.000 C 
ATOM     13  C   UNL     1      48.917   8.052  13.209  0.00  0.00    +0.000 C 
ATOM     14  C   UNL     1      48.400   9.271  12.386  0.00  0.00    +0.000 C 
BRANCH  13  15
ATOM     15  C   UNL     1      48.478   8.048  14.724  0.00  0.00    +0.000 C 
ATOM     16  C   UNL     1      48.457   9.452  15.371  0.00  0.00    +0.000 C 
ATOM     17  C   UNL     1      48.089   9.409  16.850  0.00  0.00    +0.000 C 
ATOM     18  C   UNL     1      49.004   8.474  17.626  0.00  0.00    +0.000 C 
ATOM     19  C   UNL     1      48.956   7.071  17.044  0.00  0.00    +0.000 C 
ATOM     20  C   UNL     1      49.337   7.070  15.569  0.00  0.00    +0.000 C 
ENDBRANCH  13  15
ENDBRANCH   1  13
BRANCH   5  21
ATOM     21  C   UNL     1      43.062   5.406  12.684  0.00  0.00    +0.000 C 
ATOM     22  N   UNL     1      42.260   6.081  11.803  0.00  0.00    +0.000 N 
ATOM     23  O   UNL     1      42.598   4.514  13.386  0.00  0.00    +0.000 OA
ATOM     24  H   UNL     1      42.536   6.883  11.253  0.00  0.00    +0.000 HD
ATOM     25  H   UNL     1      41.275   5.839  11.810  0.00  0.00    +0.000 HD
ENDBRANCH   5  21
BRANCH   6  26
ATOM     26  N   UNL     1      45.231   3.459  13.008  0.00  0.00    +0.000 N 
ATOM     27  H   UNL     1      44.284   3.196  12.721  0.00  0.00    +0.000 HD
ATOM     28  H   UNL     1      45.966   2.873  12.632  0.00  0.00    +0.000 HD
ENDBRANCH   6  26
TORSDOF 4
ENDMDL
MODEL 5
REMARK VINA RESULT:    -6.677      4.014      6.193
REMARK INTER + INTRA:          -7.219
REMARK INTER:                  -7.012
REMARK INTRA:                  -0.207
REMARK UNBOUND:                 0.824
REMARK  Name = 
REMARK  5 active torsions:
REMARK  status: ('A' for Active; 'I' for Inactive)
REMARK    1  A    between atoms: C_1  and  C_2
REMARK    2  A    between atoms: C_5  and  N_6
REMARK    3  A    between atoms: C_5  and  C_17
REMARK    4  A    between atoms: C_10  and  C_11
REMARK    5  A    between atoms: C_14  and  N_15
REMARK                            x       y       z     vdW  Elec       q    Type
REMARK                         _______ _______ _______ _____ _____    ______ ____
ROOT
ATOM      1  N   UNL     1      48.501   6.573  12.908  0.00  0.00    +0.000 N 
ATOM      2  C   UNL     1      47.176   6.274  12.594  0.00  0.00    +0.000 A 
ATOM      3  N   UNL     1      46.398   7.204  12.038  0.00  0.00    +0.000 NA
ATOM      4  C   UNL     1      45.126   6.894  11.741  0.00  0.00    +0.000 A 
ATOM      5  C   UNL     1      44.574   5.675  12.015  0.00  0.00    +0.000 A 
ATOM      6  C   UNL     1      45.426   4.762  12.618  0.00  0.00    +0.000 A 
ATOM      7  N   UNL     1      46.720   5.049  12.913  0.00  0.00    +0.000 NA
ATOM      8  H   UNL     1      48.793   5.857  13.568  0.00  0.00    +0.000 HD
ENDROOT
BRANCH   1  13
ATOM      9  C   UNL     1      50.148   8.464  16.862  0.00  0.00    +0.000 C 
ATOM     10  C   UNL     1      49.227   7.992  15.747  0.00  0.00    +0.000 C 
ATOM     11  C   UNL     1      48.068   8.930  15.485  0.00  0.00    +0.000 C 
ATOM     12  C   UNL     1      47.606   8.584  14.068  0.00  0.00    +0.000 C 
ATOM     13  C   UNL     1      48.832   7.967  13.308  0.00  0.00    +0.000 C 
ATOM     14  C   UNL     1      49.943   7.957  14.402  0.00  0.00    +0.000 C 
BRANCH  13  15
ATOM     15  C   UNL     1      49.182   8.814  12.024  0.00  0.00    +0.000 C 
ATOM     16  C   UNL     1      50.687   9.135  11.880  0.00  0.00    +0.000 C 
ATOM     17  C   UNL     1      50.985  10.007  10.665  0.00  0.00    +0.000 C 
ATOM     18  C   UNL     1      50.163  11.286  10.680  0.00  0.00    +0.000 C 
ATOM     19  C   UNL     1      48.677  10.969  10.732  0.00  0.00    +0.000 C 
ATOM     20  C   UNL     1      48.336  10.113  11.946  0.00  0.00    +0.000 C 
ENDBRANCH  13  15
ENDBRANCH   1  13
BRANCH   5  21
ATOM     21  C   UNL     1      43.206   5.337  11.578  0.00  0.00    +0.000 C 
ATOM     22  N   UNL     1      42.221   6.276  11.732  0.00  0.00    +0.000 N 
ATOM     23  O   UNL     1      42.954   4.254  11.062  0.00  0.00    +0.000 OA
ATOM     24  H   UNL     1      42.318   7.155  12.220  0.00  0.00    +0.000 HD
ATOM     25  H   UNL     1      41.286   6.001  11.450  0.00  0.00    +0.000 HD
ENDBRANCH   5  21
BRANCH   6  26
ATOM     26  N   UNL     1      44.953   3.536  13.098  0.00  0.00    +0.000 N 
ATOM     27  H   UNL     1      45.660   3.029  13.637  0.00  0.00    +0.000 HD
ATOM     28  H   UNL     1      44.066   3.658  13.571  0.00  0.00    +0.000 HD
ENDBRANCH   6  26
TORSDOF 4
ENDMDL
MODEL 6
REMARK VINA RESULT:    -6.186      4.340      6.709
REMARK INTER + INTRA:          -6.628
REMARK INTER:                  -6.438
REMARK INTRA:                  -0.191
REMARK UNBOUND:                 0.824
REMARK  Name = 
REMARK  5 active torsions:
REMARK  status: ('A' for Active; 'I' for Inactive)
REMARK    1  A    between atoms: C_1  and  C_2
REMARK    2  A    between atoms: C_5  and  N_6
REMARK    3  A    between atoms: C_5  and  C_17
REMARK    4  A    between atoms: C_10  and  C_11
REMARK    5  A    between atoms: C_14  and  N_15
REMARK                            x       y       z     vdW  Elec       q    Type
REMARK                         _______ _______ _______ _____ _____    ______ ____
ROOT
ATOM      1  N   UNL     1      47.193   6.109  12.184  0.00  0.00    +0.000 N 
ATOM      2  C   UNL     1      47.346   5.464  13.409  0.00  0.00    +0.000 A 
ATOM      3  N   UNL     1      46.678   4.335  13.655  0.00  0.00    +0.000 NA
ATOM      4  C   UNL     1      46.842   3.729  14.841  0.00  0.00    +0.000 A 
ATOM      5  C   UNL     1      47.638   4.233  15.831  0.00  0.00    +0.000 A 
ATOM      6  C   UNL     1      48.281   5.422  15.524  0.00  0.00    +0.000 A 
ATOM      7  N   UNL     1      48.143   6.044  14.326  0.00  0.00    +0.000 NA
ATOM      8  H   UNL     1      47.534   7.056  12.329  0.00  0.00    +0.000 HD
ENDROOT
BRANCH   1  13
ATOM      9  C   UNL     1      43.946   9.283  11.040  0.00  0.00    +0.000 C 
ATOM     10  C   UNL     1      44.723   8.186  11.753  0.00  0.00    +0.000 C 
ATOM     11  C   UNL     1      43.837   7.145  12.402  0.00  0.00    +0.000 C 
ATOM     12  C   UNL     1      44.744   5.925  12.581  0.00  0.00    +0.000 C 
ATOM     13  C   UNL     1      45.877   6.015  11.498  0.00  0.00    +0.000 C 
ATOM     14  C   UNL     1      45.554   7.361  10.778  0.00  0.00    +0.000 C 
BRANCH  13  15
ATOM     15  C   UNL     1      45.859   4.748  10.560  0.00  0.00    +0.000 C 
ATOM     16  C   UNL     1      45.875   5.087   9.051  0.00  0.00    +0.000 C 
ATOM     17  C   UNL     1      45.795   3.845   8.172  0.00  0.00    +0.000 C 
ATOM     18  C   UNL     1      44.584   2.993   8.517  0.00  0.00    +0.000 C 
ATOM     19  C   UNL     1      44.615   2.583   9.981  0.00  0.00    +0.000 C 
ATOM     20  C   UNL     1      44.676   3.801  10.895  0.00  0.00    +0.000 C 
ENDBRANCH  13  15
ENDBRANCH   1  13
BRANCH   5  21
ATOM     21  C   UNL     1      47.875   3.484  17.080  0.00  0.00    +0.000 C 
ATOM     22  N   UNL     1      46.808   2.885  17.695  0.00  0.00    +0.000 N 
ATOM     23  O   UNL     1      49.003   3.373  17.548  0.00  0.00    +0.000 OA
ATOM     24  H   UNL     1      45.839   2.995  17.431  0.00  0.00    +0.000 HD
ATOM     25  H   UNL     1      47.001   2.405  18.568  0.00  0.00    +0.000 HD
ENDBRANCH   5  21
BRANCH   6  26
ATOM     26  N   UNL     1      48.997   6.131  16.495  0.00  0.00    +0.000 N 
ATOM     27  H   UNL     1      48.893   7.144  16.394  0.00  0.00    +0.000 HD
ATOM     28  H   UNL     1      48.791   5.773  17.420  0.00  0.00    +0.000 HD
ENDBRANCH   6  26
TORSDOF 4
ENDMDL
MODEL 7
REMARK VINA RESULT:    -6.135      3.621      6.307
REMARK INTER + INTRA:          -6.567
REMARK INTER:                  -7.345
REMARK INTRA:                   0.778
REMARK UNBOUND:                 0.824
REMARK  Name = 
REMARK  5 active torsions:
REMARK  status: ('A' for Active; 'I' for Inactive)
REMARK    1  A    between atoms: C_1  and  C_2
REMARK    2  A    between atoms: C_5  and  N_6
REMARK    3  A    between atoms: C_5  and  C_17
REMARK    4  A    between atoms: C_10  and  C_11
REMARK    5  A    between atoms: C_14  and  N_15
REMARK                            x       y       z     vdW  Elec       q    Type
REMARK                         _______ _______ _______ _____ _____    ______ ____
ROOT
ATOM      1  N   UNL     1      46.068   5.372  10.865  0.00  0.00    +0.000 N 
ATOM      2  C   UNL     1      46.542   5.342  12.175  0.00  0.00    +0.000 A 
ATOM      3  N   UNL     1      46.383   4.244  12.917  0.00  0.00    +0.000 NA
ATOM      4  C   UNL     1      46.849   4.238  14.175  0.00  0.00    +0.000 A 
ATOM      5  C   UNL     1      47.452   5.320  14.752  0.00  0.00    +0.000 A 
ATOM      6  C   UNL     1      47.561   6.438  13.939  0.00  0.00    +0.000 A 
ATOM      7  N   UNL     1      47.111   6.462  12.659  0.00  0.00    +0.000 NA
ATOM      8  H   UNL     1      46.024   6.355  10.612  0.00  0.00    +0.000 HD
ENDROOT
BRANCH   1  13
ATOM      9  C   UNL     1      41.529   5.948  11.863  0.00  0.00    +0.000 C 
ATOM     10  C   UNL     1      42.978   5.482  11.885  0.00  0.00    +0.000 C 
ATOM     11  C   UNL     1      43.138   4.029  12.278  0.00  0.00    +0.000 C 
ATOM     12  C   UNL     1      44.517   3.637  11.746  0.00  0.00    +0.000 C 
ATOM     13  C   UNL     1      44.847   4.586  10.540  0.00  0.00    +0.000 C 
ATOM     14  C   UNL     1      43.604   5.527  10.497  0.00  0.00    +0.000 C 
BRANCH  13  15
ATOM     15  C   UNL     1      45.090   3.756   9.221  0.00  0.00    +0.000 C 
ATOM     16  C   UNL     1      45.520   2.293   9.475  0.00  0.00    +0.000 C 
ATOM     17  C   UNL     1      45.807   1.535   8.184  0.00  0.00    +0.000 C 
ATOM     18  C   UNL     1      46.837   2.258   7.329  0.00  0.00    +0.000 C 
ATOM     19  C   UNL     1      46.372   3.668   7.004  0.00  0.00    +0.000 C 
ATOM     20  C   UNL     1      46.093   4.465   8.273  0.00  0.00    +0.000 C 
ENDBRANCH  13  15
ENDBRANCH   1  13
BRANCH   5  21
ATOM     21  C   UNL     1      48.045   5.239  16.100  0.00  0.00    +0.000 C 
ATOM     22  N   UNL     1      47.228   4.937  17.156  0.00  0.00    +0.000 N 
ATOM     23  O   UNL     1      49.247   5.409  16.275  0.00  0.00    +0.000 OA
ATOM     24  H   UNL     1      46.221   4.866  17.119  0.00  0.00    +0.000 HD
ATOM     25  H   UNL     1      47.662   4.919  18.073  0.00  0.00    +0.000 HD
ENDBRANCH   5  21
BRANCH   6  26
ATOM     26  N   UNL     1      48.010   7.662  14.447  0.00  0.00    +0.000 N 
ATOM     27  H   UNL     1      48.862   7.988  13.982  0.00  0.00    +0.000 HD
ATOM     28  H   UNL     1      47.254   8.336  14.468  0.00  0.00    +0.000 HD
ENDBRANCH   6  26
TORSDOF 4
ENDMDL
MODEL 8
REMARK VINA RESULT:    -6.062      4.738      6.550
REMARK INTER + INTRA:          -6.479
REMARK INTER:                  -7.265
REMARK INTRA:                   0.786
REMARK UNBOUND:                 0.824
REMARK  Name = 
REMARK  5 active torsions:
REMARK  status: ('A' for Active; 'I' for Inactive)
REMARK    1  A    between atoms: C_1  and  C_2
REMARK    2  A    between atoms: C_5  and  N_6
REMARK    3  A    between atoms: C_5  and  C_17
REMARK    4  A    between atoms: C_10  and  C_11
REMARK    5  A    between atoms: C_14  and  N_15
REMARK                            x       y       z     vdW  Elec       q    Type
REMARK                         _______ _______ _______ _____ _____    ______ ____
ROOT
ATOM      1  N   UNL     1      47.457   6.136  12.615  0.00  0.00    +0.000 N 
ATOM      2  C   UNL     1      47.650   5.688  13.920  0.00  0.00    +0.000 A 
ATOM      3  N   UNL     1      46.772   4.851  14.474  0.00  0.00    +0.000 NA
ATOM      4  C   UNL     1      46.979   4.430  15.731  0.00  0.00    +0.000 A 
ATOM      5  C   UNL     1      48.035   4.847  16.491  0.00  0.00    +0.000 A 
ATOM      6  C   UNL     1      48.896   5.738  15.868  0.00  0.00    +0.000 A 
ATOM      7  N   UNL     1      48.714   6.165  14.592  0.00  0.00    +0.000 NA
ATOM      8  H   UNL     1      48.046   6.959  12.518  0.00  0.00    +0.000 HD
ENDROOT
BRANCH   1  13
ATOM      9  C   UNL     1      43.854   3.182  12.144  0.00  0.00    +0.000 C 
ATOM     10  C   UNL     1      45.067   4.057  11.862  0.00  0.00    +0.000 C 
ATOM     11  C   UNL     1      45.035   4.711  10.497  0.00  0.00    +0.000 C 
ATOM     12  C   UNL     1      45.998   5.894  10.614  0.00  0.00    +0.000 C 
ATOM     13  C   UNL     1      46.061   6.304  12.128  0.00  0.00    +0.000 C 
ATOM     14  C   UNL     1      45.131   5.252  12.806  0.00  0.00    +0.000 C 
BRANCH  13  15
ATOM     15  C   UNL     1      45.611   7.803  12.324  0.00  0.00    +0.000 C 
ATOM     16  C   UNL     1      44.523   8.263  11.326  0.00  0.00    +0.000 C 
ATOM     17  C   UNL     1      44.153   9.731  11.500  0.00  0.00    +0.000 C 
ATOM     18  C   UNL     1      45.377  10.629  11.412  0.00  0.00    +0.000 C 
ATOM     19  C   UNL     1      46.411  10.233  12.454  0.00  0.00    +0.000 C 
ATOM     20  C   UNL     1      46.821   8.774  12.300  0.00  0.00    +0.000 C 
ENDBRANCH  13  15
ENDBRANCH   1  13
BRANCH   5  21
ATOM     21  C   UNL     1      48.287   4.281  17.830  0.00  0.00    +0.000 C 
ATOM     22  N   UNL     1      47.407   3.357  18.324  0.00  0.00    +0.000 N 
ATOM     23  O   UNL     1      49.276   4.605  18.479  0.00  0.00    +0.000 OA
ATOM     24  H   UNL     1      46.527   3.097  17.900  0.00  0.00    +0.000 HD
ATOM     25  H   UNL     1      47.592   3.011  19.260  0.00  0.00    +0.000 HD
ENDBRANCH   5  21
BRANCH   6  26
ATOM     26  N   UNL     1      49.925   6.368  16.577  0.00  0.00    +0.000 N 
ATOM     27  H   UNL     1      49.887   6.166  17.580  0.00  0.00    +0.000 HD
ATOM     28  H   UNL     1      50.820   6.186  16.141  0.00  0.00    +0.000 HD
ENDBRANCH   6  26
TORSDOF 4
ENDMDL
MODEL 9
REMARK VINA RESULT:    -5.912      6.390      8.475
REMARK INTER + INTRA:          -6.298
REMARK INTER:                  -6.172
REMARK INTRA:                  -0.126
REMARK UNBOUND:                 0.824
REMARK  Name = 
REMARK  5 active torsions:
REMARK  status: ('A' for Active; 'I' for Inactive)
REMARK    1  A    between atoms: C_1  and  C_2
REMARK    2  A    between atoms: C_5  and  N_6
REMARK    3  A    between atoms: C_5  and  C_17
REMARK    4  A    between atoms: C_10  and  C_11
REMARK    5  A    between atoms: C_14  and  N_15
REMARK                            x       y       z     vdW  Elec       q    Type
REMARK                         _______ _______ _______ _____ _____    ______ ____
ROOT
ATOM      1  N   UNL     1      49.511   6.703  17.020  0.00  0.00    +0.000 N 
ATOM      2  C   UNL     1      48.710   6.218  15.988  0.00  0.00    +0.000 A 
ATOM      3  N   UNL     1      47.793   5.281  16.240  0.00  0.00    +0.000 NA
ATOM      4  C   UNL     1      47.032   4.831  15.232  0.00  0.00    +0.000 A 
ATOM      5  C   UNL     1      47.173   5.260  13.942  0.00  0.00    +0.000 A 
ATOM      6  C   UNL     1      48.161   6.213  13.741  0.00  0.00    +0.000 A 
ATOM      7  N   UNL     1      48.932   6.694  14.749  0.00  0.00    +0.000 NA
ATOM      8  H   UNL     1      50.300   7.154  16.566  0.00  0.00    +0.000 HD
ENDROOT
BRANCH   1  13
ATOM      9  C   UNL     1      47.517   5.706  21.139  0.00  0.00    +0.000 C 
ATOM     10  C   UNL     1      48.419   6.288  20.059  0.00  0.00    +0.000 C 
ATOM     11  C   UNL     1      49.845   6.506  20.518  0.00  0.00    +0.000 C 
ATOM     12  C   UNL     1      50.658   6.575  19.224  0.00  0.00    +0.000 C 
ATOM     13  C   UNL     1      49.871   5.776  18.127  0.00  0.00    +0.000 C 
ATOM     14  C   UNL     1      48.585   5.330  18.887  0.00  0.00    +0.000 C 
BRANCH  13  15
ATOM     15  C   UNL     1      50.744   4.591  17.559  0.00  0.00    +0.000 C 
ATOM     16  C   UNL     1      50.076   3.203  17.695  0.00  0.00    +0.000 C 
ATOM     17  C   UNL     1      50.968   2.074  17.195  0.00  0.00    +0.000 C 
ATOM     18  C   UNL     1      52.324   2.086  17.884  0.00  0.00    +0.000 C 
ATOM     19  C   UNL     1      53.021   3.421  17.675  0.00  0.00    +0.000 C 
ATOM     20  C   UNL     1      52.166   4.577  18.181  0.00  0.00    +0.000 C 
ENDBRANCH  13  15
ENDBRANCH   1  13
BRANCH   5  21
ATOM     21  C   UNL     1      46.248   4.820  12.881  0.00  0.00    +0.000 C 
ATOM     22  N   UNL     1      45.319   3.860  13.182  0.00  0.00    +0.000 N 
ATOM     23  O   UNL     1      46.284   5.318  11.761  0.00  0.00    +0.000 OA
ATOM     24  H   UNL     1      45.273   3.337  14.045  0.00  0.00    +0.000 HD
ATOM     25  H   UNL     1      44.719   3.557  12.422  0.00  0.00    +0.000 HD
ENDBRANCH   5  21
BRANCH   6  26
ATOM     26  N   UNL     1      48.522   6.622  12.453  0.00  0.00    +0.000 N 
ATOM     27  H   UNL     1      49.527   6.526  12.281  0.00  0.00    +0.000 HD
ATOM     28  H   UNL     1      47.929   6.181  11.761  0.00  0.00    +0.000 HD
ENDBRANCH   6  26
TORSDOF 4
ENDMDL
