MODEL 1
REMARK VINA RESULT:    -8.188      0.000      0.000
REMARK INTER + INTRA:         -12.178
REMARK INTER:                 -11.060
REMARK INTRA:                  -1.118
REMARK UNBOUND:                -1.118
REMARK  Name = 
REMARK  7 active torsions:
REMARK  status: ('A' for Active; 'I' for Inactive)
REMARK    1  A    between atoms: C_1  and  C_2
REMARK    2  A    between atoms: C_6  and  C_7
REMARK    3  A    between atoms: N_9  and  C_10
REMARK    4  A    between atoms: C_10  and  C_11
REMARK    5  A    between atoms: C_14  and  C_15
REMARK    6  A    between atoms: C_15  and  N_16
REMARK    7  A    between atoms: C_17  and  C_19
REMARK                            x       y       z     vdW  Elec       q    Type
REMARK                         _______ _______ _______ _____ _____    ______ ____
ROOT
ATOM      1  C   UNL     1      45.281   6.657  11.357  0.00  0.00    +0.000 A 
ATOM      2  C   UNL     1      46.532   6.125  11.699  0.00  0.00    +0.000 A 
ATOM      3  C   UNL     1      47.371   6.780  12.616  0.00  0.00    +0.000 A 
ATOM      4  C   UNL     1      46.972   7.972  13.233  0.00  0.00    +0.000 A 
ATOM      5  C   UNL     1      45.732   8.519  12.873  0.00  0.00    +0.000 A 
ATOM      6  C   UNL     1      44.891   7.861  11.960  0.00  0.00    +0.000 A 
ENDROOT
BRANCH   1   7
ATOM      7  C   UNL     1      44.397   5.966  10.342  0.00  0.00    +0.000 C 
BRANCH   7  10
ATOM      8  C   UNL     1      44.887   3.784   9.277  0.00  0.00    +0.000 C 
ATOM      9  O   UNL     1      44.066   3.172   9.947  0.00  0.00    +0.000 OA
ATOM     10  N   UNL     1      45.125   5.143   9.406  0.00  0.00    +0.000 N 
ATOM     11  H   UNL     1      45.814   5.548   8.779  0.00  0.00    +0.000 HD
BRANCH   8  17
ATOM     12  C   UNL     1      46.771  -0.382   7.650  0.00  0.00    +0.000 C 
ATOM     13  C   UNL     1      46.619   1.096   7.460  0.00  0.00    +0.000 A 
ATOM     14  C   UNL     1      47.220   1.745   6.384  0.00  0.00    +0.000 A 
ATOM     15  C   UNL     1      47.058   3.121   6.251  0.00  0.00    +0.000 A 
ATOM     16  C   UNL     1      46.298   3.811   7.190  0.00  0.00    +0.000 A 
ATOM     17  C   UNL     1      45.726   3.093   8.234  0.00  0.00    +0.000 A 
ATOM     18  N   UNL     1      45.876   1.747   8.388  0.00  0.00    +0.000 NA
ENDBRANCH   8  17
ENDBRANCH   7  10
ENDBRANCH   1   7
BRANCH   4  19
ATOM     19  C   UNL     1      47.849   8.638  14.269  0.00  0.00    +0.000 C 
BRANCH  19  20
ATOM     20  N   UNL     1      48.124   7.781  15.396  0.00  0.00    +0.000 N 
ATOM     21  C   UNL     1      49.319   7.110  15.512  0.00  0.00    +0.000 C 
ATOM     22  O   UNL     1      50.232   7.249  14.702  0.00  0.00    +0.000 OA
ATOM     23  H   UNL     1      47.327   7.471  15.940  0.00  0.00    +0.000 HD
BRANCH  21  24
ATOM     24  C   UNL     1      49.474   6.254  16.696  0.00  0.00    +0.000 A 
ATOM     25  C   UNL     1      50.441   6.546  17.651  0.00  0.00    +0.000 A 
ATOM     26  S   UNL     1      50.453   5.457  18.965  0.00  0.00    +0.000 S 
ATOM     27  C   UNL     1      49.196   4.534  18.287  0.00  0.00    +0.000 A 
ATOM     28  N   UNL     1      48.730   3.417  18.908  0.00  0.00    +0.000 NA
ATOM     29  C   UNL     1      47.783   2.810  18.272  0.00  0.00    +0.000 A 
ATOM     30  N   UNL     1      47.258   3.219  17.076  0.00  0.00    +0.000 N 
ATOM     31  C   UNL     1      47.682   4.351  16.422  0.00  0.00    +0.000 A 
ATOM     32  O   UNL     1      47.159   4.713  15.374  0.00  0.00    +0.000 OA
ATOM     33  C   UNL     1      48.755   5.065  17.086  0.00  0.00    +0.000 A 
ATOM     34  H   UNL     1      46.505   2.712  16.637  0.00  0.00    +0.000 HD
ENDBRANCH  21  24
ENDBRANCH  19  20
ENDBRANCH   4  19
TORSDOF 6
ENDMDL
MODEL 2
REMARK VINA RESULT:    -7.422      1.700      2.160
REMARK INTER + INTRA:         -11.143
REMARK INTER:                 -10.201
REMARK INTRA:                  -0.942
REMARK UNBOUND:                -1.118
REMARK  Name = 
REMARK  7 active torsions:
REMARK  status: ('A' for Active; 'I' for Inactive)
REMARK    1  A    between atoms: C_1  and  C_2
REMARK    2  A    between atoms: C_6  and  C_7
REMARK    3  A    between atoms: N_9  and  C_10
REMARK    4  A    between atoms: C_10  and  C_11
REMARK    5  A    between atoms: C_14  and  C_15
REMARK    6  A    between atoms: C_15  and  N_16
REMARK    7  A    between atoms: C_17  and  C_19
REMARK                            x       y       z     vdW  Elec       q    Type
REMARK                         _______ _______ _______ _____ _____    ______ ____
ROOT
ATOM      1  C   UNL     1      45.237   6.542  11.667  0.00  0.00    +0.000 A 
ATOM      2  C   UNL     1      45.120   7.913  11.935  0.00  0.00    +0.000 A 
ATOM      3  C   UNL     1      45.971   8.546  12.855  0.00  0.00    +0.000 A 
ATOM      4  C   UNL     1      46.978   7.830  13.516  0.00  0.00    +0.000 A 
ATOM      5  C   UNL     1      47.079   6.454  13.268  0.00  0.00    +0.000 A 
ATOM      6  C   UNL     1      46.232   5.822  12.344  0.00  0.00    +0.000 A 
ENDROOT
BRANCH   1   7
ATOM      7  C   UNL     1      44.295   5.858  10.701  0.00  0.00    +0.000 C 
BRANCH   7  10
ATOM      8  C   UNL     1      44.957   3.717   9.645  0.00  0.00    +0.000 C 
ATOM      9  O   UNL     1      44.400   3.026  10.488  0.00  0.00    +0.000 OA
ATOM     10  N   UNL     1      44.969   5.102   9.672  0.00  0.00    +0.000 N 
ATOM     11  H   UNL     1      45.443   5.571   8.906  0.00  0.00    +0.000 HD
BRANCH   8  17
ATOM     12  C   UNL     1      46.763  -0.305   7.618  0.00  0.00    +0.000 C 
ATOM     13  C   UNL     1      46.551   1.174   7.520  0.00  0.00    +0.000 A 
ATOM     14  C   UNL     1      47.011   1.891   6.418  0.00  0.00    +0.000 A 
ATOM     15  C   UNL     1      46.797   3.266   6.371  0.00  0.00    +0.000 A 
ATOM     16  C   UNL     1      46.127   3.887   7.421  0.00  0.00    +0.000 A 
ATOM     17  C   UNL     1      45.695   3.103   8.483  0.00  0.00    +0.000 A 
ATOM     18  N   UNL     1      45.897   1.757   8.554  0.00  0.00    +0.000 NA
ENDBRANCH   8  17
ENDBRANCH   7  10
ENDBRANCH   1   7
BRANCH   4  19
ATOM     19  C   UNL     1      47.934   8.529  14.455  0.00  0.00    +0.000 C 
BRANCH  19  20
ATOM     20  N   UNL     1      48.169   7.780  15.665  0.00  0.00    +0.000 N 
ATOM     21  C   UNL     1      49.435   7.382  16.029  0.00  0.00    +0.000 C 
ATOM     22  O   UNL     1      50.431   7.690  15.381  0.00  0.00    +0.000 OA
ATOM     23  H   UNL     1      47.367   7.321  16.082  0.00  0.00    +0.000 HD
BRANCH  21  24
ATOM     24  C   UNL     1      49.542   6.609  17.274  0.00  0.00    +0.000 A 
ATOM     25  C   UNL     1      50.331   5.466  17.322  0.00  0.00    +0.000 A 
ATOM     26  S   UNL     1      50.355   4.717  18.856  0.00  0.00    +0.000 S 
ATOM     27  C   UNL     1      49.281   5.869  19.498  0.00  0.00    +0.000 A 
ATOM     28  N   UNL     1      48.860   5.793  20.790  0.00  0.00    +0.000 NA
ATOM     29  C   UNL     1      48.037   6.727  21.137  0.00  0.00    +0.000 A 
ATOM     30  N   UNL     1      47.601   7.729  20.313  0.00  0.00    +0.000 N 
ATOM     31  C   UNL     1      48.014   7.858  19.009  0.00  0.00    +0.000 A 
ATOM     32  O   UNL     1      47.638   8.794  18.312  0.00  0.00    +0.000 OA
ATOM     33  C   UNL     1      48.931   6.826  18.562  0.00  0.00    +0.000 A 
ATOM     34  H   UNL     1      46.971   8.443  20.648  0.00  0.00    +0.000 HD
ENDBRANCH  21  24
ENDBRANCH  19  20
ENDBRANCH   4  19
TORSDOF 6
ENDMDL
MODEL 3
REMARK VINA RESULT:    -7.192      2.145      2.995
REMARK INTER + INTRA:         -10.832
REMARK INTER:                  -9.874
REMARK INTRA:                  -0.959
REMARK UNBOUND:                -1.118
REMARK  Name = 
REMARK  7 active torsions:
REMARK  status: ('A' for Active; 'I' for Inactive)
REMARK    1  A    between atoms: C_1  and  C_2
REMARK    2  A    between atoms: C_6  and  C_7
REMARK    3  A    between atoms: N_9  and  C_10
REMARK    4  A    between atoms: C_10  and  C_11
REMARK    5  A    between atoms: C_14  and  C_15
REMARK    6  A    between atoms: C_15  and  N_16
REMARK    7  A    between atoms: C_17  and  C_19
REMARK                            x       y       z     vdW  Elec       q    Type
REMARK                         _______ _______ _______ _____ _____    ______ ____
ROOT
ATOM      1  C   UNL     1      45.724   6.372  12.041  0.00  0.00    +0.000 A 
ATOM      2  C   UNL     1      46.722   5.603  12.656  0.00  0.00    +0.000 A 
ATOM      3  C   UNL     1      47.658   6.191  13.523  0.00  0.00    +0.000 A 
ATOM      4  C   UNL     1      47.607   7.560  13.815  0.00  0.00    +0.000 A 
ATOM      5  C   UNL     1      46.626   8.335  13.181  0.00  0.00    +0.000 A 
ATOM      6  C   UNL     1      45.686   7.745  12.318  0.00  0.00    +0.000 A 
ENDROOT
BRANCH   1   7
ATOM      7  C   UNL     1      44.741   5.739  11.081  0.00  0.00    +0.000 C 
BRANCH   7  10
ATOM      8  C   UNL     1      44.865   3.781   9.567  0.00  0.00    +0.000 C 
ATOM      9  O   UNL     1      43.869   3.245  10.034  0.00  0.00    +0.000 OA
ATOM     10  N   UNL     1      45.370   4.990  10.018  0.00  0.00    +0.000 N 
ATOM     11  H   UNL     1      46.189   5.351   9.538  0.00  0.00    +0.000 HD
BRANCH   8  17
ATOM     12  C   UNL     1      46.743  -0.259   7.643  0.00  0.00    +0.000 C 
ATOM     13  C   UNL     1      46.531   1.219   7.522  0.00  0.00    +0.000 A 
ATOM     14  C   UNL     1      47.027   1.925   6.428  0.00  0.00    +0.000 A 
ATOM     15  C   UNL     1      46.812   3.299   6.360  0.00  0.00    +0.000 A 
ATOM     16  C   UNL     1      46.107   3.929   7.380  0.00  0.00    +0.000 A 
ATOM     17  C   UNL     1      45.641   3.156   8.437  0.00  0.00    +0.000 A 
ATOM     18  N   UNL     1      45.843   1.812   8.528  0.00  0.00    +0.000 NA
ENDBRANCH   8  17
ENDBRANCH   7  10
ENDBRANCH   1   7
BRANCH   4  19
ATOM     19  C   UNL     1      48.574   8.177  14.800  0.00  0.00    +0.000 C 
BRANCH  19  20
ATOM     20  N   UNL     1      49.531   7.225  15.309  0.00  0.00    +0.000 N 
ATOM     21  C   UNL     1      49.498   6.803  16.617  0.00  0.00    +0.000 C 
ATOM     22  O   UNL     1      48.625   7.165  17.401  0.00  0.00    +0.000 OA
ATOM     23  H   UNL     1      50.379   7.096  14.768  0.00  0.00    +0.000 HD
BRANCH  21  24
ATOM     24  C   UNL     1      50.537   5.846  17.020  0.00  0.00    +0.000 A 
ATOM     25  C   UNL     1      50.183   4.610  17.550  0.00  0.00    +0.000 A 
ATOM     26  S   UNL     1      51.522   3.623  17.934  0.00  0.00    +0.000 S 
ATOM     27  C   UNL     1      52.621   4.826  17.445  0.00  0.00    +0.000 A 
ATOM     28  N   UNL     1      53.964   4.630  17.539  0.00  0.00    +0.000 NA
ATOM     29  C   UNL     1      54.677   5.633  17.144  0.00  0.00    +0.000 A 
ATOM     30  N   UNL     1      54.171   6.809  16.661  0.00  0.00    +0.000 N 
ATOM     31  C   UNL     1      52.823   7.044  16.528  0.00  0.00    +0.000 A 
ATOM     32  O   UNL     1      52.405   8.092  16.050  0.00  0.00    +0.000 OA
ATOM     33  C   UNL     1      51.974   5.954  16.971  0.00  0.00    +0.000 A 
ATOM     34  H   UNL     1      54.780   7.550  16.349  0.00  0.00    +0.000 HD
ENDBRANCH  21  24
ENDBRANCH  19  20
ENDBRANCH   4  19
TORSDOF 6
ENDMDL
MODEL 4
REMARK VINA RESULT:    -7.171      1.780      2.324
REMARK INTER + INTRA:         -10.805
REMARK INTER:                  -9.798
REMARK INTRA:                  -1.006
REMARK UNBOUND:                -1.118
REMARK  Name = 
REMARK  7 active torsions:
REMARK  status: ('A' for Active; 'I' for Inactive)
REMARK    1  A    between atoms: C_1  and  C_2
REMARK    2  A    between atoms: C_6  and  C_7
REMARK    3  A    between atoms: N_9  and  C_10
REMARK    4  A    between atoms: C_10  and  C_11
REMARK    5  A    between atoms: C_14  and  C_15
REMARK    6  A    between atoms: C_15  and  N_16
REMARK    7  A    between atoms: C_17  and  C_19
REMARK                            x       y       z     vdW  Elec       q    Type
REMARK                         _______ _______ _______ _____ _____    ______ ____
ROOT
ATOM      1  C   UNL     1      46.105   7.310  12.396  0.00  0.00    +0.000 A 
ATOM      2  C   UNL     1      47.078   6.379  12.788  0.00  0.00    +0.000 A 
ATOM      3  C   UNL     1      48.084   6.726  13.704  0.00  0.00    +0.000 A 
ATOM      4  C   UNL     1      48.132   8.007  14.271  0.00  0.00    +0.000 A 
ATOM      5  C   UNL     1      47.176   8.946  13.861  0.00  0.00    +0.000 A 
ATOM      6  C   UNL     1      46.165   8.597  12.949  0.00  0.00    +0.000 A 
ENDROOT
BRANCH   1   7
ATOM      7  C   UNL     1      45.045   6.941  11.383  0.00  0.00    +0.000 C 
BRANCH   7  10
ATOM      8  C   UNL     1      44.452   4.919  10.079  0.00  0.00    +0.000 C 
ATOM      9  O   UNL     1      43.255   5.006  10.319  0.00  0.00    +0.000 OA
ATOM     10  N   UNL     1      45.400   5.808  10.560  0.00  0.00    +0.000 N 
ATOM     11  H   UNL     1      46.361   5.651  10.275  0.00  0.00    +0.000 HD
BRANCH   8  17
ATOM     12  C   UNL     1      46.925   3.693   6.087  0.00  0.00    +0.000 C 
ATOM     13  C   UNL     1      46.192   3.236   7.311  0.00  0.00    +0.000 A 
ATOM     14  C   UNL     1      46.060   1.880   7.600  0.00  0.00    +0.000 A 
ATOM     15  C   UNL     1      45.366   1.499   8.746  0.00  0.00    +0.000 A 
ATOM     16  C   UNL     1      44.828   2.480   9.572  0.00  0.00    +0.000 A 
ATOM     17  C   UNL     1      45.006   3.812   9.219  0.00  0.00    +0.000 A 
ATOM     18  N   UNL     1      45.676   4.209   8.101  0.00  0.00    +0.000 NA
ENDBRANCH   8  17
ENDBRANCH   7  10
ENDBRANCH   1   7
BRANCH   4  19
ATOM     19  C   UNL     1      49.177   8.356  15.307  0.00  0.00    +0.000 C 
BRANCH  19  20
ATOM     20  N   UNL     1      49.943   7.210  15.729  0.00  0.00    +0.000 N 
ATOM     21  C   UNL     1      50.381   7.077  17.026  0.00  0.00    +0.000 C 
ATOM     22  O   UNL     1      50.094   7.889  17.902  0.00  0.00    +0.000 OA
ATOM     23  H   UNL     1      50.384   6.660  14.999  0.00  0.00    +0.000 HD
BRANCH  21  24
ATOM     24  C   UNL     1      51.168   5.874  17.329  0.00  0.00    +0.000 A 
ATOM     25  C   UNL     1      52.502   5.986  17.704  0.00  0.00    +0.000 A 
ATOM     26  S   UNL     1      53.245   4.487  18.042  0.00  0.00    +0.000 S 
ATOM     27  C   UNL     1      51.825   3.633  17.660  0.00  0.00    +0.000 A 
ATOM     28  N   UNL     1      51.785   2.274  17.718  0.00  0.00    +0.000 NA
ATOM     29  C   UNL     1      50.646   1.760  17.389  0.00  0.00    +0.000 A 
ATOM     30  N   UNL     1      49.544   2.479  17.012  0.00  0.00    +0.000 N 
ATOM     31  C   UNL     1      49.531   3.853  16.958  0.00  0.00    +0.000 A 
ATOM     32  O   UNL     1      48.513   4.467  16.659  0.00  0.00    +0.000 OA
ATOM     33  C   UNL     1      50.791   4.482  17.305  0.00  0.00    +0.000 A 
ATOM     34  H   UNL     1      48.675   2.021  16.785  0.00  0.00    +0.000 HD
ENDBRANCH  21  24
ENDBRANCH  19  20
ENDBRANCH   4  19
TORSDOF 6
ENDMDL
MODEL 5
REMARK VINA RESULT:    -6.922      3.439      8.930
REMARK INTER + INTRA:         -10.467
REMARK INTER:                  -9.548
REMARK INTRA:                  -0.920
REMARK UNBOUND:                -1.118
REMARK  Name = 
REMARK  7 active torsions:
REMARK  status: ('A' for Active; 'I' for Inactive)
REMARK    1  A    between atoms: C_1  and  C_2
REMARK    2  A    between atoms: C_6  and  C_7
REMARK    3  A    between atoms: N_9  and  C_10
REMARK    4  A    between atoms: C_10  and  C_11
REMARK    5  A    between atoms: C_14  and  C_15
REMARK    6  A    between atoms: C_15  and  N_16
REMARK    7  A    between atoms: C_17  and  C_19
REMARK                            x       y       z     vdW  Elec       q    Type
REMARK                         _______ _______ _______ _____ _____    ______ ____
ROOT
ATOM      1  C   UNL     1      50.062   7.261  15.527  0.00  0.00    +0.000 A 
ATOM      2  C   UNL     1      50.505   7.955  14.392  0.00  0.00    +0.000 A 
ATOM      3  C   UNL     1      49.695   8.066  13.250  0.00  0.00    +0.000 A 
ATOM      4  C   UNL     1      48.411   7.506  13.220  0.00  0.00    +0.000 A 
ATOM      5  C   UNL     1      47.977   6.790  14.345  0.00  0.00    +0.000 A 
ATOM      6  C   UNL     1      48.785   6.684  15.489  0.00  0.00    +0.000 A 
ENDROOT
BRANCH   1   7
ATOM      7  C   UNL     1      50.953   7.114  16.741  0.00  0.00    +0.000 C 
BRANCH   7  10
ATOM      8  C   UNL     1      50.897   4.846  17.736  0.00  0.00    +0.000 C 
ATOM      9  O   UNL     1      49.894   5.066  18.402  0.00  0.00    +0.000 OA
ATOM     10  N   UNL     1      51.491   5.784  16.907  0.00  0.00    +0.000 N 
ATOM     11  H   UNL     1      52.306   5.481  16.383  0.00  0.00    +0.000 HD
BRANCH   8  17
ATOM     12  C   UNL     1      54.973   2.363  18.617  0.00  0.00    +0.000 C 
ATOM     13  C   UNL     1      53.537   2.326  18.192  0.00  0.00    +0.000 A 
ATOM     14  C   UNL     1      52.920   1.122  17.863  0.00  0.00    +0.000 A 
ATOM     15  C   UNL     1      51.584   1.135  17.468  0.00  0.00    +0.000 A 
ATOM     16  C   UNL     1      50.902   2.347  17.417  0.00  0.00    +0.000 A 
ATOM     17  C   UNL     1      51.585   3.505  17.765  0.00  0.00    +0.000 A 
ATOM     18  N   UNL     1      52.893   3.518  18.149  0.00  0.00    +0.000 NA
ENDBRANCH   8  17
ENDBRANCH   7  10
ENDBRANCH   1   7
BRANCH   4  19
ATOM     19  C   UNL     1      47.516   7.685  12.015  0.00  0.00    +0.000 C 
BRANCH  19  20
ATOM     20  N   UNL     1      46.814   6.476  11.661  0.00  0.00    +0.000 N 
ATOM     21  C   UNL     1      45.472   6.322  11.920  0.00  0.00    +0.000 C 
ATOM     22  O   UNL     1      44.792   7.220  12.409  0.00  0.00    +0.000 OA
ATOM     23  H   UNL     1      47.381   5.655  11.480  0.00  0.00    +0.000 HD
BRANCH  21  24
ATOM     24  C   UNL     1      44.875   5.038  11.529  0.00  0.00    +0.000 A 
ATOM     25  C   UNL     1      44.110   4.316  12.437  0.00  0.00    +0.000 A 
ATOM     26  S   UNL     1      43.478   2.866  11.796  0.00  0.00    +0.000 S 
ATOM     27  C   UNL     1      44.237   3.131  10.297  0.00  0.00    +0.000 A 
ATOM     28  N   UNL     1      44.120   2.232   9.283  0.00  0.00    +0.000 NA
ATOM     29  C   UNL     1      44.760   2.557   8.207  0.00  0.00    +0.000 A 
ATOM     30  N   UNL     1      45.500   3.698   8.054  0.00  0.00    +0.000 N 
ATOM     31  C   UNL     1      45.629   4.644   9.042  0.00  0.00    +0.000 A 
ATOM     32  O   UNL     1      46.262   5.677   8.856  0.00  0.00    +0.000 OA
ATOM     33  C   UNL     1      44.941   4.322  10.278  0.00  0.00    +0.000 A 
ATOM     34  H   UNL     1      45.961   3.907   7.182  0.00  0.00    +0.000 HD
ENDBRANCH  21  24
ENDBRANCH  19  20
ENDBRANCH   4  19
TORSDOF 6
ENDMDL
MODEL 6
REMARK VINA RESULT:    -6.888      1.569      2.095
REMARK INTER + INTRA:         -10.422
REMARK INTER:                  -9.370
REMARK INTRA:                  -1.052
REMARK UNBOUND:                -1.118
REMARK  Name = 
REMARK  7 active torsions:
REMARK  status: ('A' for Active; 'I' for Inactive)
REMARK    1  A    between atoms: C_1  and  C_2
REMARK    2  A    between atoms: C_6  and  C_7
REMARK    3  A    between atoms: N_9  and  C_10
REMARK    4  A    between atoms: C_10  and  C_11
REMARK    5  A    between atoms: C_14  and  C_15
REMARK    6  A    between atoms: C_15  and  N_16
REMARK    7  A    between atoms: C_17  and  C_19
REMARK                            x       y       z     vdW  Elec       q    Type
REMARK                         _______ _______ _______ _____ _____    ______ ____
ROOT
ATOM      1  C   UNL     1      46.133   7.504  12.079  0.00  0.00    +0.000 A 
ATOM      2  C   UNL     1      47.151   6.625  12.475  0.00  0.00    +0.000 A 
ATOM      3  C   UNL     1      48.214   7.065  13.280  0.00  0.00    +0.000 A 
ATOM      4  C   UNL     1      48.277   8.391  13.729  0.00  0.00    +0.000 A 
ATOM      5  C   UNL     1      47.274   9.277  13.312  0.00  0.00    +0.000 A 
ATOM      6  C   UNL     1      46.207   8.835  12.512  0.00  0.00    +0.000 A 
ENDROOT
BRANCH   1   7
ATOM      7  C   UNL     1      45.008   7.033  11.183  0.00  0.00    +0.000 C 
BRANCH   7  10
ATOM      8  C   UNL     1      44.470   4.846  10.151  0.00  0.00    +0.000 C 
ATOM      9  O   UNL     1      43.346   4.796  10.630  0.00  0.00    +0.000 OA
ATOM     10  N   UNL     1      45.355   5.889  10.372  0.00  0.00    +0.000 N 
ATOM     11  H   UNL     1      46.254   5.834   9.903  0.00  0.00    +0.000 HD
BRANCH   8  17
ATOM     12  C   UNL     1      46.954   3.671   6.151  0.00  0.00    +0.000 C 
ATOM     13  C   UNL     1      46.191   3.197   7.350  0.00  0.00    +0.000 A 
ATOM     14  C   UNL     1      46.011   1.838   7.591  0.00  0.00    +0.000 A 
ATOM     15  C   UNL     1      45.289   1.443   8.715  0.00  0.00    +0.000 A 
ATOM     16  C   UNL     1      44.772   2.413   9.567  0.00  0.00    +0.000 A 
ATOM     17  C   UNL     1      44.999   3.750   9.261  0.00  0.00    +0.000 A 
ATOM     18  N   UNL     1      45.696   4.161   8.165  0.00  0.00    +0.000 NA
ENDBRANCH   8  17
ENDBRANCH   7  10
ENDBRANCH   1   7
BRANCH   4  19
ATOM     19  C   UNL     1      49.387   8.844  14.649  0.00  0.00    +0.000 C 
BRANCH  19  20
ATOM     20  N   UNL     1      49.448   8.073  15.866  0.00  0.00    +0.000 N 
ATOM     21  C   UNL     1      48.657   8.376  16.950  0.00  0.00    +0.000 C 
ATOM     22  O   UNL     1      47.820   9.275  16.919  0.00  0.00    +0.000 OA
ATOM     23  H   UNL     1      50.270   7.495  16.001  0.00  0.00    +0.000 HD
BRANCH  21  24
ATOM     24  C   UNL     1      48.824   7.528  18.138  0.00  0.00    +0.000 A 
ATOM     25  C   UNL     1      49.101   8.101  19.373  0.00  0.00    +0.000 A 
ATOM     26  S   UNL     1      49.234   6.963  20.639  0.00  0.00    +0.000 S 
ATOM     27  C   UNL     1      48.967   5.663  19.574  0.00  0.00    +0.000 A 
ATOM     28  N   UNL     1      48.977   4.378  20.019  0.00  0.00    +0.000 NA
ATOM     29  C   UNL     1      48.773   3.494  19.098  0.00  0.00    +0.000 A 
ATOM     30  N   UNL     1      48.556   3.779  17.778  0.00  0.00    +0.000 N 
ATOM     31  C   UNL     1      48.516   5.061  17.286  0.00  0.00    +0.000 A 
ATOM     32  O   UNL     1      48.275   5.283  16.105  0.00  0.00    +0.000 OA
ATOM     33  C   UNL     1      48.753   6.094  18.277  0.00  0.00    +0.000 A 
ATOM     34  H   UNL     1      48.383   3.045  17.108  0.00  0.00    +0.000 HD
ENDBRANCH  21  24
ENDBRANCH  19  20
ENDBRANCH   4  19
TORSDOF 6
ENDMDL
MODEL 7
REMARK VINA RESULT:    -6.638      2.741      4.036
REMARK INTER + INTRA:         -10.085
REMARK INTER:                  -9.200
REMARK INTRA:                  -0.885
REMARK UNBOUND:                -1.118
REMARK  Name = 
REMARK  7 active torsions:
REMARK  status: ('A' for Active; 'I' for Inactive)
REMARK    1  A    between atoms: C_1  and  C_2
REMARK    2  A    between atoms: C_6  and  C_7
REMARK    3  A    between atoms: N_9  and  C_10
REMARK    4  A    between atoms: C_10  and  C_11
REMARK    5  A    between atoms: C_14  and  C_15
REMARK    6  A    between atoms: C_15  and  N_16
REMARK    7  A    between atoms: C_17  and  C_19
REMARK                            x       y       z     vdW  Elec       q    Type
REMARK                         _______ _______ _______ _____ _____    ______ ____
ROOT
ATOM      1  C   UNL     1      48.179   7.555  13.769  0.00  0.00    +0.000 A 
ATOM      2  C   UNL     1      48.093   6.273  14.330  0.00  0.00    +0.000 A 
ATOM      3  C   UNL     1      48.377   6.056  15.688  0.00  0.00    +0.000 A 
ATOM      4  C   UNL     1      48.733   7.119  16.528  0.00  0.00    +0.000 A 
ATOM      5  C   UNL     1      48.845   8.397  15.964  0.00  0.00    +0.000 A 
ATOM      6  C   UNL     1      48.555   8.615  14.606  0.00  0.00    +0.000 A 
ENDROOT
BRANCH   1   7
ATOM      7  C   UNL     1      47.907   7.777  12.298  0.00  0.00    +0.000 C 
BRANCH   7  10
ATOM      8  C   UNL     1      45.882   6.666  11.403  0.00  0.00    +0.000 C 
ATOM      9  O   UNL     1      45.133   7.585  11.708  0.00  0.00    +0.000 OA
ATOM     10  N   UNL     1      47.243   6.665  11.658  0.00  0.00    +0.000 N 
ATOM     11  H   UNL     1      47.769   5.858  11.338  0.00  0.00    +0.000 HD
BRANCH   8  17
ATOM     12  C   UNL     1      43.330   2.551  11.735  0.00  0.00    +0.000 C 
ATOM     13  C   UNL     1      44.145   3.467  10.875  0.00  0.00    +0.000 A 
ATOM     14  C   UNL     1      44.385   3.166   9.536  0.00  0.00    +0.000 A 
ATOM     15  C   UNL     1      45.153   4.043   8.775  0.00  0.00    +0.000 A 
ATOM     16  C   UNL     1      45.657   5.197   9.368  0.00  0.00    +0.000 A 
ATOM     17  C   UNL     1      45.370   5.430  10.708  0.00  0.00    +0.000 A 
ATOM     18  N   UNL     1      44.626   4.584  11.474  0.00  0.00    +0.000 NA
ENDBRANCH   8  17
ENDBRANCH   7  10
ENDBRANCH   1   7
BRANCH   4  19
ATOM     19  C   UNL     1      48.973   6.892  18.004  0.00  0.00    +0.000 C 
BRANCH  19  20
ATOM     20  N   UNL     1      49.918   5.832  18.255  0.00  0.00    +0.000 N 
ATOM     21  C   UNL     1      51.256   5.982  17.977  0.00  0.00    +0.000 C 
ATOM     22  O   UNL     1      51.725   7.037  17.558  0.00  0.00    +0.000 OA
ATOM     23  H   UNL     1      49.538   4.899  18.373  0.00  0.00    +0.000 HD
BRANCH  21  24
ATOM     24  C   UNL     1      52.115   4.824  18.260  0.00  0.00    +0.000 A 
ATOM     25  C   UNL     1      53.344   5.000  18.884  0.00  0.00    +0.000 A 
ATOM     26  S   UNL     1      54.188   3.540  19.155  0.00  0.00    +0.000 S 
ATOM     27  C   UNL     1      52.960   2.627  18.412  0.00  0.00    +0.000 A 
ATOM     28  N   UNL     1      53.069   1.277  18.285  0.00  0.00    +0.000 NA
ATOM     29  C   UNL     1      52.068   0.716  17.689  0.00  0.00    +0.000 A 
ATOM     30  N   UNL     1      50.971   1.380  17.213  0.00  0.00    +0.000 N 
ATOM     31  C   UNL     1      50.808   2.739  17.336  0.00  0.00    +0.000 A 
ATOM     32  O   UNL     1      49.791   3.297  16.938  0.00  0.00    +0.000 OA
ATOM     33  C   UNL     1      51.910   3.422  17.987  0.00  0.00    +0.000 A 
ATOM     34  H   UNL     1      50.211   0.884  16.773  0.00  0.00    +0.000 HD
ENDBRANCH  21  24
ENDBRANCH  19  20
ENDBRANCH   4  19
TORSDOF 6
ENDMDL
MODEL 8
REMARK VINA RESULT:    -6.451      5.894      7.936
REMARK INTER + INTRA:          -9.831
REMARK INTER:                  -8.858
REMARK INTRA:                  -0.973
REMARK UNBOUND:                -1.118
REMARK  Name = 
REMARK  7 active torsions:
REMARK  status: ('A' for Active; 'I' for Inactive)
REMARK    1  A    between atoms: C_1  and  C_2
REMARK    2  A    between atoms: C_6  and  C_7
REMARK    3  A    between atoms: N_9  and  C_10
REMARK    4  A    between atoms: C_10  and  C_11
REMARK    5  A    between atoms: C_14  and  C_15
REMARK    6  A    between atoms: C_15  and  N_16
REMARK    7  A    between atoms: C_17  and  C_19
REMARK                            x       y       z     vdW  Elec       q    Type
REMARK                         _______ _______ _______ _____ _____    ______ ____
ROOT
ATOM      1  C   UNL     1      48.263   8.202  12.472  0.00  0.00    +0.000 A 
ATOM      2  C   UNL     1      49.242   7.267  12.106  0.00  0.00    +0.000 A 
ATOM      3  C   UNL     1      50.444   7.676  11.505  0.00  0.00    +0.000 A 
ATOM      4  C   UNL     1      50.709   9.032  11.274  0.00  0.00    +0.000 A 
ATOM      5  C   UNL     1      49.720   9.965  11.616  0.00  0.00    +0.000 A 
ATOM      6  C   UNL     1      48.520   9.557  12.222  0.00  0.00    +0.000 A 
ENDROOT
BRANCH   1   7
ATOM      7  C   UNL     1      46.956   7.753  13.087  0.00  0.00    +0.000 C 
BRANCH   7  10
ATOM      8  C   UNL     1      45.366   6.632  11.553  0.00  0.00    +0.000 C 
ATOM      9  O   UNL     1      44.827   7.674  11.206  0.00  0.00    +0.000 OA
ATOM     10  N   UNL     1      46.402   6.570  12.471  0.00  0.00    +0.000 N 
ATOM     11  H   UNL     1      46.788   5.651  12.664  0.00  0.00    +0.000 HD
BRANCH   8  17
ATOM     12  C   UNL     1      45.478   3.528   7.824  0.00  0.00    +0.000 C 
ATOM     13  C   UNL     1      44.998   3.819   9.213  0.00  0.00    +0.000 A 
ATOM     14  C   UNL     1      44.218   2.897   9.908  0.00  0.00    +0.000 A 
ATOM     15  C   UNL     1      43.788   3.212  11.194  0.00  0.00    +0.000 A 
ATOM     16  C   UNL     1      44.151   4.434  11.753  0.00  0.00    +0.000 A 
ATOM     17  C   UNL     1      44.935   5.298  10.999  0.00  0.00    +0.000 A 
ATOM     18  N   UNL     1      45.363   5.015   9.736  0.00  0.00    +0.000 NA
ENDBRANCH   8  17
ENDBRANCH   7  10
ENDBRANCH   1   7
BRANCH   4  19
ATOM     19  C   UNL     1      52.031   9.473  10.688  0.00  0.00    +0.000 C 
BRANCH  19  20
ATOM     20  N   UNL     1      52.373   8.752   9.486  0.00  0.00    +0.000 N 
ATOM     21  C   UNL     1      53.565   8.966   8.835  0.00  0.00    +0.000 C 
ATOM     22  O   UNL     1      54.421   9.732   9.269  0.00  0.00    +0.000 OA
ATOM     23  H   UNL     1      51.611   8.303   8.989  0.00  0.00    +0.000 HD
BRANCH  21  24
ATOM     24  C   UNL     1      53.790   8.184   7.611  0.00  0.00    +0.000 A 
ATOM     25  C   UNL     1      54.007   8.828   6.399  0.00  0.00    +0.000 A 
ATOM     26  S   UNL     1      54.275   7.757   5.096  0.00  0.00    +0.000 S 
ATOM     27  C   UNL     1      54.069   6.397   6.097  0.00  0.00    +0.000 A 
ATOM     28  N   UNL     1      54.148   5.136   5.593  0.00  0.00    +0.000 NA
ATOM     29  C   UNL     1      53.958   4.201   6.465  0.00  0.00    +0.000 A 
ATOM     30  N   UNL     1      53.702   4.413   7.793  0.00  0.00    +0.000 N 
ATOM     31  C   UNL     1      53.634   5.667   8.350  0.00  0.00    +0.000 A 
ATOM     32  O   UNL     1      53.446   5.819   9.552  0.00  0.00    +0.000 OA
ATOM     33  C   UNL     1      53.826   6.756   7.411  0.00  0.00    +0.000 A 
ATOM     34  H   UNL     1      53.582   3.640   8.430  0.00  0.00    +0.000 HD
ENDBRANCH  21  24
ENDBRANCH  19  20
ENDBRANCH   4  19
TORSDOF 6
ENDMDL
MODEL 9
REMARK VINA RESULT:    -5.551      5.882      7.532
REMARK INTER + INTRA:          -8.616
REMARK INTER:                  -7.793
REMARK INTRA:                  -0.823
REMARK UNBOUND:                -1.118
REMARK  Name = 
REMARK  7 active torsions:
REMARK  status: ('A' for Active; 'I' for Inactive)
REMARK    1  A    between atoms: C_1  and  C_2
REMARK    2  A    between atoms: C_6  and  C_7
REMARK    3  A    between atoms: N_9  and  C_10
REMARK    4  A    between atoms: C_10  and  C_11
REMARK    5  A    between atoms: C_14  and  C_15
REMARK    6  A    between atoms: C_15  and  N_16
REMARK    7  A    between atoms: C_17  and  C_19
REMARK                            x       y       z     vdW  Elec       q    Type
REMARK                         _______ _______ _______ _____ _____    ______ ____
ROOT
ATOM      1  C   UNL     1      53.066   8.648  10.243  0.00  0.00    +0.000 A 
ATOM      2  C   UNL     1      52.215   7.565  10.506  0.00  0.00    +0.000 A 
ATOM      3  C   UNL     1      50.924   7.768  11.023  0.00  0.00    +0.000 A 
ATOM      4  C   UNL     1      50.442   9.060  11.268  0.00  0.00    +0.000 A 
ATOM      5  C   UNL     1      51.301  10.142  11.029  0.00  0.00    +0.000 A 
ATOM      6  C   UNL     1      52.589   9.939  10.507  0.00  0.00    +0.000 A 
ENDROOT
BRANCH   1   7
ATOM      7  C   UNL     1      54.467   8.421   9.720  0.00  0.00    +0.000 C 
BRANCH   7  10
ATOM      8  C   UNL     1      54.284   7.782   7.334  0.00  0.00    +0.000 C 
ATOM      9  O   UNL     1      53.967   8.904   6.965  0.00  0.00    +0.000 OA
ATOM     10  N   UNL     1      54.538   7.449   8.655  0.00  0.00    +0.000 N 
ATOM     11  H   UNL     1      54.817   6.491   8.840  0.00  0.00    +0.000 HD
BRANCH   8  17
ATOM     12  C   UNL     1      53.938   3.004   6.552  0.00  0.00    +0.000 C 
ATOM     13  C   UNL     1      54.256   4.358   5.993  0.00  0.00    +0.000 A 
ATOM     14  C   UNL     1      54.646   4.508   4.664  0.00  0.00    +0.000 A 
ATOM     15  C   UNL     1      54.938   5.784   4.188  0.00  0.00    +0.000 A 
ATOM     16  C   UNL     1      54.828   6.873   5.048  0.00  0.00    +0.000 A 
ATOM     17  C   UNL     1      54.428   6.642   6.359  0.00  0.00    +0.000 A 
ATOM     18  N   UNL     1      54.143   5.403   6.849  0.00  0.00    +0.000 NA
ENDBRANCH   8  17
ENDBRANCH   7  10
ENDBRANCH   1   7
BRANCH   4  19
ATOM     19  C   UNL     1      49.029   9.277  11.760  0.00  0.00    +0.000 C 
BRANCH  19  20
ATOM     20  N   UNL     1      48.277   8.050  11.846  0.00  0.00    +0.000 N 
ATOM     21  C   UNL     1      47.242   7.902  12.741  0.00  0.00    +0.000 C 
ATOM     22  O   UNL     1      46.867   8.819  13.467  0.00  0.00    +0.000 OA
ATOM     23  H   UNL     1      48.702   7.223  11.441  0.00  0.00    +0.000 HD
BRANCH  21  24
ATOM     24  C   UNL     1      46.565   6.599  12.746  0.00  0.00    +0.000 A 
ATOM     25  C   UNL     1      47.165   5.500  13.348  0.00  0.00    +0.000 A 
ATOM     26  S   UNL     1      46.219   4.081  13.279  0.00  0.00    +0.000 S 
ATOM     27  C   UNL     1      44.993   4.873  12.406  0.00  0.00    +0.000 A 
ATOM     28  N   UNL     1      43.879   4.207  11.998  0.00  0.00    +0.000 NA
ATOM     29  C   UNL     1      43.039   4.932  11.334  0.00  0.00    +0.000 A 
ATOM     30  N   UNL     1      43.209   6.259  11.047  0.00  0.00    +0.000 N 
ATOM     31  C   UNL     1      44.307   6.978  11.456  0.00  0.00    +0.000 A 
ATOM     32  O   UNL     1      44.406   8.176  11.220  0.00  0.00    +0.000 OA
ATOM     33  C   UNL     1      45.290   6.208  12.194  0.00  0.00    +0.000 A 
ATOM     34  H   UNL     1      42.507   6.777  10.541  0.00  0.00    +0.000 HD
ENDBRANCH  21  24
ENDBRANCH  19  20
ENDBRANCH   4  19
TORSDOF 6
ENDMDL
