MODEL 1
REMARK VINA RESULT:    -7.534      0.000      0.000
REMARK INTER + INTRA:         -11.227
REMARK INTER:                 -10.177
REMARK INTRA:                  -1.050
REMARK UNBOUND:                -1.050
REMARK  Name = 
REMARK  8 active torsions:
REMARK  status: ('A' for Active; 'I' for Inactive)
REMARK    1  A    between atoms: C_1  and  C_2
REMARK    2  A    between atoms: C_2  and  N_3
REMARK    3  A    between atoms: C_2  and  C_17
REMARK    4  A    between atoms: C_4  and  C_6
REMARK    5  A    between atoms: N_12  and  C_13
REMARK    6  A    between atoms: C_20  and  C_21
REMARK    7  A    between atoms: C_21  and  O_22
REMARK    8  A    between atoms: O_22  and  C_23
REMARK                            x       y       z     vdW  Elec       q    Type
REMARK                         _______ _______ _______ _____ _____    ______ ____
ROOT
ATOM      1  C   UNL     1      47.159   4.222  15.937  0.00  0.00    +0.000 C 
ATOM      2  C   UNL     1      47.551   5.084  14.738  0.00  0.00    +0.000 C 
ENDROOT
BRANCH   2   3
ATOM      3  C   UNL     1      46.528   4.982  13.604  0.00  0.00    +0.000 A 
ATOM      4  C   UNL     1      46.547   5.917  12.568  0.00  0.00    +0.000 A 
ATOM      5  C   UNL     1      45.653   5.780  11.503  0.00  0.00    +0.000 A 
ATOM      6  C   UNL     1      44.733   4.731  11.497  0.00  0.00    +0.000 A 
ATOM      7  C   UNL     1      44.755   3.870  12.587  0.00  0.00    +0.000 A 
ATOM      8  N   UNL     1      45.609   3.980  13.636  0.00  0.00    +0.000 NA
BRANCH   6   9
ATOM      9  C   UNL     1      43.790   4.514  10.343  0.00  0.00    +0.000 C 
BRANCH   9  10
ATOM     10  O   UNL     1      43.939   3.167   9.887  0.00  0.00    +0.000 OA
BRANCH  10  11
ATOM     11  C   UNL     1      44.918   2.926   8.975  0.00  0.00    +0.000 A 
ATOM     12  C   UNL     1      45.598   1.750   8.736  0.00  0.00    +0.000 A 
ATOM     13  N   UNL     1      46.565   1.607   7.801  0.00  0.00    +0.000 NA
ATOM     14  C   UNL     1      46.853   2.706   7.086  0.00  0.00    +0.000 A 
ATOM     15  N   UNL     1      46.268   3.905   7.222  0.00  0.00    +0.000 NA
ATOM     16  C   UNL     1      45.308   3.981   8.171  0.00  0.00    +0.000 A 
ENDBRANCH  10  11
ENDBRANCH   9  10
ENDBRANCH   6   9
ENDBRANCH   2   3
BRANCH   2  17
ATOM     17  N   UNL     1      47.745   6.461  15.157  0.00  0.00    +0.000 N 
ATOM     18  C   UNL     1      48.979   6.995  15.426  0.00  0.00    +0.000 C 
ATOM     19  O   UNL     1      50.001   6.317  15.468  0.00  0.00    +0.000 OA
ATOM     20  H   UNL     1      46.934   7.063  15.081  0.00  0.00    +0.000 HD
BRANCH  18  21
ATOM     21  C   UNL     1      49.007   8.440  15.673  0.00  0.00    +0.000 A 
ATOM     22  C   UNL     1      49.443   9.328  14.702  0.00  0.00    +0.000 A 
ATOM     23  S   UNL     1      49.353  10.962  15.195  0.00  0.00    +0.000 S 
ATOM     24  C   UNL     1      48.687  10.533  16.702  0.00  0.00    +0.000 A 
ATOM     25  N   UNL     1      48.322  11.476  17.610  0.00  0.00    +0.000 NA
ATOM     26  C   UNL     1      47.801  11.002  18.692  0.00  0.00    +0.000 A 
ATOM     27  N   UNL     1      47.613   9.665  18.976  0.00  0.00    +0.000 N 
ATOM     28  C   UNL     1      47.041   9.226  20.229  0.00  0.00    +0.000 C 
ATOM     29  C   UNL     1      48.003   8.676  18.083  0.00  0.00    +0.000 A 
ATOM     30  O   UNL     1      47.893   7.485  18.345  0.00  0.00    +0.000 OA
ATOM     31  C   UNL     1      48.570   9.165  16.842  0.00  0.00    +0.000 A 
ENDBRANCH  18  21
ENDBRANCH   2  17
TORSDOF 6
ENDMDL
MODEL 2
REMARK VINA RESULT:    -7.513      2.658      3.545
REMARK INTER + INTRA:         -11.199
REMARK INTER:                  -9.998
REMARK INTRA:                  -1.201
REMARK UNBOUND:                -1.050
REMARK  Name = 
REMARK  8 active torsions:
REMARK  status: ('A' for Active; 'I' for Inactive)
REMARK    1  A    between atoms: C_1  and  C_2
REMARK    2  A    between atoms: C_2  and  N_3
REMARK    3  A    between atoms: C_2  and  C_17
REMARK    4  A    between atoms: C_4  and  C_6
REMARK    5  A    between atoms: N_12  and  C_13
REMARK    6  A    between atoms: C_20  and  C_21
REMARK    7  A    between atoms: C_21  and  O_22
REMARK    8  A    between atoms: O_22  and  C_23
REMARK                            x       y       z     vdW  Elec       q    Type
REMARK                         _______ _______ _______ _____ _____    ______ ____
ROOT
ATOM      1  C   UNL     1      47.416   8.718  12.156  0.00  0.00    +0.000 C 
ATOM      2  C   UNL     1      47.021   7.754  13.274  0.00  0.00    +0.000 C 
ENDROOT
BRANCH   2   3
ATOM      3  C   UNL     1      46.178   6.588  12.749  0.00  0.00    +0.000 A 
ATOM      4  C   UNL     1      45.213   6.818  11.769  0.00  0.00    +0.000 A 
ATOM      5  C   UNL     1      44.494   5.740  11.248  0.00  0.00    +0.000 A 
ATOM      6  C   UNL     1      44.724   4.450  11.728  0.00  0.00    +0.000 A 
ATOM      7  C   UNL     1      45.674   4.316  12.734  0.00  0.00    +0.000 A 
ATOM      8  N   UNL     1      46.385   5.345  13.261  0.00  0.00    +0.000 NA
BRANCH   6   9
ATOM      9  C   UNL     1      44.011   3.254  11.156  0.00  0.00    +0.000 C 
BRANCH   9  10
ATOM     10  O   UNL     1      43.834   3.464   9.753  0.00  0.00    +0.000 OA
BRANCH  10  11
ATOM     11  C   UNL     1      44.840   3.059   8.934  0.00  0.00    +0.000 A 
ATOM     12  C   UNL     1      45.422   1.811   8.842  0.00  0.00    +0.000 A 
ATOM     13  N   UNL     1      46.427   1.502   7.991  0.00  0.00    +0.000 NA
ATOM     14  C   UNL     1      46.860   2.503   7.209  0.00  0.00    +0.000 A 
ATOM     15  N   UNL     1      46.381   3.756   7.204  0.00  0.00    +0.000 NA
ATOM     16  C   UNL     1      45.376   3.999   8.074  0.00  0.00    +0.000 A 
ENDBRANCH  10  11
ENDBRANCH   9  10
ENDBRANCH   6   9
ENDBRANCH   2   3
BRANCH   2  17
ATOM     17  N   UNL     1      48.206   7.283  13.967  0.00  0.00    +0.000 N 
ATOM     18  C   UNL     1      48.669   7.849  15.127  0.00  0.00    +0.000 C 
ATOM     19  O   UNL     1      48.201   8.882  15.596  0.00  0.00    +0.000 OA
ATOM     20  H   UNL     1      48.587   6.402  13.642  0.00  0.00    +0.000 HD
BRANCH  18  21
ATOM     21  C   UNL     1      49.778   7.146  15.781  0.00  0.00    +0.000 A 
ATOM     22  C   UNL     1      51.051   7.692  15.826  0.00  0.00    +0.000 A 
ATOM     23  S   UNL     1      52.173   6.719  16.670  0.00  0.00    +0.000 S 
ATOM     24  C   UNL     1      50.981   5.562  17.040  0.00  0.00    +0.000 A 
ATOM     25  N   UNL     1      51.263   4.469  17.796  0.00  0.00    +0.000 NA
ATOM     26  C   UNL     1      50.252   3.698  18.022  0.00  0.00    +0.000 A 
ATOM     27  N   UNL     1      48.970   3.897  17.554  0.00  0.00    +0.000 N 
ATOM     28  C   UNL     1      47.903   2.964  17.839  0.00  0.00    +0.000 C 
ATOM     29  C   UNL     1      48.654   4.986  16.753  0.00  0.00    +0.000 A 
ATOM     30  O   UNL     1      47.534   5.146  16.285  0.00  0.00    +0.000 OA
ATOM     31  C   UNL     1      49.756   5.893  16.496  0.00  0.00    +0.000 A 
ENDBRANCH  18  21
ENDBRANCH   2  17
TORSDOF 6
ENDMDL
MODEL 3
REMARK VINA RESULT:    -7.436      1.707      2.885
REMARK INTER + INTRA:         -11.094
REMARK INTER:                  -9.959
REMARK INTRA:                  -1.135
REMARK UNBOUND:                -1.050
REMARK  Name = 
REMARK  8 active torsions:
REMARK  status: ('A' for Active; 'I' for Inactive)
REMARK    1  A    between atoms: C_1  and  C_2
REMARK    2  A    between atoms: C_2  and  N_3
REMARK    3  A    between atoms: C_2  and  C_17
REMARK    4  A    between atoms: C_4  and  C_6
REMARK    5  A    between atoms: N_12  and  C_13
REMARK    6  A    between atoms: C_20  and  C_21
REMARK    7  A    between atoms: C_21  and  O_22
REMARK    8  A    between atoms: O_22  and  C_23
REMARK                            x       y       z     vdW  Elec       q    Type
REMARK                         _______ _______ _______ _____ _____    ______ ____
ROOT
ATOM      1  C   UNL     1      47.131   4.102  16.278  0.00  0.00    +0.000 C 
ATOM      2  C   UNL     1      47.596   4.842  15.025  0.00  0.00    +0.000 C 
ENDROOT
BRANCH   2   3
ATOM      3  C   UNL     1      46.590   4.709  13.879  0.00  0.00    +0.000 A 
ATOM      4  C   UNL     1      46.135   5.852  13.222  0.00  0.00    +0.000 A 
ATOM      5  C   UNL     1      45.269   5.719  12.134  0.00  0.00    +0.000 A 
ATOM      6  C   UNL     1      44.844   4.453  11.732  0.00  0.00    +0.000 A 
ATOM      7  C   UNL     1      45.312   3.371  12.468  0.00  0.00    +0.000 A 
ATOM      8  N   UNL     1      46.152   3.470  13.529  0.00  0.00    +0.000 NA
BRANCH   6   9
ATOM      9  C   UNL     1      43.955   4.261  10.532  0.00  0.00    +0.000 C 
BRANCH   9  10
ATOM     10  O   UNL     1      44.199   2.959   9.995  0.00  0.00    +0.000 OA
BRANCH  10  11
ATOM     11  C   UNL     1      45.112   2.864   8.992  0.00  0.00    +0.000 A 
ATOM     12  C   UNL     1      45.826   1.756   8.583  0.00  0.00    +0.000 A 
ATOM     13  N   UNL     1      46.721   1.760   7.569  0.00  0.00    +0.000 NA
ATOM     14  C   UNL     1      46.900   2.939   6.952  0.00  0.00    +0.000 A 
ATOM     15  N   UNL     1      46.272   4.084   7.254  0.00  0.00    +0.000 NA
ATOM     16  C   UNL     1      45.388   4.013   8.275  0.00  0.00    +0.000 A 
ENDBRANCH  10  11
ENDBRANCH   9  10
ENDBRANCH   6   9
ENDBRANCH   2   3
BRANCH   2  17
ATOM     17  N   UNL     1      47.863   6.234  15.340  0.00  0.00    +0.000 N 
ATOM     18  C   UNL     1      49.073   6.677  15.809  0.00  0.00    +0.000 C 
ATOM     19  O   UNL     1      49.980   5.915  16.131  0.00  0.00    +0.000 OA
ATOM     20  H   UNL     1      47.159   6.897  15.037  0.00  0.00    +0.000 HD
BRANCH  18  21
ATOM     21  C   UNL     1      49.221   8.132  15.915  0.00  0.00    +0.000 A 
ATOM     22  C   UNL     1      49.365   8.753  17.146  0.00  0.00    +0.000 A 
ATOM     23  S   UNL     1      49.561  10.447  17.027  0.00  0.00    +0.000 S 
ATOM     24  C   UNL     1      49.506  10.393  15.327  0.00  0.00    +0.000 A 
ATOM     25  N   UNL     1      49.663  11.515  14.576  0.00  0.00    +0.000 NA
ATOM     26  C   UNL     1      49.632  11.314  13.301  0.00  0.00    +0.000 A 
ATOM     27  N   UNL     1      49.445  10.095  12.684  0.00  0.00    +0.000 N 
ATOM     28  C   UNL     1      49.400   9.971  11.244  0.00  0.00    +0.000 C 
ATOM     29  C   UNL     1      49.250   8.935  13.421  0.00  0.00    +0.000 A 
ATOM     30  O   UNL     1      49.027   7.856  12.887  0.00  0.00    +0.000 OA
ATOM     31  C   UNL     1      49.304   9.110  14.859  0.00  0.00    +0.000 A 
ENDBRANCH  18  21
ENDBRANCH   2  17
TORSDOF 6
ENDMDL
MODEL 4
REMARK VINA RESULT:    -7.363      2.918      4.113
REMARK INTER + INTRA:         -10.996
REMARK INTER:                 -10.111
REMARK INTRA:                  -0.884
REMARK UNBOUND:                -1.050
REMARK  Name = 
REMARK  8 active torsions:
REMARK  status: ('A' for Active; 'I' for Inactive)
REMARK    1  A    between atoms: C_1  and  C_2
REMARK    2  A    between atoms: C_2  and  N_3
REMARK    3  A    between atoms: C_2  and  C_17
REMARK    4  A    between atoms: C_4  and  C_6
REMARK    5  A    between atoms: N_12  and  C_13
REMARK    6  A    between atoms: C_20  and  C_21
REMARK    7  A    between atoms: C_21  and  O_22
REMARK    8  A    between atoms: O_22  and  C_23
REMARK                            x       y       z     vdW  Elec       q    Type
REMARK                         _______ _______ _______ _____ _____    ______ ____
ROOT
ATOM      1  C   UNL     1      48.713   7.692  12.574  0.00  0.00    +0.000 C 
ATOM      2  C   UNL     1      47.642   7.079  13.476  0.00  0.00    +0.000 C 
ENDROOT
BRANCH   2   3
ATOM      3  C   UNL     1      46.634   6.247  12.679  0.00  0.00    +0.000 A 
ATOM      4  C   UNL     1      46.293   6.629  11.382  0.00  0.00    +0.000 A 
ATOM      5  C   UNL     1      45.423   5.829  10.637  0.00  0.00    +0.000 A 
ATOM      6  C   UNL     1      44.881   4.675  11.203  0.00  0.00    +0.000 A 
ATOM      7  C   UNL     1      45.241   4.391  12.514  0.00  0.00    +0.000 A 
ATOM      8  N   UNL     1      46.081   5.150  13.262  0.00  0.00    +0.000 NA
BRANCH   6   9
ATOM      9  C   UNL     1      43.983   3.756  10.417  0.00  0.00    +0.000 C 
BRANCH   9  10
ATOM     10  O   UNL     1      44.275   3.922   9.028  0.00  0.00    +0.000 OA
BRANCH  10  11
ATOM     11  C   UNL     1      45.195   3.081   8.483  0.00  0.00    +0.000 A 
ATOM     12  C   UNL     1      45.394   1.741   8.745  0.00  0.00    +0.000 A 
ATOM     13  N   UNL     1      46.344   0.984   8.150  0.00  0.00    +0.000 NA
ATOM     14  C   UNL     1      47.124   1.617   7.260  0.00  0.00    +0.000 A 
ATOM     15  N   UNL     1      47.034   2.912   6.921  0.00  0.00    +0.000 NA
ATOM     16  C   UNL     1      46.063   3.612   7.548  0.00  0.00    +0.000 A 
ENDBRANCH  10  11
ENDBRANCH   9  10
ENDBRANCH   6   9
ENDBRANCH   2   3
BRANCH   2  17
ATOM     17  N   UNL     1      48.266   6.295  14.526  0.00  0.00    +0.000 N 
ATOM     18  C   UNL     1      48.650   6.827  15.730  0.00  0.00    +0.000 C 
ATOM     19  O   UNL     1      48.624   8.032  15.963  0.00  0.00    +0.000 OA
ATOM     20  H   UNL     1      48.256   5.291  14.393  0.00  0.00    +0.000 HD
BRANCH  18  21
ATOM     21  C   UNL     1      49.110   5.863  16.735  0.00  0.00    +0.000 A 
ATOM     22  C   UNL     1      48.214   5.071  17.437  0.00  0.00    +0.000 A 
ATOM     23  S   UNL     1      48.973   3.996  18.526  0.00  0.00    +0.000 S 
ATOM     24  C   UNL     1      50.523   4.524  18.059  0.00  0.00    +0.000 A 
ATOM     25  N   UNL     1      51.648   3.970  18.581  0.00  0.00    +0.000 NA
ATOM     26  C   UNL     1      52.750   4.449  18.107  0.00  0.00    +0.000 A 
ATOM     27  N   UNL     1      52.851   5.447  17.160  0.00  0.00    +0.000 N 
ATOM     28  C   UNL     1      54.133   5.938  16.705  0.00  0.00    +0.000 C 
ATOM     29  C   UNL     1      51.721   6.056  16.630  0.00  0.00    +0.000 A 
ATOM     30  O   UNL     1      51.797   6.981  15.831  0.00  0.00    +0.000 OA
ATOM     31  C   UNL     1      50.461   5.530  17.115  0.00  0.00    +0.000 A 
ENDBRANCH  18  21
ENDBRANCH   2  17
TORSDOF 6
ENDMDL
MODEL 5
REMARK VINA RESULT:    -7.208      2.051      2.978
REMARK INTER + INTRA:         -10.786
REMARK INTER:                  -9.872
REMARK INTRA:                  -0.913
REMARK UNBOUND:                -1.050
REMARK  Name = 
REMARK  8 active torsions:
REMARK  status: ('A' for Active; 'I' for Inactive)
REMARK    1  A    between atoms: C_1  and  C_2
REMARK    2  A    between atoms: C_2  and  N_3
REMARK    3  A    between atoms: C_2  and  C_17
REMARK    4  A    between atoms: C_4  and  C_6
REMARK    5  A    between atoms: N_12  and  C_13
REMARK    6  A    between atoms: C_20  and  C_21
REMARK    7  A    between atoms: C_21  and  O_22
REMARK    8  A    between atoms: O_22  and  C_23
REMARK                            x       y       z     vdW  Elec       q    Type
REMARK                         _______ _______ _______ _____ _____    ______ ____
ROOT
ATOM      1  C   UNL     1      48.818   7.331  12.365  0.00  0.00    +0.000 C 
ATOM      2  C   UNL     1      47.526   7.511  13.161  0.00  0.00    +0.000 C 
ENDROOT
BRANCH   2   3
ATOM      3  C   UNL     1      46.493   6.433  12.823  0.00  0.00    +0.000 A 
ATOM      4  C   UNL     1      45.294   6.793  12.208  0.00  0.00    +0.000 A 
ATOM      5  C   UNL     1      44.385   5.797  11.842  0.00  0.00    +0.000 A 
ATOM      6  C   UNL     1      44.668   4.459  12.118  0.00  0.00    +0.000 A 
ATOM      7  C   UNL     1      45.865   4.193  12.770  0.00  0.00    +0.000 A 
ATOM      8  N   UNL     1      46.766   5.139  13.140  0.00  0.00    +0.000 NA
BRANCH   6   9
ATOM      9  C   UNL     1      43.742   3.351  11.692  0.00  0.00    +0.000 C 
BRANCH   9  10
ATOM     10  O   UNL     1      43.441   3.525  10.305  0.00  0.00    +0.000 OA
BRANCH  10  11
ATOM     11  C   UNL     1      44.412   3.190   9.414  0.00  0.00    +0.000 A 
ATOM     12  C   UNL     1      45.053   1.978   9.257  0.00  0.00    +0.000 A 
ATOM     13  N   UNL     1      46.015   1.741   8.336  0.00  0.00    +0.000 NA
ATOM     14  C   UNL     1      46.342   2.780   7.551  0.00  0.00    +0.000 A 
ATOM     15  N   UNL     1      45.798   4.005   7.606  0.00  0.00    +0.000 NA
ATOM     16  C   UNL     1      44.840   4.175   8.544  0.00  0.00    +0.000 A 
ENDBRANCH  10  11
ENDBRANCH   9  10
ENDBRANCH   6   9
ENDBRANCH   2   3
BRANCH   2  17
ATOM     17  N   UNL     1      47.818   7.539  14.583  0.00  0.00    +0.000 N 
ATOM     18  C   UNL     1      48.334   8.638  15.220  0.00  0.00    +0.000 C 
ATOM     19  O   UNL     1      48.718   9.636  14.618  0.00  0.00    +0.000 OA
ATOM     20  H   UNL     1      47.465   6.756  15.122  0.00  0.00    +0.000 HD
BRANCH  18  21
ATOM     21  C   UNL     1      48.411   8.550  16.682  0.00  0.00    +0.000 A 
ATOM     22  C   UNL     1      47.853   9.527  17.492  0.00  0.00    +0.000 A 
ATOM     23  S   UNL     1      48.027   9.199  19.161  0.00  0.00    +0.000 S 
ATOM     24  C   UNL     1      48.812   7.721  18.848  0.00  0.00    +0.000 A 
ATOM     25  N   UNL     1      49.198   6.896  19.857  0.00  0.00    +0.000 NA
ATOM     26  C   UNL     1      49.750   5.795  19.466  0.00  0.00    +0.000 A 
ATOM     27  N   UNL     1      49.973   5.430  18.155  0.00  0.00    +0.000 N 
ATOM     28  C   UNL     1      50.621   4.183  17.812  0.00  0.00    +0.000 C 
ATOM     29  C   UNL     1      49.619   6.263  17.102  0.00  0.00    +0.000 A 
ATOM     30  O   UNL     1      49.861   5.976  15.937  0.00  0.00    +0.000 OA
ATOM     31  C   UNL     1      48.972   7.499  17.495  0.00  0.00    +0.000 A 
ENDBRANCH  18  21
ENDBRANCH   2  17
TORSDOF 6
ENDMDL
MODEL 6
REMARK VINA RESULT:    -7.120      2.131      2.757
REMARK INTER + INTRA:         -10.667
REMARK INTER:                 -10.131
REMARK INTRA:                  -0.536
REMARK UNBOUND:                -1.050
REMARK  Name = 
REMARK  8 active torsions:
REMARK  status: ('A' for Active; 'I' for Inactive)
REMARK    1  A    between atoms: C_1  and  C_2
REMARK    2  A    between atoms: C_2  and  N_3
REMARK    3  A    between atoms: C_2  and  C_17
REMARK    4  A    between atoms: C_4  and  C_6
REMARK    5  A    between atoms: N_12  and  C_13
REMARK    6  A    between atoms: C_20  and  C_21
REMARK    7  A    between atoms: C_21  and  O_22
REMARK    8  A    between atoms: O_22  and  C_23
REMARK                            x       y       z     vdW  Elec       q    Type
REMARK                         _______ _______ _______ _____ _____    ______ ____
ROOT
ATOM      1  C   UNL     1      49.126   7.278  12.607  0.00  0.00    +0.000 C 
ATOM      2  C   UNL     1      47.849   7.097  13.427  0.00  0.00    +0.000 C 
ENDROOT
BRANCH   2   3
ATOM      3  C   UNL     1      46.796   6.284  12.669  0.00  0.00    +0.000 A 
ATOM      4  C   UNL     1      46.375   6.703  11.407  0.00  0.00    +0.000 A 
ATOM      5  C   UNL     1      45.463   5.921  10.693  0.00  0.00    +0.000 A 
ATOM      6  C   UNL     1      44.961   4.747  11.256  0.00  0.00    +0.000 A 
ATOM      7  C   UNL     1      45.401   4.426  12.534  0.00  0.00    +0.000 A 
ATOM      8  N   UNL     1      46.283   5.167  13.252  0.00  0.00    +0.000 NA
BRANCH   6   9
ATOM      9  C   UNL     1      44.020   3.847  10.500  0.00  0.00    +0.000 C 
BRANCH   9  10
ATOM     10  O   UNL     1      44.287   3.990   9.103  0.00  0.00    +0.000 OA
BRANCH  10  11
ATOM     11  C   UNL     1      45.191   3.134   8.555  0.00  0.00    +0.000 A 
ATOM     12  C   UNL     1      45.345   1.783   8.788  0.00  0.00    +0.000 A 
ATOM     13  N   UNL     1      46.283   1.011   8.192  0.00  0.00    +0.000 NA
ATOM     14  C   UNL     1      47.098   1.641   7.332  0.00  0.00    +0.000 A 
ATOM     15  N   UNL     1      47.054   2.945   7.022  0.00  0.00    +0.000 NA
ATOM     16  C   UNL     1      46.092   3.660   7.648  0.00  0.00    +0.000 A 
ENDBRANCH  10  11
ENDBRANCH   9  10
ENDBRANCH   6   9
ENDBRANCH   2   3
BRANCH   2  17
ATOM     17  N   UNL     1      48.162   6.496  14.710  0.00  0.00    +0.000 N 
ATOM     18  C   UNL     1      48.807   7.169  15.715  0.00  0.00    +0.000 C 
ATOM     19  O   UNL     1      49.292   8.286  15.562  0.00  0.00    +0.000 OA
ATOM     20  H   UNL     1      47.731   5.597  14.893  0.00  0.00    +0.000 HD
BRANCH  18  21
ATOM     21  C   UNL     1      48.894   6.467  17.000  0.00  0.00    +0.000 A 
ATOM     22  C   UNL     1      49.478   5.213  17.097  0.00  0.00    +0.000 A 
ATOM     23  S   UNL     1      49.505   4.604  18.693  0.00  0.00    +0.000 S 
ATOM     24  C   UNL     1      48.779   6.017  19.307  0.00  0.00    +0.000 A 
ATOM     25  N   UNL     1      48.553   6.177  20.638  0.00  0.00    +0.000 NA
ATOM     26  C   UNL     1      48.029   7.313  20.958  0.00  0.00    +0.000 A 
ATOM     27  N   UNL     1      47.687   8.317  20.077  0.00  0.00    +0.000 N 
ATOM     28  C   UNL     1      47.080   9.550  20.527  0.00  0.00    +0.000 C 
ATOM     29  C   UNL     1      47.875   8.173  18.709  0.00  0.00    +0.000 A 
ATOM     30  O   UNL     1      47.526   9.033  17.911  0.00  0.00    +0.000 OA
ATOM     31  C   UNL     1      48.487   6.922  18.307  0.00  0.00    +0.000 A 
ENDBRANCH  18  21
ENDBRANCH   2  17
TORSDOF 6
ENDMDL
MODEL 7
REMARK VINA RESULT:    -6.593      2.801      3.400
REMARK INTER + INTRA:          -9.955
REMARK INTER:                  -8.849
REMARK INTRA:                  -1.106
REMARK UNBOUND:                -1.050
REMARK  Name = 
REMARK  8 active torsions:
REMARK  status: ('A' for Active; 'I' for Inactive)
REMARK    1  A    between atoms: C_1  and  C_2
REMARK    2  A    between atoms: C_2  and  N_3
REMARK    3  A    between atoms: C_2  and  C_17
REMARK    4  A    between atoms: C_4  and  C_6
REMARK    5  A    between atoms: N_12  and  C_13
REMARK    6  A    between atoms: C_20  and  C_21
REMARK    7  A    between atoms: C_21  and  O_22
REMARK    8  A    between atoms: O_22  and  C_23
REMARK                            x       y       z     vdW  Elec       q    Type
REMARK                         _______ _______ _______ _____ _____    ______ ____
ROOT
ATOM      1  C   UNL     1      49.487   7.545  12.233  0.00  0.00    +0.000 C 
ATOM      2  C   UNL     1      48.707   7.318  13.527  0.00  0.00    +0.000 C 
ENDROOT
BRANCH   2   3
ATOM      3  C   UNL     1      47.446   6.482  13.293  0.00  0.00    +0.000 A 
ATOM      4  C   UNL     1      46.273   7.103  12.866  0.00  0.00    +0.000 A 
ATOM      5  C   UNL     1      45.145   6.326  12.591  0.00  0.00    +0.000 A 
ATOM      6  C   UNL     1      45.191   4.943  12.772  0.00  0.00    +0.000 A 
ATOM      7  C   UNL     1      46.386   4.411  13.240  0.00  0.00    +0.000 A 
ATOM      8  N   UNL     1      47.496   5.142  13.518  0.00  0.00    +0.000 NA
BRANCH   6   9
ATOM      9  C   UNL     1      44.017   4.062  12.436  0.00  0.00    +0.000 C 
BRANCH   9  10
ATOM     10  O   UNL     1      43.602   4.357  11.100  0.00  0.00    +0.000 OA
BRANCH  10  11
ATOM     11  C   UNL     1      44.318   3.794  10.090  0.00  0.00    +0.000 A 
ATOM     12  C   UNL     1      44.540   2.455   9.839  0.00  0.00    +0.000 A 
ATOM     13  N   UNL     1      45.274   1.989   8.802  0.00  0.00    +0.000 NA
ATOM     14  C   UNL     1      45.805   2.921   7.996  0.00  0.00    +0.000 A 
ATOM     15  N   UNL     1      45.666   4.248   8.134  0.00  0.00    +0.000 NA
ATOM     16  C   UNL     1      44.919   4.649   9.186  0.00  0.00    +0.000 A 
ENDBRANCH  10  11
ENDBRANCH   9  10
ENDBRANCH   6   9
ENDBRANCH   2   3
BRANCH   2  17
ATOM     17  N   UNL     1      49.568   6.713  14.527  0.00  0.00    +0.000 N 
ATOM     18  C   UNL     1      50.455   7.433  15.286  0.00  0.00    +0.000 C 
ATOM     19  O   UNL     1      50.690   8.621  15.085  0.00  0.00    +0.000 OA
ATOM     20  H   UNL     1      49.365   5.748  14.758  0.00  0.00    +0.000 HD
BRANCH  18  21
ATOM     21  C   UNL     1      51.123   6.691  16.360  0.00  0.00    +0.000 A 
ATOM     22  C   UNL     1      52.483   6.426  16.314  0.00  0.00    +0.000 A 
ATOM     23  S   UNL     1      53.053   5.585  17.689  0.00  0.00    +0.000 S 
ATOM     24  C   UNL     1      51.508   5.592  18.405  0.00  0.00    +0.000 A 
ATOM     25  N   UNL     1      51.297   5.063  19.639  0.00  0.00    +0.000 NA
ATOM     26  C   UNL     1      50.083   5.171  20.066  0.00  0.00    +0.000 A 
ATOM     27  N   UNL     1      49.036   5.747  19.377  0.00  0.00    +0.000 N 
ATOM     28  C   UNL     1      47.701   5.801  19.928  0.00  0.00    +0.000 C 
ATOM     29  C   UNL     1      49.211   6.267  18.102  0.00  0.00    +0.000 A 
ATOM     30  O   UNL     1      48.280   6.731  17.457  0.00  0.00    +0.000 OA
ATOM     31  C   UNL     1      50.567   6.191  17.593  0.00  0.00    +0.000 A 
ENDBRANCH  18  21
ENDBRANCH   2  17
TORSDOF 6
ENDMDL
MODEL 8
REMARK VINA RESULT:    -6.582      3.502      5.036
REMARK INTER + INTRA:          -9.940
REMARK INTER:                  -8.522
REMARK INTRA:                  -1.418
REMARK UNBOUND:                -1.050
REMARK  Name = 
REMARK  8 active torsions:
REMARK  status: ('A' for Active; 'I' for Inactive)
REMARK    1  A    between atoms: C_1  and  C_2
REMARK    2  A    between atoms: C_2  and  N_3
REMARK    3  A    between atoms: C_2  and  C_17
REMARK    4  A    between atoms: C_4  and  C_6
REMARK    5  A    between atoms: N_12  and  C_13
REMARK    6  A    between atoms: C_20  and  C_21
REMARK    7  A    between atoms: C_21  and  O_22
REMARK    8  A    between atoms: O_22  and  C_23
REMARK                            x       y       z     vdW  Elec       q    Type
REMARK                         _______ _______ _______ _____ _____    ______ ____
ROOT
ATOM      1  C   UNL     1      51.572   8.730  12.496  0.00  0.00    +0.000 C 
ATOM      2  C   UNL     1      50.563   8.539  13.627  0.00  0.00    +0.000 C 
ENDROOT
BRANCH   2   3
ATOM      3  C   UNL     1      49.150   8.290  13.094  0.00  0.00    +0.000 A 
ATOM      4  C   UNL     1      48.975   7.615  11.885  0.00  0.00    +0.000 A 
ATOM      5  C   UNL     1      47.682   7.333  11.438  0.00  0.00    +0.000 A 
ATOM      6  C   UNL     1      46.579   7.751  12.184  0.00  0.00    +0.000 A 
ATOM      7  C   UNL     1      46.843   8.452  13.354  0.00  0.00    +0.000 A 
ATOM      8  N   UNL     1      48.087   8.743  13.811  0.00  0.00    +0.000 NA
BRANCH   6   9
ATOM      9  C   UNL     1      45.171   7.420  11.766  0.00  0.00    +0.000 C 
BRANCH   9  10
ATOM     10  O   UNL     1      45.213   6.277  10.909  0.00  0.00    +0.000 OA
BRANCH  10  11
ATOM     11  C   UNL     1      44.642   5.133  11.373  0.00  0.00    +0.000 A 
ATOM     12  C   UNL     1      44.580   4.670  12.672  0.00  0.00    +0.000 A 
ATOM     13  N   UNL     1      43.987   3.511  13.038  0.00  0.00    +0.000 NA
ATOM     14  C   UNL     1      43.444   2.793  12.043  0.00  0.00    +0.000 A 
ATOM     15  N   UNL     1      43.439   3.130  10.745  0.00  0.00    +0.000 NA
ATOM     16  C   UNL     1      44.044   4.301  10.445  0.00  0.00    +0.000 A 
ENDBRANCH  10  11
ENDBRANCH   9  10
ENDBRANCH   6   9
ENDBRANCH   2   3
BRANCH   2  17
ATOM     17  N   UNL     1      50.996   7.467  14.505  0.00  0.00    +0.000 N 
ATOM     18  C   UNL     1      51.242   7.648  15.842  0.00  0.00    +0.000 C 
ATOM     19  O   UNL     1      51.249   8.755  16.373  0.00  0.00    +0.000 OA
ATOM     20  H   UNL     1      50.950   6.533  14.117  0.00  0.00    +0.000 HD
BRANCH  18  21
ATOM     21  C   UNL     1      51.509   6.428  16.611  0.00  0.00    +0.000 A 
ATOM     22  C   UNL     1      52.752   6.192  17.178  0.00  0.00    +0.000 A 
ATOM     23  S   UNL     1      52.823   4.730  18.061  0.00  0.00    +0.000 S 
ATOM     24  C   UNL     1      51.183   4.394  17.751  0.00  0.00    +0.000 A 
ATOM     25  N   UNL     1      50.575   3.293  18.266  0.00  0.00    +0.000 NA
ATOM     26  C   UNL     1      49.322   3.189  17.973  0.00  0.00    +0.000 A 
ATOM     27  N   UNL     1      48.601   4.073  17.198  0.00  0.00    +0.000 N 
ATOM     28  C   UNL     1      47.201   3.861  16.904  0.00  0.00    +0.000 C 
ATOM     29  C   UNL     1      49.199   5.191  16.631  0.00  0.00    +0.000 A 
ATOM     30  O   UNL     1      48.585   5.953  15.896  0.00  0.00    +0.000 OA
ATOM     31  C   UNL     1      50.602   5.361  16.956  0.00  0.00    +0.000 A 
ENDBRANCH  18  21
ENDBRANCH   2  17
TORSDOF 6
ENDMDL
MODEL 9
REMARK VINA RESULT:    -6.523      2.819      4.862
REMARK INTER + INTRA:          -9.861
REMARK INTER:                  -8.423
REMARK INTRA:                  -1.438
REMARK UNBOUND:                -1.050
REMARK  Name = 
REMARK  8 active torsions:
REMARK  status: ('A' for Active; 'I' for Inactive)
REMARK    1  A    between atoms: C_1  and  C_2
REMARK    2  A    between atoms: C_2  and  N_3
REMARK    3  A    between atoms: C_2  and  C_17
REMARK    4  A    between atoms: C_4  and  C_6
REMARK    5  A    between atoms: N_12  and  C_13
REMARK    6  A    between atoms: C_20  and  C_21
REMARK    7  A    between atoms: C_21  and  O_22
REMARK    8  A    between atoms: O_22  and  C_23
REMARK                            x       y       z     vdW  Elec       q    Type
REMARK                         _______ _______ _______ _____ _____    ______ ____
ROOT
ATOM      1  C   UNL     1      50.929   9.701  14.337  0.00  0.00    +0.000 C 
ATOM      2  C   UNL     1      49.538   9.320  14.842  0.00  0.00    +0.000 C 
ENDROOT
BRANCH   2   3
ATOM      3  C   UNL     1      48.720   8.598  13.768  0.00  0.00    +0.000 A 
ATOM      4  C   UNL     1      49.364   8.053  12.657  0.00  0.00    +0.000 A 
ATOM      5  C   UNL     1      48.620   7.339  11.715  0.00  0.00    +0.000 A 
ATOM      6  C   UNL     1      47.240   7.202  11.875  0.00  0.00    +0.000 A 
ATOM      7  C   UNL     1      46.674   7.811  12.987  0.00  0.00    +0.000 A 
ATOM      8  N   UNL     1      47.371   8.513  13.917  0.00  0.00    +0.000 NA
BRANCH   6   9
ATOM      9  C   UNL     1      46.410   6.395  10.912  0.00  0.00    +0.000 C 
BRANCH   9  10
ATOM     10  O   UNL     1      45.074   6.329  11.416  0.00  0.00    +0.000 OA
BRANCH  10  11
ATOM     11  C   UNL     1      44.497   5.100  11.486  0.00  0.00    +0.000 A 
ATOM     12  C   UNL     1      44.063   4.295  10.453  0.00  0.00    +0.000 A 
ATOM     13  N   UNL     1      43.496   3.079  10.623  0.00  0.00    +0.000 NA
ATOM     14  C   UNL     1      43.360   2.670  11.895  0.00  0.00    +0.000 A 
ATOM     15  N   UNL     1      43.738   3.357  12.983  0.00  0.00    +0.000 NA
ATOM     16  C   UNL     1      44.301   4.563  12.745  0.00  0.00    +0.000 A 
ENDBRANCH  10  11
ENDBRANCH   9  10
ENDBRANCH   6   9
ENDBRANCH   2   3
BRANCH   2  17
ATOM     17  N   UNL     1      49.649   8.522  16.050  0.00  0.00    +0.000 N 
ATOM     18  C   UNL     1      48.747   8.594  17.080  0.00  0.00    +0.000 C 
ATOM     19  O   UNL     1      47.854   9.435  17.124  0.00  0.00    +0.000 OA
ATOM     20  H   UNL     1      50.339   7.781  16.028  0.00  0.00    +0.000 HD
BRANCH  18  21
ATOM     21  C   UNL     1      48.917   7.603  18.147  0.00  0.00    +0.000 A 
ATOM     22  C   UNL     1      49.190   7.987  19.451  0.00  0.00    +0.000 A 
ATOM     23  S   UNL     1      49.308   6.668  20.531  0.00  0.00    +0.000 S 
ATOM     24  C   UNL     1      48.952   5.549  19.298  0.00  0.00    +0.000 A 
ATOM     25  N   UNL     1      48.849   4.219  19.555  0.00  0.00    +0.000 NA
ATOM     26  C   UNL     1      48.541   3.498  18.529  0.00  0.00    +0.000 A 
ATOM     27  N   UNL     1      48.335   3.969  17.249  0.00  0.00    +0.000 N 
ATOM     28  C   UNL     1      48.017   3.080  16.154  0.00  0.00    +0.000 C 
ATOM     29  C   UNL     1      48.465   5.318  16.946  0.00  0.00    +0.000 A 
ATOM     30  O   UNL     1      48.340   5.741  15.804  0.00  0.00    +0.000 OA
ATOM     31  C   UNL     1      48.784   6.168  18.075  0.00  0.00    +0.000 A 
ENDBRANCH  18  21
ENDBRANCH   2  17
TORSDOF 6
ENDMDL
