MODEL 1
REMARK VINA RESULT:    -7.010      0.000      0.000
REMARK INTER + INTRA:         -11.687
REMARK INTER:                 -10.699
REMARK INTRA:                  -0.988
REMARK UNBOUND:                -0.988
REMARK  Name = 
REMARK  12 active torsions:
REMARK  status: ('A' for Active; 'I' for Inactive)
REMARK    1  A    between atoms: C_1  and  C_2
REMARK    2  A    between atoms: C_2  and  N_3
REMARK    3  A    between atoms: N_3  and  C_4
REMARK    4  A    between atoms: C_4  and  C_5
REMARK    5  A    between atoms: C_6  and  C_8
REMARK    6  A    between atoms: C_11  and  O_12
REMARK    7  A    between atoms: O_12  and  C_13
REMARK    8  A    between atoms: C_13  and  C_14
REMARK    9  A    between atoms: C_14  and  O_15
REMARK   10  A    between atoms: C_14  and  C_16
REMARK   11  A    between atoms: C_20  and  C_21
REMARK   12  A    between atoms: C_21  and  O_22
REMARK                            x       y       z     vdW  Elec       q    Type
REMARK                         _______ _______ _______ _____ _____    ______ ____
ROOT
ATOM      1  O   UNL     1      44.062   4.455  12.805  0.00  0.00    +0.000 OA
ENDROOT
BRANCH   1   5
ATOM      2  C   UNL     1      47.708   6.316  13.164  0.00  0.00    +0.000 A 
ATOM      3  C   UNL     1      46.631   7.110  12.771  0.00  0.00    +0.000 A 
ATOM      4  C   UNL     1      45.372   6.521  12.644  0.00  0.00    +0.000 A 
ATOM      5  C   UNL     1      45.222   5.165  12.904  0.00  0.00    +0.000 A 
ATOM      6  C   UNL     1      46.343   4.461  13.327  0.00  0.00    +0.000 A 
ATOM      7  N   UNL     1      47.577   5.000  13.460  0.00  0.00    +0.000 NA
BRANCH   2   9
ATOM      8  N   UNL     1      49.541   7.323  14.593  0.00  0.00    +0.000 N 
ATOM      9  C   UNL     1      49.057   6.959  13.318  0.00  0.00    +0.000 C 
ATOM     10  O   UNL     1      49.719   7.134  12.292  0.00  0.00    +0.000 OA
BRANCH   8  12
ATOM     11  C   UNL     1      50.483   9.620  14.701  0.00  0.00    +0.000 C 
ATOM     12  C   UNL     1      50.766   8.126  14.626  0.00  0.00    +0.000 C 
ENDBRANCH   8  12
BRANCH   8  13
ATOM     13  C   UNL     1      48.801   7.031  15.829  0.00  0.00    +0.000 C 
ATOM     14  C   UNL     1      49.229   5.832  16.660  0.00  0.00    +0.000 C 
ENDBRANCH   8  13
ENDBRANCH   2   9
ENDBRANCH   1   5
BRANCH   1  15
ATOM     15  C   UNL     1      43.379   4.537  11.543  0.00  0.00    +0.000 C 
BRANCH  15  16
ATOM     16  C   UNL     1      43.582   3.211  10.780  0.00  0.00    +0.000 C 
BRANCH  16  17
ATOM     17  C   UNL     1      44.589   3.253   9.637  0.00  0.00    +0.000 A 
ATOM     18  C   UNL     1      45.007   4.481   9.100  0.00  0.00    +0.000 A 
ATOM     19  C   UNL     1      45.968   4.536   8.087  0.00  0.00    +0.000 A 
ATOM     20  C   UNL     1      46.545   3.363   7.602  0.00  0.00    +0.000 A 
ATOM     21  C   UNL     1      46.166   2.125   8.128  0.00  0.00    +0.000 A 
ATOM     22  C   UNL     1      45.190   2.084   9.139  0.00  0.00    +0.000 A 
BRANCH  21  23
ATOM     23  C   UNL     1      46.780   0.845   7.628  0.00  0.00    +0.000 C 
BRANCH  23  24
ATOM     24  O   UNL     1      47.960   1.126   6.885  0.00  0.00    +0.000 OA
ATOM     25  H   UNL     1      47.673   1.349   5.982  0.00  0.00    +0.000 HD
ENDBRANCH  23  24
ENDBRANCH  21  23
ENDBRANCH  16  17
BRANCH  16  26
ATOM     26  O   UNL     1      43.950   2.201  11.728  0.00  0.00    +0.000 OA
ATOM     27  H   UNL     1      43.886   2.628  12.602  0.00  0.00    +0.000 HD
ENDBRANCH  16  26
ENDBRANCH  15  16
ENDBRANCH   1  15
TORSDOF 10
ENDMDL
MODEL 2
REMARK VINA RESULT:    -6.678      1.672      2.211
REMARK INTER + INTRA:         -11.180
REMARK INTER:                 -10.444
REMARK INTRA:                  -0.735
REMARK UNBOUND:                -0.988
REMARK  Name = 
REMARK  12 active torsions:
REMARK  status: ('A' for Active; 'I' for Inactive)
REMARK    1  A    between atoms: C_1  and  C_2
REMARK    2  A    between atoms: C_2  and  N_3
REMARK    3  A    between atoms: N_3  and  C_4
REMARK    4  A    between atoms: C_4  and  C_5
REMARK    5  A    between atoms: C_6  and  C_8
REMARK    6  A    between atoms: C_11  and  O_12
REMARK    7  A    between atoms: O_12  and  C_13
REMARK    8  A    between atoms: C_13  and  C_14
REMARK    9  A    between atoms: C_14  and  O_15
REMARK   10  A    between atoms: C_14  and  C_16
REMARK   11  A    between atoms: C_20  and  C_21
REMARK   12  A    between atoms: C_21  and  O_22
REMARK                            x       y       z     vdW  Elec       q    Type
REMARK                         _______ _______ _______ _____ _____    ______ ____
ROOT
ATOM      1  O   UNL     1      44.042   4.741  12.213  0.00  0.00    +0.000 OA
ENDROOT
BRANCH   1   5
ATOM      2  C   UNL     1      47.023   7.321  13.373  0.00  0.00    +0.000 A 
ATOM      3  C   UNL     1      47.311   5.958  13.429  0.00  0.00    +0.000 A 
ATOM      4  C   UNL     1      46.331   5.046  13.036  0.00  0.00    +0.000 A 
ATOM      5  C   UNL     1      45.095   5.513  12.607  0.00  0.00    +0.000 A 
ATOM      6  C   UNL     1      44.909   6.888  12.548  0.00  0.00    +0.000 A 
ATOM      7  N   UNL     1      45.838   7.800  12.921  0.00  0.00    +0.000 NA
BRANCH   2   9
ATOM      8  N   UNL     1      49.183   8.565  12.929  0.00  0.00    +0.000 N 
ATOM      9  C   UNL     1      48.087   8.300  13.777  0.00  0.00    +0.000 C 
ATOM     10  O   UNL     1      47.950   8.865  14.865  0.00  0.00    +0.000 OA
BRANCH   8  12
ATOM     11  C   UNL     1      50.235  10.815  13.014  0.00  0.00    +0.000 C 
ATOM     12  C   UNL     1      50.271   9.369  13.491  0.00  0.00    +0.000 C 
ENDBRANCH   8  12
BRANCH   8  13
ATOM     13  C   UNL     1      49.306   7.968  11.591  0.00  0.00    +0.000 C 
ATOM     14  C   UNL     1      50.699   7.655  11.066  0.00  0.00    +0.000 C 
ENDBRANCH   8  13
ENDBRANCH   2   9
ENDBRANCH   1   5
BRANCH   1  15
ATOM     15  C   UNL     1      43.792   4.689  10.799  0.00  0.00    +0.000 C 
BRANCH  15  16
ATOM     16  C   UNL     1      44.114   3.269  10.287  0.00  0.00    +0.000 C 
BRANCH  16  17
ATOM     17  C   UNL     1      45.097   3.190   9.127  0.00  0.00    +0.000 A 
ATOM     18  C   UNL     1      45.553   4.360   8.497  0.00  0.00    +0.000 A 
ATOM     19  C   UNL     1      46.493   4.305   7.466  0.00  0.00    +0.000 A 
ATOM     20  C   UNL     1      47.014   3.079   7.055  0.00  0.00    +0.000 A 
ATOM     21  C   UNL     1      46.597   1.897   7.673  0.00  0.00    +0.000 A 
ATOM     22  C   UNL     1      45.642   1.965   8.701  0.00  0.00    +0.000 A 
BRANCH  21  23
ATOM     23  C   UNL     1      47.150   0.561   7.253  0.00  0.00    +0.000 C 
BRANCH  23  24
ATOM     24  O   UNL     1      46.534  -0.481   8.001  0.00  0.00    +0.000 OA
ATOM     25  H   UNL     1      45.588  -0.465   7.772  0.00  0.00    +0.000 HD
ENDBRANCH  23  24
ENDBRANCH  21  23
ENDBRANCH  16  17
BRANCH  16  26
ATOM     26  O   UNL     1      44.590   2.493  11.394  0.00  0.00    +0.000 OA
ATOM     27  H   UNL     1      44.135   1.633  11.324  0.00  0.00    +0.000 HD
ENDBRANCH  16  26
ENDBRANCH  15  16
ENDBRANCH   1  15
TORSDOF 10
ENDMDL
MODEL 3
REMARK VINA RESULT:    -6.412      2.518      3.814
REMARK INTER + INTRA:         -10.774
REMARK INTER:                  -9.952
REMARK INTRA:                  -0.822
REMARK UNBOUND:                -0.988
REMARK  Name = 
REMARK  12 active torsions:
REMARK  status: ('A' for Active; 'I' for Inactive)
REMARK    1  A    between atoms: C_1  and  C_2
REMARK    2  A    between atoms: C_2  and  N_3
REMARK    3  A    between atoms: N_3  and  C_4
REMARK    4  A    between atoms: C_4  and  C_5
REMARK    5  A    between atoms: C_6  and  C_8
REMARK    6  A    between atoms: C_11  and  O_12
REMARK    7  A    between atoms: O_12  and  C_13
REMARK    8  A    between atoms: C_13  and  C_14
REMARK    9  A    between atoms: C_14  and  O_15
REMARK   10  A    between atoms: C_14  and  C_16
REMARK   11  A    between atoms: C_20  and  C_21
REMARK   12  A    between atoms: C_21  and  O_22
REMARK                            x       y       z     vdW  Elec       q    Type
REMARK                         _______ _______ _______ _____ _____    ______ ____
ROOT
ATOM      1  O   UNL     1      46.524   5.919  12.536  0.00  0.00    +0.000 OA
ENDROOT
BRANCH   1   5
ATOM      2  C   UNL     1      48.313   5.053  16.134  0.00  0.00    +0.000 A 
ATOM      3  C   UNL     1      47.306   4.188  15.706  0.00  0.00    +0.000 A 
ATOM      4  C   UNL     1      46.677   4.439  14.486  0.00  0.00    +0.000 A 
ATOM      5  C   UNL     1      47.061   5.542  13.732  0.00  0.00    +0.000 A 
ATOM      6  C   UNL     1      48.099   6.327  14.219  0.00  0.00    +0.000 A 
ATOM      7  N   UNL     1      48.730   6.112  15.397  0.00  0.00    +0.000 NA
BRANCH   2   9
ATOM      8  N   UNL     1      48.632   5.456  18.613  0.00  0.00    +0.000 N 
ATOM      9  C   UNL     1      49.001   4.768  17.438  0.00  0.00    +0.000 C 
ATOM     10  O   UNL     1      49.879   3.902  17.435  0.00  0.00    +0.000 OA
BRANCH   8  12
ATOM     11  C   UNL     1      48.788   4.512  20.906  0.00  0.00    +0.000 C 
ATOM     12  C   UNL     1      49.491   5.265  19.785  0.00  0.00    +0.000 C 
ENDBRANCH   8  12
BRANCH   8  13
ATOM     13  C   UNL     1      47.523   6.421  18.646  0.00  0.00    +0.000 C 
ATOM     14  C   UNL     1      47.858   7.904  18.683  0.00  0.00    +0.000 C 
ENDBRANCH   8  13
ENDBRANCH   2   9
ENDBRANCH   1   5
BRANCH   1  15
ATOM     15  C   UNL     1      45.162   6.373  12.572  0.00  0.00    +0.000 C 
BRANCH  15  16
ATOM     16  C   UNL     1      44.573   6.293  11.148  0.00  0.00    +0.000 C 
BRANCH  16  17
ATOM     17  C   UNL     1      44.671   4.935  10.465  0.00  0.00    +0.000 A 
ATOM     18  C   UNL     1      44.075   3.802  11.043  0.00  0.00    +0.000 A 
ATOM     19  C   UNL     1      44.113   2.561  10.403  0.00  0.00    +0.000 A 
ATOM     20  C   UNL     1      44.733   2.430   9.161  0.00  0.00    +0.000 A 
ATOM     21  C   UNL     1      45.319   3.541   8.549  0.00  0.00    +0.000 A 
ATOM     22  C   UNL     1      45.283   4.781   9.209  0.00  0.00    +0.000 A 
BRANCH  21  23
ATOM     23  C   UNL     1      45.987   3.428   7.204  0.00  0.00    +0.000 C 
BRANCH  23  24
ATOM     24  O   UNL     1      47.052   4.366   7.106  0.00  0.00    +0.000 OA
ATOM     25  H   UNL     1      47.605   4.082   6.357  0.00  0.00    +0.000 HD
ENDBRANCH  23  24
ENDBRANCH  21  23
ENDBRANCH  16  17
BRANCH  16  26
ATOM     26  O   UNL     1      43.206   6.721  11.205  0.00  0.00    +0.000 OA
ATOM     27  H   UNL     1      43.045   7.194  10.368  0.00  0.00    +0.000 HD
ENDBRANCH  16  26
ENDBRANCH  15  16
ENDBRANCH   1  15
TORSDOF 10
ENDMDL
MODEL 4
REMARK VINA RESULT:    -6.366      1.867      2.760
REMARK INTER + INTRA:         -10.704
REMARK INTER:                 -10.453
REMARK INTRA:                  -0.251
REMARK UNBOUND:                -0.988
REMARK  Name = 
REMARK  12 active torsions:
REMARK  status: ('A' for Active; 'I' for Inactive)
REMARK    1  A    between atoms: C_1  and  C_2
REMARK    2  A    between atoms: C_2  and  N_3
REMARK    3  A    between atoms: N_3  and  C_4
REMARK    4  A    between atoms: C_4  and  C_5
REMARK    5  A    between atoms: C_6  and  C_8
REMARK    6  A    between atoms: C_11  and  O_12
REMARK    7  A    between atoms: O_12  and  C_13
REMARK    8  A    between atoms: C_13  and  C_14
REMARK    9  A    between atoms: C_14  and  O_15
REMARK   10  A    between atoms: C_14  and  C_16
REMARK   11  A    between atoms: C_20  and  C_21
REMARK   12  A    between atoms: C_21  and  O_22
REMARK                            x       y       z     vdW  Elec       q    Type
REMARK                         _______ _______ _______ _____ _____    ______ ____
ROOT
ATOM      1  O   UNL     1      44.682   5.566  11.277  0.00  0.00    +0.000 OA
ENDROOT
BRANCH   1   5
ATOM      2  C   UNL     1      47.487   5.771  14.273  0.00  0.00    +0.000 A 
ATOM      3  C   UNL     1      47.008   4.504  13.943  0.00  0.00    +0.000 A 
ATOM      4  C   UNL     1      46.060   4.386  12.926  0.00  0.00    +0.000 A 
ATOM      5  C   UNL     1      45.613   5.528  12.272  0.00  0.00    +0.000 A 
ATOM      6  C   UNL     1      46.174   6.744  12.641  0.00  0.00    +0.000 A 
ATOM      7  N   UNL     1      47.094   6.894  13.623  0.00  0.00    +0.000 NA
BRANCH   2   9
ATOM      8  N   UNL     1      48.299   5.329  16.631  0.00  0.00    +0.000 N 
ATOM      9  C   UNL     1      48.522   5.891  15.355  0.00  0.00    +0.000 C 
ATOM     10  O   UNL     1      49.568   6.480  15.073  0.00  0.00    +0.000 OA
BRANCH   8  12
ATOM     11  C   UNL     1      48.594   6.163  18.953  0.00  0.00    +0.000 C 
ATOM     12  C   UNL     1      49.264   5.671  17.678  0.00  0.00    +0.000 C 
ENDBRANCH   8  12
BRANCH   8  13
ATOM     13  C   UNL     1      47.097   4.544  16.946  0.00  0.00    +0.000 C 
ATOM     14  C   UNL     1      47.273   3.091  17.361  0.00  0.00    +0.000 C 
ENDBRANCH   8  13
ENDBRANCH   2   9
ENDBRANCH   1   5
BRANCH   1  15
ATOM     15  C   UNL     1      45.175   5.352   9.944  0.00  0.00    +0.000 C 
BRANCH  15  16
ATOM     16  C   UNL     1      44.400   4.178   9.309  0.00  0.00    +0.000 C 
BRANCH  16  17
ATOM     17  C   UNL     1      45.242   3.170   8.536  0.00  0.00    +0.000 A 
ATOM     18  C   UNL     1      45.344   1.840   8.977  0.00  0.00    +0.000 A 
ATOM     19  C   UNL     1      46.069   0.894   8.250  0.00  0.00    +0.000 A 
ATOM     20  C   UNL     1      46.694   1.252   7.057  0.00  0.00    +0.000 A 
ATOM     21  C   UNL     1      46.597   2.562   6.580  0.00  0.00    +0.000 A 
ATOM     22  C   UNL     1      45.873   3.507   7.326  0.00  0.00    +0.000 A 
BRANCH  21  23
ATOM     23  C   UNL     1      47.255   2.972   5.290  0.00  0.00    +0.000 C 
BRANCH  23  24
ATOM     24  O   UNL     1      48.568   2.430   5.216  0.00  0.00    +0.000 OA
ATOM     25  H   UNL     1      49.094   3.048   4.678  0.00  0.00    +0.000 HD
ENDBRANCH  23  24
ENDBRANCH  21  23
ENDBRANCH  16  17
BRANCH  16  26
ATOM     26  O   UNL     1      43.662   3.517  10.345  0.00  0.00    +0.000 OA
ATOM     27  H   UNL     1      42.861   3.168   9.913  0.00  0.00    +0.000 HD
ENDBRANCH  16  26
ENDBRANCH  15  16
ENDBRANCH   1  15
TORSDOF 10
ENDMDL
MODEL 5
REMARK VINA RESULT:    -5.977      1.565      2.253
REMARK INTER + INTRA:         -10.110
REMARK INTER:                  -9.264
REMARK INTRA:                  -0.846
REMARK UNBOUND:                -0.988
REMARK  Name = 
REMARK  12 active torsions:
REMARK  status: ('A' for Active; 'I' for Inactive)
REMARK    1  A    between atoms: C_1  and  C_2
REMARK    2  A    between atoms: C_2  and  N_3
REMARK    3  A    between atoms: N_3  and  C_4
REMARK    4  A    between atoms: C_4  and  C_5
REMARK    5  A    between atoms: C_6  and  C_8
REMARK    6  A    between atoms: C_11  and  O_12
REMARK    7  A    between atoms: O_12  and  C_13
REMARK    8  A    between atoms: C_13  and  C_14
REMARK    9  A    between atoms: C_14  and  O_15
REMARK   10  A    between atoms: C_14  and  C_16
REMARK   11  A    between atoms: C_20  and  C_21
REMARK   12  A    between atoms: C_21  and  O_22
REMARK                            x       y       z     vdW  Elec       q    Type
REMARK                         _______ _______ _______ _____ _____    ______ ____
ROOT
ATOM      1  O   UNL     1      44.858   6.428  13.088  0.00  0.00    +0.000 OA
ENDROOT
BRANCH   1   5
ATOM      2  C   UNL     1      48.781   7.410  12.353  0.00  0.00    +0.000 A 
ATOM      3  C   UNL     1      47.822   8.380  12.062  0.00  0.00    +0.000 A 
ATOM      4  C   UNL     1      46.478   8.093  12.304  0.00  0.00    +0.000 A 
ATOM      5  C   UNL     1      46.127   6.851  12.820  0.00  0.00    +0.000 A 
ATOM      6  C   UNL     1      47.151   5.961  13.114  0.00  0.00    +0.000 A 
ATOM      7  N   UNL     1      48.464   6.207  12.892  0.00  0.00    +0.000 NA
BRANCH   2   9
ATOM      8  N   UNL     1      51.027   8.281  13.134  0.00  0.00    +0.000 N 
ATOM      9  C   UNL     1      50.227   7.731  12.109  0.00  0.00    +0.000 C 
ATOM     10  O   UNL     1      50.681   7.478  10.990  0.00  0.00    +0.000 OA
BRANCH   8  12
ATOM     11  C   UNL     1      52.357  10.205  12.295  0.00  0.00    +0.000 C 
ATOM     12  C   UNL     1      52.359   8.752  12.748  0.00  0.00    +0.000 C 
ENDBRANCH   8  12
BRANCH   8  13
ATOM     13  C   UNL     1      50.520   8.497  14.497  0.00  0.00    +0.000 C 
ATOM     14  C   UNL     1      50.719   7.392  15.523  0.00  0.00    +0.000 C 
ENDBRANCH   8  13
ENDBRANCH   2   9
ENDBRANCH   1   5
BRANCH   1  15
ATOM     15  C   UNL     1      44.450   5.213  12.440  0.00  0.00    +0.000 C 
BRANCH  15  16
ATOM     16  C   UNL     1      44.299   5.481  10.927  0.00  0.00    +0.000 C 
BRANCH  16  17
ATOM     17  C   UNL     1      44.774   4.365  10.006  0.00  0.00    +0.000 A 
ATOM     18  C   UNL     1      44.314   3.050  10.184  0.00  0.00    +0.000 A 
ATOM     19  C   UNL     1      44.700   2.026   9.316  0.00  0.00    +0.000 A 
ATOM     20  C   UNL     1      45.540   2.300   8.238  0.00  0.00    +0.000 A 
ATOM     21  C   UNL     1      46.000   3.601   8.019  0.00  0.00    +0.000 A 
ATOM     22  C   UNL     1      45.613   4.619   8.907  0.00  0.00    +0.000 A 
BRANCH  21  23
ATOM     23  C   UNL     1      46.901   3.924   6.857  0.00  0.00    +0.000 C 
BRANCH  23  24
ATOM     24  O   UNL     1      47.882   2.906   6.701  0.00  0.00    +0.000 OA
ATOM     25  H   UNL     1      48.745   3.356   6.660  0.00  0.00    +0.000 HD
ENDBRANCH  23  24
ENDBRANCH  21  23
ENDBRANCH  16  17
BRANCH  16  26
ATOM     26  O   UNL     1      42.926   5.792  10.663  0.00  0.00    +0.000 OA
ATOM     27  H   UNL     1      42.470   4.932  10.603  0.00  0.00    +0.000 HD
ENDBRANCH  16  26
ENDBRANCH  15  16
ENDBRANCH   1  15
TORSDOF 10
ENDMDL
MODEL 6
REMARK VINA RESULT:    -5.905      2.561      3.951
REMARK INTER + INTRA:         -10.000
REMARK INTER:                  -9.203
REMARK INTRA:                  -0.797
REMARK UNBOUND:                -0.988
REMARK  Name = 
REMARK  12 active torsions:
REMARK  status: ('A' for Active; 'I' for Inactive)
REMARK    1  A    between atoms: C_1  and  C_2
REMARK    2  A    between atoms: C_2  and  N_3
REMARK    3  A    between atoms: N_3  and  C_4
REMARK    4  A    between atoms: C_4  and  C_5
REMARK    5  A    between atoms: C_6  and  C_8
REMARK    6  A    between atoms: C_11  and  O_12
REMARK    7  A    between atoms: O_12  and  C_13
REMARK    8  A    between atoms: C_13  and  C_14
REMARK    9  A    between atoms: C_14  and  O_15
REMARK   10  A    between atoms: C_14  and  C_16
REMARK   11  A    between atoms: C_20  and  C_21
REMARK   12  A    between atoms: C_21  and  O_22
REMARK                            x       y       z     vdW  Elec       q    Type
REMARK                         _______ _______ _______ _____ _____    ______ ____
ROOT
ATOM      1  O   UNL     1      47.101   5.577  12.507  0.00  0.00    +0.000 OA
ENDROOT
BRANCH   1   5
ATOM      2  C   UNL     1      48.132   5.526  16.485  0.00  0.00    +0.000 A 
ATOM      3  C   UNL     1      47.366   4.458  16.018  0.00  0.00    +0.000 A 
ATOM      4  C   UNL     1      47.001   4.430  14.671  0.00  0.00    +0.000 A 
ATOM      5  C   UNL     1      47.399   5.464  13.833  0.00  0.00    +0.000 A 
ATOM      6  C   UNL     1      48.191   6.467  14.377  0.00  0.00    +0.000 A 
ATOM      7  N   UNL     1      48.564   6.525  15.677  0.00  0.00    +0.000 NA
BRANCH   2   9
ATOM      8  N   UNL     1      49.764   4.973  18.340  0.00  0.00    +0.000 N 
ATOM      9  C   UNL     1      48.539   5.542  17.930  0.00  0.00    +0.000 C 
ATOM     10  O   UNL     1      47.770   6.084  18.728  0.00  0.00    +0.000 OA
BRANCH   8  12
ATOM     11  C   UNL     1      50.828   5.983  20.346  0.00  0.00    +0.000 C 
ATOM     12  C   UNL     1      49.982   4.849  19.784  0.00  0.00    +0.000 C 
ENDBRANCH   8  12
BRANCH   8  13
ATOM     13  C   UNL     1      50.730   4.410  17.385  0.00  0.00    +0.000 C 
ATOM     14  C   UNL     1      51.699   3.349  17.881  0.00  0.00    +0.000 C 
ENDBRANCH   8  13
ENDBRANCH   2   9
ENDBRANCH   1   5
BRANCH   1  15
ATOM     15  C   UNL     1      46.511   6.821  12.097  0.00  0.00    +0.000 C 
BRANCH  15  16
ATOM     16  C   UNL     1      45.096   6.545  11.548  0.00  0.00    +0.000 C 
BRANCH  16  17
ATOM     17  C   UNL     1      44.915   5.218  10.821  0.00  0.00    +0.000 A 
ATOM     18  C   UNL     1      44.137   4.195  11.388  0.00  0.00    +0.000 A 
ATOM     19  C   UNL     1      43.921   2.993  10.711  0.00  0.00    +0.000 A 
ATOM     20  C   UNL     1      44.462   2.795   9.442  0.00  0.00    +0.000 A 
ATOM     21  C   UNL     1      45.225   3.800   8.839  0.00  0.00    +0.000 A 
ATOM     22  C   UNL     1      45.444   5.000   9.537  0.00  0.00    +0.000 A 
BRANCH  21  23
ATOM     23  C   UNL     1      45.813   3.615   7.466  0.00  0.00    +0.000 C 
BRANCH  23  24
ATOM     24  O   UNL     1      46.941   4.465   7.298  0.00  0.00    +0.000 OA
ATOM     25  H   UNL     1      47.729   3.915   7.450  0.00  0.00    +0.000 HD
ENDBRANCH  23  24
ENDBRANCH  21  23
ENDBRANCH  16  17
BRANCH  16  26
ATOM     26  O   UNL     1      44.167   6.645  12.634  0.00  0.00    +0.000 OA
ATOM     27  H   UNL     1      43.312   6.875  12.226  0.00  0.00    +0.000 HD
ENDBRANCH  16  26
ENDBRANCH  15  16
ENDBRANCH   1  15
TORSDOF 10
ENDMDL
MODEL 7
REMARK VINA RESULT:    -5.492      2.405      4.374
REMARK INTER + INTRA:          -9.369
REMARK INTER:                  -8.660
REMARK INTRA:                  -0.709
REMARK UNBOUND:                -0.988
REMARK  Name = 
REMARK  12 active torsions:
REMARK  status: ('A' for Active; 'I' for Inactive)
REMARK    1  A    between atoms: C_1  and  C_2
REMARK    2  A    between atoms: C_2  and  N_3
REMARK    3  A    between atoms: N_3  and  C_4
REMARK    4  A    between atoms: C_4  and  C_5
REMARK    5  A    between atoms: C_6  and  C_8
REMARK    6  A    between atoms: C_11  and  O_12
REMARK    7  A    between atoms: O_12  and  C_13
REMARK    8  A    between atoms: C_13  and  C_14
REMARK    9  A    between atoms: C_14  and  O_15
REMARK   10  A    between atoms: C_14  and  C_16
REMARK   11  A    between atoms: C_20  and  C_21
REMARK   12  A    between atoms: C_21  and  O_22
REMARK                            x       y       z     vdW  Elec       q    Type
REMARK                         _______ _______ _______ _____ _____    ______ ____
ROOT
ATOM      1  O   UNL     1      47.275   8.116  12.845  0.00  0.00    +0.000 OA
ENDROOT
BRANCH   1   5
ATOM      2  C   UNL     1      49.005   6.262  16.079  0.00  0.00    +0.000 A 
ATOM      3  C   UNL     1      49.168   7.644  15.982  0.00  0.00    +0.000 A 
ATOM      4  C   UNL     1      48.590   8.316  14.904  0.00  0.00    +0.000 A 
ATOM      5  C   UNL     1      47.876   7.597  13.954  0.00  0.00    +0.000 A 
ATOM      6  C   UNL     1      47.733   6.230  14.152  0.00  0.00    +0.000 A 
ATOM      7  N   UNL     1      48.279   5.547  15.185  0.00  0.00    +0.000 NA
BRANCH   2   9
ATOM      8  N   UNL     1      48.956   5.524  18.501  0.00  0.00    +0.000 N 
ATOM      9  C   UNL     1      49.611   5.546  17.251  0.00  0.00    +0.000 C 
ATOM     10  O   UNL     1      50.687   4.972  17.067  0.00  0.00    +0.000 OA
BRANCH   8  12
ATOM     11  C   UNL     1      48.813   4.446  20.735  0.00  0.00    +0.000 C 
ATOM     12  C   UNL     1      49.714   4.984  19.632  0.00  0.00    +0.000 C 
ENDBRANCH   8  12
BRANCH   8  13
ATOM     13  C   UNL     1      47.630   6.124  18.705  0.00  0.00    +0.000 C 
ATOM     14  C   UNL     1      47.555   7.519  19.309  0.00  0.00    +0.000 C 
ENDBRANCH   8  13
ENDBRANCH   2   9
ENDBRANCH   1   5
BRANCH   1  15
ATOM     15  C   UNL     1      46.970   7.181  11.798  0.00  0.00    +0.000 C 
BRANCH  15  16
ATOM     16  C   UNL     1      45.440   7.131  11.604  0.00  0.00    +0.000 C 
BRANCH  16  17
ATOM     17  C   UNL     1      44.822   5.739  11.567  0.00  0.00    +0.000 A 
ATOM     18  C   UNL     1      44.043   5.277  12.641  0.00  0.00    +0.000 A 
ATOM     19  C   UNL     1      43.428   4.024  12.599  0.00  0.00    +0.000 A 
ATOM     20  C   UNL     1      43.563   3.213  11.473  0.00  0.00    +0.000 A 
ATOM     21  C   UNL     1      44.314   3.650  10.379  0.00  0.00    +0.000 A 
ATOM     22  C   UNL     1      44.937   4.908  10.439  0.00  0.00    +0.000 A 
BRANCH  21  23
ATOM     23  C   UNL     1      44.468   2.797   9.148  0.00  0.00    +0.000 C 
BRANCH  23  24
ATOM     24  O   UNL     1      45.244   1.643   9.446  0.00  0.00    +0.000 OA
ATOM     25  H   UNL     1      45.433   1.208   8.597  0.00  0.00    +0.000 HD
ENDBRANCH  23  24
ENDBRANCH  21  23
ENDBRANCH  16  17
BRANCH  16  26
ATOM     26  O   UNL     1      44.833   7.916  12.638  0.00  0.00    +0.000 OA
ATOM     27  H   UNL     1      44.333   7.284  13.187  0.00  0.00    +0.000 HD
ENDBRANCH  16  26
ENDBRANCH  15  16
ENDBRANCH   1  15
TORSDOF 10
ENDMDL
MODEL 8
REMARK VINA RESULT:    -5.197      3.123      7.917
REMARK INTER + INTRA:          -8.920
REMARK INTER:                  -7.899
REMARK INTRA:                  -1.021
REMARK UNBOUND:                -0.988
REMARK  Name = 
REMARK  12 active torsions:
REMARK  status: ('A' for Active; 'I' for Inactive)
REMARK    1  A    between atoms: C_1  and  C_2
REMARK    2  A    between atoms: C_2  and  N_3
REMARK    3  A    between atoms: N_3  and  C_4
REMARK    4  A    between atoms: C_4  and  C_5
REMARK    5  A    between atoms: C_6  and  C_8
REMARK    6  A    between atoms: C_11  and  O_12
REMARK    7  A    between atoms: O_12  and  C_13
REMARK    8  A    between atoms: C_13  and  C_14
REMARK    9  A    between atoms: C_14  and  O_15
REMARK   10  A    between atoms: C_14  and  C_16
REMARK   11  A    between atoms: C_20  and  C_21
REMARK   12  A    between atoms: C_21  and  O_22
REMARK                            x       y       z     vdW  Elec       q    Type
REMARK                         _______ _______ _______ _____ _____    ______ ____
ROOT
ATOM      1  O   UNL     1      49.898   8.546  14.267  0.00  0.00    +0.000 OA
ENDROOT
BRANCH   1   5
ATOM      2  C   UNL     1      46.412   7.342  12.452  0.00  0.00    +0.000 A 
ATOM      3  C   UNL     1      47.594   6.753  12.002  0.00  0.00    +0.000 A 
ATOM      4  C   UNL     1      48.800   7.126  12.596  0.00  0.00    +0.000 A 
ATOM      5  C   UNL     1      48.798   8.075  13.611  0.00  0.00    +0.000 A 
ATOM      6  C   UNL     1      47.571   8.580  14.020  0.00  0.00    +0.000 A 
ATOM      7  N   UNL     1      46.383   8.241  13.466  0.00  0.00    +0.000 NA
BRANCH   2   9
ATOM      8  N   UNL     1      44.479   5.724  12.211  0.00  0.00    +0.000 N 
ATOM      9  C   UNL     1      45.114   6.923  11.823  0.00  0.00    +0.000 C 
ATOM     10  O   UNL     1      44.628   7.677  10.976  0.00  0.00    +0.000 OA
BRANCH   8  12
ATOM     11  C   UNL     1      43.752   4.490  10.181  0.00  0.00    +0.000 C 
ATOM     12  C   UNL     1      43.335   5.295  11.404  0.00  0.00    +0.000 C 
ENDBRANCH   8  12
BRANCH   8  13
ATOM     13  C   UNL     1      45.001   4.868  13.286  0.00  0.00    +0.000 C 
ATOM     14  C   UNL     1      45.868   3.678  12.904  0.00  0.00    +0.000 C 
ENDBRANCH   8  13
ENDBRANCH   2   9
ENDBRANCH   1   5
BRANCH   1  15
ATOM     15  C   UNL     1      50.508   7.644  15.202  0.00  0.00    +0.000 C 
BRANCH  15  16
ATOM     16  C   UNL     1      50.078   8.039  16.631  0.00  0.00    +0.000 C 
BRANCH  16  17
ATOM     17  C   UNL     1      49.119   7.079  17.324  0.00  0.00    +0.000 A 
ATOM     18  C   UNL     1      48.440   7.468  18.490  0.00  0.00    +0.000 A 
ATOM     19  C   UNL     1      47.520   6.618  19.107  0.00  0.00    +0.000 A 
ATOM     20  C   UNL     1      47.245   5.366  18.560  0.00  0.00    +0.000 A 
ATOM     21  C   UNL     1      47.888   4.955  17.389  0.00  0.00    +0.000 A 
ATOM     22  C   UNL     1      48.820   5.816  16.785  0.00  0.00    +0.000 A 
BRANCH  21  23
ATOM     23  C   UNL     1      47.602   3.611  16.773  0.00  0.00    +0.000 C 
BRANCH  23  24
ATOM     24  O   UNL     1      46.572   2.950  17.498  0.00  0.00    +0.000 OA
ATOM     25  H   UNL     1      45.728   3.256  17.122  0.00  0.00    +0.000 HD
ENDBRANCH  23  24
ENDBRANCH  21  23
ENDBRANCH  16  17
BRANCH  16  26
ATOM     26  O   UNL     1      51.260   8.216  17.421  0.00  0.00    +0.000 OA
ATOM     27  H   UNL     1      51.858   7.490  17.162  0.00  0.00    +0.000 HD
ENDBRANCH  16  26
ENDBRANCH  15  16
ENDBRANCH   1  15
TORSDOF 10
ENDMDL
MODEL 9
REMARK VINA RESULT:    -5.069      2.980      5.383
REMARK INTER + INTRA:          -8.725
REMARK INTER:                  -7.982
REMARK INTRA:                  -0.742
REMARK UNBOUND:                -0.988
REMARK  Name = 
REMARK  12 active torsions:
REMARK  status: ('A' for Active; 'I' for Inactive)
REMARK    1  A    between atoms: C_1  and  C_2
REMARK    2  A    between atoms: C_2  and  N_3
REMARK    3  A    between atoms: N_3  and  C_4
REMARK    4  A    between atoms: C_4  and  C_5
REMARK    5  A    between atoms: C_6  and  C_8
REMARK    6  A    between atoms: C_11  and  O_12
REMARK    7  A    between atoms: O_12  and  C_13
REMARK    8  A    between atoms: C_13  and  C_14
REMARK    9  A    between atoms: C_14  and  O_15
REMARK   10  A    between atoms: C_14  and  C_16
REMARK   11  A    between atoms: C_20  and  C_21
REMARK   12  A    between atoms: C_21  and  O_22
REMARK                            x       y       z     vdW  Elec       q    Type
REMARK                         _______ _______ _______ _____ _____    ______ ____
ROOT
ATOM      1  O   UNL     1      48.279   9.256  13.589  0.00  0.00    +0.000 OA
ENDROOT
BRANCH   1   5
ATOM      2  C   UNL     1      49.287   6.972  16.854  0.00  0.00    +0.000 A 
ATOM      3  C   UNL     1      48.605   8.163  17.104  0.00  0.00    +0.000 A 
ATOM      4  C   UNL     1      48.235   8.966  16.024  0.00  0.00    +0.000 A 
ATOM      5  C   UNL     1      48.559   8.567  14.733  0.00  0.00    +0.000 A 
ATOM      6  C   UNL     1      49.206   7.348  14.577  0.00  0.00    +0.000 A 
ATOM      7  N   UNL     1      49.579   6.545  15.602  0.00  0.00    +0.000 NA
BRANCH   2   9
ATOM      8  N   UNL     1      48.777   5.117  18.501  0.00  0.00    +0.000 N 
ATOM      9  C   UNL     1      49.665   6.102  18.018  0.00  0.00    +0.000 C 
ATOM     10  O   UNL     1      50.782   6.276  18.514  0.00  0.00    +0.000 OA
BRANCH   8  12
ATOM     11  C   UNL     1      48.419   5.059  20.959  0.00  0.00    +0.000 C 
ATOM     12  C   UNL     1      49.142   4.463  19.760  0.00  0.00    +0.000 C 
ENDBRANCH   8  12
BRANCH   8  13
ATOM     13  C   UNL     1      47.485   4.839  17.858  0.00  0.00    +0.000 C 
ATOM     14  C   UNL     1      47.265   3.462  17.249  0.00  0.00    +0.000 C 
ENDBRANCH   8  13
ENDBRANCH   2   9
ENDBRANCH   1   5
BRANCH   1  15
ATOM     15  C   UNL     1      48.027   8.461  12.420  0.00  0.00    +0.000 C 
BRANCH  15  16
ATOM     16  C   UNL     1      46.503   8.284  12.257  0.00  0.00    +0.000 C 
BRANCH  16  17
ATOM     17  C   UNL     1      45.991   6.851  12.320  0.00  0.00    +0.000 A 
ATOM     18  C   UNL     1      46.530   5.942  13.246  0.00  0.00    +0.000 A 
ATOM     19  C   UNL     1      46.036   4.640  13.350  0.00  0.00    +0.000 A 
ATOM     20  C   UNL     1      44.978   4.224  12.543  0.00  0.00    +0.000 A 
ATOM     21  C   UNL     1      44.406   5.108  11.625  0.00  0.00    +0.000 A 
ATOM     22  C   UNL     1      44.920   6.411  11.522  0.00  0.00    +0.000 A 
BRANCH  21  23
ATOM     23  C   UNL     1      43.257   4.686  10.748  0.00  0.00    +0.000 C 
BRANCH  23  24
ATOM     24  O   UNL     1      43.634   4.759   9.378  0.00  0.00    +0.000 OA
ATOM     25  H   UNL     1      42.964   5.307   8.934  0.00  0.00    +0.000 HD
ENDBRANCH  23  24
ENDBRANCH  21  23
ENDBRANCH  16  17
BRANCH  16  26
ATOM     26  O   UNL     1      45.851   9.087  13.249  0.00  0.00    +0.000 OA
ATOM     27  H   UNL     1      45.309   8.468  13.772  0.00  0.00    +0.000 HD
ENDBRANCH  16  26
ENDBRANCH  15  16
ENDBRANCH   1  15
TORSDOF 10
ENDMDL
