MODEL 1
REMARK VINA RESULT:    -8.716      0.000      0.000
REMARK INTER + INTRA:         -13.701
REMARK INTER:                 -13.047
REMARK INTRA:                  -0.654
REMARK UNBOUND:                -0.654
REMARK  Name = 
REMARK  10 active torsions:
REMARK  status: ('A' for Active; 'I' for Inactive)
REMARK    1  A    between atoms: C_1  and  C_2
REMARK    2  A    between atoms: C_2  and  O_3
REMARK    3  A    between atoms: O_3  and  C_4
REMARK    4  A    between atoms: C_6  and  C_7
REMARK    5  A    between atoms: C_7  and  C_8
REMARK    6  A    between atoms: C_8  and  N_9
REMARK    7  A    between atoms: N_9  and  C_10
REMARK    8  A    between atoms: C_13  and  C_14
REMARK    9  A    between atoms: C_20  and  C_21
REMARK   10  A    between atoms: C_27  and  O_28
REMARK                            x       y       z     vdW  Elec       q    Type
REMARK                         _______ _______ _______ _____ _____    ______ ____
ROOT
ATOM      1  C   UNL     1      47.612   5.352  14.457  0.00  0.00    +0.000 A 
ATOM      2  C   UNL     1      46.908   4.276  13.916  0.00  0.00    +0.000 A 
ATOM      3  C   UNL     1      46.014   4.455  12.851  0.00  0.00    +0.000 A 
ATOM      4  C   UNL     1      45.790   5.759  12.387  0.00  0.00    +0.000 A 
ATOM      5  C   UNL     1      46.435   6.865  12.961  0.00  0.00    +0.000 A 
ATOM      6  C   UNL     1      47.363   6.644  13.988  0.00  0.00    +0.000 A 
ENDROOT
BRANCH   5   7
ATOM      7  C   UNL     1      46.121   8.261  12.482  0.00  0.00    +0.000 C 
ATOM      8  F   UNL     1      45.782   9.113  13.489  0.00  0.00    +0.000 F 
ATOM      9  F   UNL     1      47.175   8.842  11.847  0.00  0.00    +0.000 F 
ATOM     10  F   UNL     1      45.083   8.295  11.602  0.00  0.00    +0.000 F 
ENDBRANCH   5   7
BRANCH   1  11
ATOM     11  O   UNL     1      48.572   5.263  15.438  0.00  0.00    +0.000 OA
BRANCH  11  13
ATOM     12  C   UNL     1      47.863   5.892  17.698  0.00  0.00    +0.000 C 
ATOM     13  C   UNL     1      48.249   4.745  16.760  0.00  0.00    +0.000 C 
ATOM     14  C   UNL     1      47.393   3.448  16.846  0.00  0.00    +0.000 C 
ATOM     15  C   UNL     1      48.675   2.628  17.039  0.00  0.00    +0.000 C 
ATOM     16  C   UNL     1      49.419   3.926  17.386  0.00  0.00    +0.000 C 
BRANCH  15  17
ATOM     17  O   UNL     1      49.154   1.902  15.890  0.00  0.00    +0.000 OA
ATOM     18  H   UNL     1      49.679   1.162  16.245  0.00  0.00    +0.000 HD
ENDBRANCH  15  17
ENDBRANCH  11  13
ENDBRANCH   1  11
BRANCH   3  19
ATOM     19  C   UNL     1      45.337   3.232  12.259  0.00  0.00    +0.000 C 
BRANCH  19  20
ATOM     20  C   UNL     1      43.855   3.431  11.931  0.00  0.00    +0.000 C 
BRANCH  20  21
ATOM     21  N   UNL     1      43.637   3.929  10.578  0.00  0.00    +0.000 N 
ATOM     22  H   UNL     1      42.665   3.923  10.273  0.00  0.00    +0.000 HD
BRANCH  21  23
ATOM     23  C   UNL     1      44.511   3.485   9.574  0.00  0.00    +0.000 A 
ATOM     24  C   UNL     1      44.842   2.141   9.364  0.00  0.00    +0.000 A 
ATOM     25  C   UNL     1      45.776   1.774   8.397  0.00  0.00    +0.000 A 
ATOM     26  C   UNL     1      46.390   2.780   7.671  0.00  0.00    +0.000 A 
ATOM     27  N   UNL     1      46.134   4.104   7.846  0.00  0.00    +0.000 NA
ATOM     28  C   UNL     1      45.213   4.411   8.794  0.00  0.00    +0.000 A 
BRANCH  26  29
ATOM     29  C   UNL     1      47.416   2.420   6.641  0.00  0.00    +0.000 C 
ATOM     30  N   UNL     1      47.339   3.130   5.473  0.00  0.00    +0.000 N 
ATOM     31  O   UNL     1      48.268   1.563   6.821  0.00  0.00    +0.000 OA
ATOM     32  H   UNL     1      46.634   3.851   5.378  0.00  0.00    +0.000 HD
ATOM     33  H   UNL     1      48.012   2.959   4.742  0.00  0.00    +0.000 HD
ENDBRANCH  26  29
ENDBRANCH  21  23
ENDBRANCH  20  21
ENDBRANCH  19  20
ENDBRANCH   3  19
TORSDOF 9
ENDMDL
MODEL 2
REMARK VINA RESULT:    -8.358      2.838      4.279
REMARK INTER + INTRA:         -13.164
REMARK INTER:                 -11.824
REMARK INTRA:                  -1.340
REMARK UNBOUND:                -0.654
REMARK  Name = 
REMARK  10 active torsions:
REMARK  status: ('A' for Active; 'I' for Inactive)
REMARK    1  A    between atoms: C_1  and  C_2
REMARK    2  A    between atoms: C_2  and  O_3
REMARK    3  A    between atoms: O_3  and  C_4
REMARK    4  A    between atoms: C_6  and  C_7
REMARK    5  A    between atoms: C_7  and  C_8
REMARK    6  A    between atoms: C_8  and  N_9
REMARK    7  A    between atoms: N_9  and  C_10
REMARK    8  A    between atoms: C_13  and  C_14
REMARK    9  A    between atoms: C_20  and  C_21
REMARK   10  A    between atoms: C_27  and  O_28
REMARK                            x       y       z     vdW  Elec       q    Type
REMARK                         _______ _______ _______ _____ _____    ______ ____
ROOT
ATOM      1  C   UNL     1      47.185   6.577  12.164  0.00  0.00    +0.000 A 
ATOM      2  C   UNL     1      45.861   6.413  11.756  0.00  0.00    +0.000 A 
ATOM      3  C   UNL     1      44.962   5.635  12.501  0.00  0.00    +0.000 A 
ATOM      4  C   UNL     1      45.446   4.966  13.634  0.00  0.00    +0.000 A 
ATOM      5  C   UNL     1      46.791   5.063  14.025  0.00  0.00    +0.000 A 
ATOM      6  C   UNL     1      47.649   5.890  13.289  0.00  0.00    +0.000 A 
ENDROOT
BRANCH   5   7
ATOM      7  C   UNL     1      47.295   4.277  15.211  0.00  0.00    +0.000 C 
ATOM      8  F   UNL     1      48.433   4.792  15.755  0.00  0.00    +0.000 F 
ATOM      9  F   UNL     1      46.389   4.229  16.226  0.00  0.00    +0.000 F 
ATOM     10  F   UNL     1      47.585   2.983  14.901  0.00  0.00    +0.000 F 
ENDBRANCH   5   7
BRANCH   1  11
ATOM     11  O   UNL     1      48.112   7.387  11.551  0.00  0.00    +0.000 OA
BRANCH  11  13
ATOM     12  C   UNL     1      47.459   9.538  12.528  0.00  0.00    +0.000 C 
ATOM     13  C   UNL     1      48.615   8.585  12.209  0.00  0.00    +0.000 C 
ATOM     14  C   UNL     1      49.706   8.411  13.305  0.00  0.00    +0.000 C 
ATOM     15  C   UNL     1      50.785   8.749  12.267  0.00  0.00    +0.000 C 
ATOM     16  C   UNL     1      49.691   9.329  11.359  0.00  0.00    +0.000 C 
BRANCH  15  17
ATOM     17  O   UNL     1      51.538   7.641  11.737  0.00  0.00    +0.000 OA
ATOM     18  H   UNL     1      51.615   6.999  12.465  0.00  0.00    +0.000 HD
ENDBRANCH  15  17
ENDBRANCH  11  13
ENDBRANCH   1  11
BRANCH   3  19
ATOM     19  C   UNL     1      43.516   5.559  12.042  0.00  0.00    +0.000 C 
BRANCH  19  20
ATOM     20  C   UNL     1      43.332   4.970  10.642  0.00  0.00    +0.000 C 
BRANCH  20  21
ATOM     21  N   UNL     1      43.834   3.606  10.530  0.00  0.00    +0.000 N 
ATOM     22  H   UNL     1      44.057   3.159  11.418  0.00  0.00    +0.000 HD
BRANCH  21  23
ATOM     23  C   UNL     1      44.803   3.350   9.548  0.00  0.00    +0.000 A 
ATOM     24  C   UNL     1      45.370   4.336   8.733  0.00  0.00    +0.000 A 
ATOM     25  C   UNL     1      46.274   4.004   7.725  0.00  0.00    +0.000 A 
ATOM     26  C   UNL     1      46.569   2.666   7.533  0.00  0.00    +0.000 A 
ATOM     27  N   UNL     1      46.032   1.658   8.271  0.00  0.00    +0.000 NA
ATOM     28  C   UNL     1      45.163   2.032   9.244  0.00  0.00    +0.000 A 
BRANCH  26  29
ATOM     29  C   UNL     1      47.518   2.274   6.442  0.00  0.00    +0.000 C 
ATOM     30  N   UNL     1      47.441   3.033   5.305  0.00  0.00    +0.000 N 
ATOM     31  O   UNL     1      48.312   1.351   6.550  0.00  0.00    +0.000 OA
ATOM     32  H   UNL     1      46.788   3.806   5.270  0.00  0.00    +0.000 HD
ATOM     33  H   UNL     1      48.066   2.843   4.537  0.00  0.00    +0.000 HD
ENDBRANCH  26  29
ENDBRANCH  21  23
ENDBRANCH  20  21
ENDBRANCH  19  20
ENDBRANCH   3  19
TORSDOF 9
ENDMDL
MODEL 3
REMARK VINA RESULT:    -7.783      2.707      4.320
REMARK INTER + INTRA:         -12.304
REMARK INTER:                 -11.211
REMARK INTRA:                  -1.093
REMARK UNBOUND:                -0.654
REMARK  Name = 
REMARK  10 active torsions:
REMARK  status: ('A' for Active; 'I' for Inactive)
REMARK    1  A    between atoms: C_1  and  C_2
REMARK    2  A    between atoms: C_2  and  O_3
REMARK    3  A    between atoms: O_3  and  C_4
REMARK    4  A    between atoms: C_6  and  C_7
REMARK    5  A    between atoms: C_7  and  C_8
REMARK    6  A    between atoms: C_8  and  N_9
REMARK    7  A    between atoms: N_9  and  C_10
REMARK    8  A    between atoms: C_13  and  C_14
REMARK    9  A    between atoms: C_20  and  C_21
REMARK   10  A    between atoms: C_27  and  O_28
REMARK                            x       y       z     vdW  Elec       q    Type
REMARK                         _______ _______ _______ _____ _____    ______ ____
ROOT
ATOM      1  C   UNL     1      47.653   6.240  13.014  0.00  0.00    +0.000 A 
ATOM      2  C   UNL     1      46.477   5.763  12.434  0.00  0.00    +0.000 A 
ATOM      3  C   UNL     1      45.643   4.866  13.117  0.00  0.00    +0.000 A 
ATOM      4  C   UNL     1      46.057   4.403  14.374  0.00  0.00    +0.000 A 
ATOM      5  C   UNL     1      47.269   4.817  14.947  0.00  0.00    +0.000 A 
ATOM      6  C   UNL     1      48.053   5.755  14.262  0.00  0.00    +0.000 A 
ENDROOT
BRANCH   5   7
ATOM      7  C   UNL     1      47.716   4.248  16.272  0.00  0.00    +0.000 C 
ATOM      8  F   UNL     1      48.915   4.740  16.693  0.00  0.00    +0.000 F 
ATOM      9  F   UNL     1      46.836   4.514  17.275  0.00  0.00    +0.000 F 
ATOM     10  F   UNL     1      47.861   2.895  16.243  0.00  0.00    +0.000 F 
ENDBRANCH   5   7
BRANCH   1  11
ATOM     11  O   UNL     1      48.486   7.185  12.462  0.00  0.00    +0.000 OA
BRANCH  11  13
ATOM     12  C   UNL     1      49.648   8.938  13.720  0.00  0.00    +0.000 C 
ATOM     13  C   UNL     1      48.421   8.579  12.877  0.00  0.00    +0.000 C 
ATOM     14  C   UNL     1      47.957   9.631  11.828  0.00  0.00    +0.000 C 
ATOM     15  C   UNL     1      46.542   9.579  12.420  0.00  0.00    +0.000 C 
ATOM     16  C   UNL     1      47.121   8.908  13.674  0.00  0.00    +0.000 C 
BRANCH  15  17
ATOM     17  O   UNL     1      45.562   8.823  11.682  0.00  0.00    +0.000 OA
ATOM     18  H   UNL     1      45.410   9.319  10.858  0.00  0.00    +0.000 HD
ENDBRANCH  15  17
ENDBRANCH  11  13
ENDBRANCH   1  11
BRANCH   3  19
ATOM     19  C   UNL     1      44.340   4.445  12.461  0.00  0.00    +0.000 C 
BRANCH  19  20
ATOM     20  C   UNL     1      44.105   5.060  11.079  0.00  0.00    +0.000 C 
BRANCH  20  21
ATOM     21  N   UNL     1      43.637   4.088  10.099  0.00  0.00    +0.000 N 
ATOM     22  H   UNL     1      43.016   3.370  10.471  0.00  0.00    +0.000 HD
BRANCH  21  23
ATOM     23  C   UNL     1      44.583   3.560   9.206  0.00  0.00    +0.000 A 
ATOM     24  C   UNL     1      44.960   2.213   9.173  0.00  0.00    +0.000 A 
ATOM     25  C   UNL     1      45.961   1.767   8.312  0.00  0.00    +0.000 A 
ATOM     26  C   UNL     1      46.592   2.703   7.510  0.00  0.00    +0.000 A 
ATOM     27  N   UNL     1      46.291   4.029   7.513  0.00  0.00    +0.000 NA
ATOM     28  C   UNL     1      45.307   4.413   8.365  0.00  0.00    +0.000 A 
BRANCH  26  29
ATOM     29  C   UNL     1      47.688   2.260   6.590  0.00  0.00    +0.000 C 
ATOM     30  N   UNL     1      47.842   3.022   5.463  0.00  0.00    +0.000 N 
ATOM     31  O   UNL     1      48.402   1.297   6.821  0.00  0.00    +0.000 OA
ATOM     32  H   UNL     1      47.246   3.830   5.326  0.00  0.00    +0.000 HD
ATOM     33  H   UNL     1      48.576   2.799   4.809  0.00  0.00    +0.000 HD
ENDBRANCH  26  29
ENDBRANCH  21  23
ENDBRANCH  20  21
ENDBRANCH  19  20
ENDBRANCH   3  19
TORSDOF 9
ENDMDL
MODEL 4
REMARK VINA RESULT:    -7.718      1.505      1.990
REMARK INTER + INTRA:         -12.207
REMARK INTER:                 -11.666
REMARK INTRA:                  -0.540
REMARK UNBOUND:                -0.654
REMARK  Name = 
REMARK  10 active torsions:
REMARK  status: ('A' for Active; 'I' for Inactive)
REMARK    1  A    between atoms: C_1  and  C_2
REMARK    2  A    between atoms: C_2  and  O_3
REMARK    3  A    between atoms: O_3  and  C_4
REMARK    4  A    between atoms: C_6  and  C_7
REMARK    5  A    between atoms: C_7  and  C_8
REMARK    6  A    between atoms: C_8  and  N_9
REMARK    7  A    between atoms: N_9  and  C_10
REMARK    8  A    between atoms: C_13  and  C_14
REMARK    9  A    between atoms: C_20  and  C_21
REMARK   10  A    between atoms: C_27  and  O_28
REMARK                            x       y       z     vdW  Elec       q    Type
REMARK                         _______ _______ _______ _____ _____    ______ ____
ROOT
ATOM      1  C   UNL     1      47.873   6.408  13.259  0.00  0.00    +0.000 A 
ATOM      2  C   UNL     1      47.178   5.217  13.043  0.00  0.00    +0.000 A 
ATOM      3  C   UNL     1      45.930   5.211  12.403  0.00  0.00    +0.000 A 
ATOM      4  C   UNL     1      45.362   6.442  12.046  0.00  0.00    +0.000 A 
ATOM      5  C   UNL     1      46.013   7.656  12.315  0.00  0.00    +0.000 A 
ATOM      6  C   UNL     1      47.282   7.624  12.907  0.00  0.00    +0.000 A 
ENDROOT
BRANCH   5   7
ATOM      7  C   UNL     1      45.344   8.966  11.978  0.00  0.00    +0.000 C 
ATOM      8  F   UNL     1      46.214   9.920  11.543  0.00  0.00    +0.000 F 
ATOM      9  F   UNL     1      44.414   8.838  10.993  0.00  0.00    +0.000 F 
ATOM     10  F   UNL     1      44.694   9.516  13.042  0.00  0.00    +0.000 F 
ENDBRANCH   5   7
BRANCH   1  11
ATOM     11  O   UNL     1      49.136   6.506  13.795  0.00  0.00    +0.000 OA
BRANCH  11  13
ATOM     12  C   UNL     1      49.557   8.780  14.607  0.00  0.00    +0.000 C 
ATOM     13  C   UNL     1      49.386   7.306  14.986  0.00  0.00    +0.000 C 
ATOM     14  C   UNL     1      48.545   7.000  16.259  0.00  0.00    +0.000 C 
ATOM     15  C   UNL     1      49.703   6.155  16.806  0.00  0.00    +0.000 C 
ATOM     16  C   UNL     1      50.635   6.820  15.783  0.00  0.00    +0.000 C 
BRANCH  15  17
ATOM     17  O   UNL     1      49.559   4.725  16.709  0.00  0.00    +0.000 OA
ATOM     18  H   UNL     1      49.342   4.543  15.777  0.00  0.00    +0.000 HD
ENDBRANCH  15  17
ENDBRANCH  11  13
ENDBRANCH   1  11
BRANCH   3  19
ATOM     19  C   UNL     1      45.262   3.874  12.131  0.00  0.00    +0.000 C 
BRANCH  19  20
ATOM     20  C   UNL     1      43.807   3.983  11.668  0.00  0.00    +0.000 C 
BRANCH  20  21
ATOM     21  N   UNL     1      43.686   4.336  10.259  0.00  0.00    +0.000 N 
ATOM     22  H   UNL     1      42.731   4.347   9.902  0.00  0.00    +0.000 HD
BRANCH  21  23
ATOM     23  C   UNL     1      44.581   3.735   9.360  0.00  0.00    +0.000 A 
ATOM     24  C   UNL     1      44.801   2.355   9.281  0.00  0.00    +0.000 A 
ATOM     25  C   UNL     1      45.760   1.827   8.418  0.00  0.00    +0.000 A 
ATOM     26  C   UNL     1      46.510   2.712   7.663  0.00  0.00    +0.000 A 
ATOM     27  N   UNL     1      46.365   4.063   7.713  0.00  0.00    +0.000 NA
ATOM     28  C   UNL     1      45.415   4.528   8.564  0.00  0.00    +0.000 A 
BRANCH  26  29
ATOM     29  C   UNL     1      47.565   2.179   6.743  0.00  0.00    +0.000 C 
ATOM     30  N   UNL     1      47.899   3.004   5.704  0.00  0.00    +0.000 N 
ATOM     31  O   UNL     1      48.100   1.092   6.903  0.00  0.00    +0.000 OA
ATOM     32  H   UNL     1      47.450   3.909   5.626  0.00  0.00    +0.000 HD
ATOM     33  H   UNL     1      48.619   2.723   5.057  0.00  0.00    +0.000 HD
ENDBRANCH  26  29
ENDBRANCH  21  23
ENDBRANCH  20  21
ENDBRANCH  19  20
ENDBRANCH   3  19
TORSDOF 9
ENDMDL
MODEL 5
REMARK VINA RESULT:    -7.665      1.122      1.967
REMARK INTER + INTRA:         -12.127
REMARK INTER:                 -11.012
REMARK INTRA:                  -1.116
REMARK UNBOUND:                -0.654
REMARK  Name = 
REMARK  10 active torsions:
REMARK  status: ('A' for Active; 'I' for Inactive)
REMARK    1  A    between atoms: C_1  and  C_2
REMARK    2  A    between atoms: C_2  and  O_3
REMARK    3  A    between atoms: O_3  and  C_4
REMARK    4  A    between atoms: C_6  and  C_7
REMARK    5  A    between atoms: C_7  and  C_8
REMARK    6  A    between atoms: C_8  and  N_9
REMARK    7  A    between atoms: N_9  and  C_10
REMARK    8  A    between atoms: C_13  and  C_14
REMARK    9  A    between atoms: C_20  and  C_21
REMARK   10  A    between atoms: C_27  and  O_28
REMARK                            x       y       z     vdW  Elec       q    Type
REMARK                         _______ _______ _______ _____ _____    ______ ____
ROOT
ATOM      1  C   UNL     1      47.795   5.097  14.965  0.00  0.00    +0.000 A 
ATOM      2  C   UNL     1      46.671   4.507  14.387  0.00  0.00    +0.000 A 
ATOM      3  C   UNL     1      45.975   5.138  13.345  0.00  0.00    +0.000 A 
ATOM      4  C   UNL     1      46.395   6.414  12.945  0.00  0.00    +0.000 A 
ATOM      5  C   UNL     1      47.482   7.055  13.560  0.00  0.00    +0.000 A 
ATOM      6  C   UNL     1      48.188   6.375  14.561  0.00  0.00    +0.000 A 
ENDROOT
BRANCH   5   7
ATOM      7  C   UNL     1      47.867   8.456  13.151  0.00  0.00    +0.000 C 
ATOM      8  F   UNL     1      49.208   8.615  12.968  0.00  0.00    +0.000 F 
ATOM      9  F   UNL     1      47.288   8.833  11.978  0.00  0.00    +0.000 F 
ATOM     10  F   UNL     1      47.504   9.393  14.070  0.00  0.00    +0.000 F 
ENDBRANCH   5   7
BRANCH   1  11
ATOM     11  O   UNL     1      48.591   4.519  15.926  0.00  0.00    +0.000 OA
BRANCH  11  13
ATOM     12  C   UNL     1      47.450   2.955  17.430  0.00  0.00    +0.000 C 
ATOM     13  C   UNL     1      48.110   4.330  17.287  0.00  0.00    +0.000 C 
ATOM     14  C   UNL     1      49.027   4.794  18.456  0.00  0.00    +0.000 C 
ATOM     15  C   UNL     1      48.228   6.100  18.549  0.00  0.00    +0.000 C 
ATOM     16  C   UNL     1      47.108   5.441  17.730  0.00  0.00    +0.000 C 
BRANCH  15  17
ATOM     17  O   UNL     1      48.838   7.272  17.975  0.00  0.00    +0.000 OA
ATOM     18  H   UNL     1      49.799   7.120  18.020  0.00  0.00    +0.000 HD
ENDBRANCH  15  17
ENDBRANCH  11  13
ENDBRANCH   1  11
BRANCH   3  19
ATOM     19  C   UNL     1      44.805   4.408  12.708  0.00  0.00    +0.000 C 
BRANCH  19  20
ATOM     20  C   UNL     1      44.260   5.078  11.445  0.00  0.00    +0.000 C 
BRANCH  20  21
ATOM     21  N   UNL     1      43.695   4.126  10.497  0.00  0.00    +0.000 N 
ATOM     22  H   UNL     1      43.108   3.404  10.914  0.00  0.00    +0.000 HD
BRANCH  21  23
ATOM     23  C   UNL     1      44.549   3.610   9.509  0.00  0.00    +0.000 A 
ATOM     24  C   UNL     1      44.899   2.259   9.408  0.00  0.00    +0.000 A 
ATOM     25  C   UNL     1      45.812   1.823   8.448  0.00  0.00    +0.000 A 
ATOM     26  C   UNL     1      46.385   2.771   7.619  0.00  0.00    +0.000 A 
ATOM     27  N   UNL     1      46.108   4.101   7.684  0.00  0.00    +0.000 NA
ATOM     28  C   UNL     1      45.209   4.475   8.630  0.00  0.00    +0.000 A 
BRANCH  26  29
ATOM     29  C   UNL     1      47.387   2.339   6.593  0.00  0.00    +0.000 C 
ATOM     30  N   UNL     1      47.563   3.209   5.551  0.00  0.00    +0.000 N 
ATOM     31  O   UNL     1      48.014   1.293   6.674  0.00  0.00    +0.000 OA
ATOM     32  H   UNL     1      47.043   4.079   5.539  0.00  0.00    +0.000 HD
ATOM     33  H   UNL     1      48.239   2.997   4.835  0.00  0.00    +0.000 HD
ENDBRANCH  26  29
ENDBRANCH  21  23
ENDBRANCH  20  21
ENDBRANCH  19  20
ENDBRANCH   3  19
TORSDOF 9
ENDMDL
MODEL 6
REMARK VINA RESULT:    -7.331      2.982      3.691
REMARK INTER + INTRA:         -11.628
REMARK INTER:                 -10.907
REMARK INTRA:                  -0.721
REMARK UNBOUND:                -0.654
REMARK  Name = 
REMARK  10 active torsions:
REMARK  status: ('A' for Active; 'I' for Inactive)
REMARK    1  A    between atoms: C_1  and  C_2
REMARK    2  A    between atoms: C_2  and  O_3
REMARK    3  A    between atoms: O_3  and  C_4
REMARK    4  A    between atoms: C_6  and  C_7
REMARK    5  A    between atoms: C_7  and  C_8
REMARK    6  A    between atoms: C_8  and  N_9
REMARK    7  A    between atoms: N_9  and  C_10
REMARK    8  A    between atoms: C_13  and  C_14
REMARK    9  A    between atoms: C_20  and  C_21
REMARK   10  A    between atoms: C_27  and  O_28
REMARK                            x       y       z     vdW  Elec       q    Type
REMARK                         _______ _______ _______ _____ _____    ______ ____
ROOT
ATOM      1  C   UNL     1      46.706   8.033  12.988  0.00  0.00    +0.000 A 
ATOM      2  C   UNL     1      46.532   6.661  12.807  0.00  0.00    +0.000 A 
ATOM      3  C   UNL     1      45.517   6.162  11.978  0.00  0.00    +0.000 A 
ATOM      4  C   UNL     1      44.633   7.077  11.389  0.00  0.00    +0.000 A 
ATOM      5  C   UNL     1      44.748   8.457  11.612  0.00  0.00    +0.000 A 
ATOM      6  C   UNL     1      45.806   8.926  12.403  0.00  0.00    +0.000 A 
ENDROOT
BRANCH   5   7
ATOM      7  C   UNL     1      43.739   9.410  11.017  0.00  0.00    +0.000 C 
ATOM      8  F   UNL     1      42.545   8.820  10.730  0.00  0.00    +0.000 F 
ATOM      9  F   UNL     1      43.448  10.446  11.849  0.00  0.00    +0.000 F 
ATOM     10  F   UNL     1      44.167   9.969   9.851  0.00  0.00    +0.000 F 
ENDBRANCH   5   7
BRANCH   1  11
ATOM     11  O   UNL     1      47.723   8.618  13.707  0.00  0.00    +0.000 OA
BRANCH  11  13
ATOM     12  C   UNL     1      49.112   8.195  11.733  0.00  0.00    +0.000 C 
ATOM     13  C   UNL     1      49.087   8.640  13.198  0.00  0.00    +0.000 C 
ATOM     14  C   UNL     1      49.988   9.851  13.581  0.00  0.00    +0.000 C 
ATOM     15  C   UNL     1      50.615   9.014  14.703  0.00  0.00    +0.000 C 
ATOM     16  C   UNL     1      50.055   7.749  14.036  0.00  0.00    +0.000 C 
BRANCH  15  17
ATOM     17  O   UNL     1      50.160   9.287  16.043  0.00  0.00    +0.000 OA
ATOM     18  H   UNL     1      50.717   8.745  16.628  0.00  0.00    +0.000 HD
ENDBRANCH  15  17
ENDBRANCH  11  13
ENDBRANCH   1  11
BRANCH   3  19
ATOM     19  C   UNL     1      45.429   4.661  11.763  0.00  0.00    +0.000 C 
BRANCH  19  20
ATOM     20  C   UNL     1      44.003   4.105  11.794  0.00  0.00    +0.000 C 
BRANCH  20  21
ATOM     21  N   UNL     1      43.603   3.500  10.530  0.00  0.00    +0.000 N 
ATOM     22  H   UNL     1      42.987   2.692  10.619  0.00  0.00    +0.000 HD
BRANCH  21  23
ATOM     23  C   UNL     1      44.599   3.303   9.561  0.00  0.00    +0.000 A 
ATOM     24  C   UNL     1      45.044   4.300   8.685  0.00  0.00    +0.000 A 
ATOM     25  C   UNL     1      45.984   4.019   7.694  0.00  0.00    +0.000 A 
ATOM     26  C   UNL     1      46.441   2.718   7.583  0.00  0.00    +0.000 A 
ATOM     27  N   UNL     1      46.029   1.699   8.384  0.00  0.00    +0.000 NA
ATOM     28  C   UNL     1      45.118   2.023   9.336  0.00  0.00    +0.000 A 
BRANCH  26  29
ATOM     29  C   UNL     1      47.434   2.378   6.514  0.00  0.00    +0.000 C 
ATOM     30  N   UNL     1      47.334   3.125   5.371  0.00  0.00    +0.000 N 
ATOM     31  O   UNL     1      48.279   1.505   6.644  0.00  0.00    +0.000 OA
ATOM     32  H   UNL     1      46.637   3.858   5.318  0.00  0.00    +0.000 HD
ATOM     33  H   UNL     1      47.985   2.969   4.617  0.00  0.00    +0.000 HD
ENDBRANCH  26  29
ENDBRANCH  21  23
ENDBRANCH  20  21
ENDBRANCH  19  20
ENDBRANCH   3  19
TORSDOF 9
ENDMDL
MODEL 7
REMARK VINA RESULT:    -7.077      2.965      4.198
REMARK INTER + INTRA:         -11.248
REMARK INTER:                 -10.178
REMARK INTRA:                  -1.070
REMARK UNBOUND:                -0.654
REMARK  Name = 
REMARK  10 active torsions:
REMARK  status: ('A' for Active; 'I' for Inactive)
REMARK    1  A    between atoms: C_1  and  C_2
REMARK    2  A    between atoms: C_2  and  O_3
REMARK    3  A    between atoms: O_3  and  C_4
REMARK    4  A    between atoms: C_6  and  C_7
REMARK    5  A    between atoms: C_7  and  C_8
REMARK    6  A    between atoms: C_8  and  N_9
REMARK    7  A    between atoms: N_9  and  C_10
REMARK    8  A    between atoms: C_13  and  C_14
REMARK    9  A    between atoms: C_20  and  C_21
REMARK   10  A    between atoms: C_27  and  O_28
REMARK                            x       y       z     vdW  Elec       q    Type
REMARK                         _______ _______ _______ _____ _____    ______ ____
ROOT
ATOM      1  C   UNL     1      48.196   6.491  14.226  0.00  0.00    +0.000 A 
ATOM      2  C   UNL     1      47.096   6.116  13.455  0.00  0.00    +0.000 A 
ATOM      3  C   UNL     1      46.251   5.071  13.857  0.00  0.00    +0.000 A 
ATOM      4  C   UNL     1      46.581   4.363  15.022  0.00  0.00    +0.000 A 
ATOM      5  C   UNL     1      47.722   4.680  15.776  0.00  0.00    +0.000 A 
ATOM      6  C   UNL     1      48.514   5.764  15.375  0.00  0.00    +0.000 A 
ENDROOT
BRANCH   5   7
ATOM      7  C   UNL     1      48.085   3.856  16.986  0.00  0.00    +0.000 C 
ATOM      8  F   UNL     1      49.428   3.773  17.200  0.00  0.00    +0.000 F 
ATOM      9  F   UNL     1      47.559   4.360  18.136  0.00  0.00    +0.000 F 
ATOM     10  F   UNL     1      47.644   2.570  16.901  0.00  0.00    +0.000 F 
ENDBRANCH   5   7
BRANCH   1  11
ATOM     11  O   UNL     1      49.027   7.555  13.960  0.00  0.00    +0.000 OA
BRANCH  11  13
ATOM     12  C   UNL     1      47.916   9.583  13.147  0.00  0.00    +0.000 C 
ATOM     13  C   UNL     1      48.644   8.914  14.316  0.00  0.00    +0.000 C 
ATOM     14  C   UNL     1      48.062   9.159  15.739  0.00  0.00    +0.000 C 
ATOM     15  C   UNL     1      49.446   9.619  16.213  0.00  0.00    +0.000 C 
ATOM     16  C   UNL     1      49.863   9.788  14.745  0.00  0.00    +0.000 C 
BRANCH  15  17
ATOM     17  O   UNL     1      50.207   8.676  16.992  0.00  0.00    +0.000 OA
ATOM     18  H   UNL     1      50.416   9.129  17.829  0.00  0.00    +0.000 HD
ENDBRANCH  15  17
ENDBRANCH  11  13
ENDBRANCH   1  11
BRANCH   3  19
ATOM     19  C   UNL     1      45.027   4.761  13.013  0.00  0.00    +0.000 C 
BRANCH  19  20
ATOM     20  C   UNL     1      45.156   5.176  11.545  0.00  0.00    +0.000 C 
BRANCH  20  21
ATOM     21  N   UNL     1      44.398   4.317  10.644  0.00  0.00    +0.000 N 
ATOM     22  H   UNL     1      43.802   3.633  11.108  0.00  0.00    +0.000 HD
BRANCH  21  23
ATOM     23  C   UNL     1      45.078   3.770   9.545  0.00  0.00    +0.000 A 
ATOM     24  C   UNL     1      45.232   2.396   9.326  0.00  0.00    +0.000 A 
ATOM     25  C   UNL     1      45.983   1.918   8.254  0.00  0.00    +0.000 A 
ATOM     26  C   UNL     1      46.598   2.844   7.429  0.00  0.00    +0.000 A 
ATOM     27  N   UNL     1      46.510   4.190   7.602  0.00  0.00    +0.000 NA
ATOM     28  C   UNL     1      45.764   4.606   8.656  0.00  0.00    +0.000 A 
BRANCH  26  29
ATOM     29  C   UNL     1      47.432   2.363   6.281  0.00  0.00    +0.000 C 
ATOM     30  N   UNL     1      47.254   3.046   5.108  0.00  0.00    +0.000 N 
ATOM     31  O   UNL     1      48.222   1.436   6.375  0.00  0.00    +0.000 OA
ATOM     32  H   UNL     1      46.610   3.827   5.084  0.00  0.00    +0.000 HD
ATOM     33  H   UNL     1      47.799   2.795   4.299  0.00  0.00    +0.000 HD
ENDBRANCH  26  29
ENDBRANCH  21  23
ENDBRANCH  20  21
ENDBRANCH  19  20
ENDBRANCH   3  19
TORSDOF 9
ENDMDL
MODEL 8
REMARK VINA RESULT:    -6.968      3.351      4.866
REMARK INTER + INTRA:         -11.084
REMARK INTER:                  -9.922
REMARK INTRA:                  -1.163
REMARK UNBOUND:                -0.654
REMARK  Name = 
REMARK  10 active torsions:
REMARK  status: ('A' for Active; 'I' for Inactive)
REMARK    1  A    between atoms: C_1  and  C_2
REMARK    2  A    between atoms: C_2  and  O_3
REMARK    3  A    between atoms: O_3  and  C_4
REMARK    4  A    between atoms: C_6  and  C_7
REMARK    5  A    between atoms: C_7  and  C_8
REMARK    6  A    between atoms: C_8  and  N_9
REMARK    7  A    between atoms: N_9  and  C_10
REMARK    8  A    between atoms: C_13  and  C_14
REMARK    9  A    between atoms: C_20  and  C_21
REMARK   10  A    between atoms: C_27  and  O_28
REMARK                            x       y       z     vdW  Elec       q    Type
REMARK                         _______ _______ _______ _____ _____    ______ ____
ROOT
ATOM      1  C   UNL     1      49.266   6.519  16.645  0.00  0.00    +0.000 A 
ATOM      2  C   UNL     1      49.053   6.965  15.340  0.00  0.00    +0.000 A 
ATOM      3  C   UNL     1      48.549   8.249  15.085  0.00  0.00    +0.000 A 
ATOM      4  C   UNL     1      48.197   9.052  16.178  0.00  0.00    +0.000 A 
ATOM      5  C   UNL     1      48.338   8.598  17.499  0.00  0.00    +0.000 A 
ATOM      6  C   UNL     1      48.895   7.331  17.719  0.00  0.00    +0.000 A 
ENDROOT
BRANCH   5   7
ATOM      7  C   UNL     1      47.887   9.462  18.651  0.00  0.00    +0.000 C 
ATOM      8  F   UNL     1      47.334  10.643  18.256  0.00  0.00    +0.000 F 
ATOM      9  F   UNL     1      46.944   8.852  19.420  0.00  0.00    +0.000 F 
ATOM     10  F   UNL     1      48.906   9.793  19.492  0.00  0.00    +0.000 F 
ENDBRANCH   5   7
BRANCH   1  11
ATOM     11  O   UNL     1      49.836   5.317  16.991  0.00  0.00    +0.000 OA
BRANCH  11  13
ATOM     12  C   UNL     1      49.436   4.385  19.223  0.00  0.00    +0.000 C 
ATOM     13  C   UNL     1      49.084   4.315  17.734  0.00  0.00    +0.000 C 
ATOM     14  C   UNL     1      47.583   4.116  17.375  0.00  0.00    +0.000 C 
ATOM     15  C   UNL     1      47.964   2.916  16.498  0.00  0.00    +0.000 C 
ATOM     16  C   UNL     1      49.327   2.868  17.204  0.00  0.00    +0.000 C 
BRANCH  15  17
ATOM     17  O   UNL     1      47.986   3.138  15.075  0.00  0.00    +0.000 OA
ATOM     18  H   UNL     1      47.250   2.613  14.713  0.00  0.00    +0.000 HD
ENDBRANCH  15  17
ENDBRANCH  11  13
ENDBRANCH   1  11
BRANCH   3  19
ATOM     19  C   UNL     1      48.412   8.700  13.641  0.00  0.00    +0.000 C 
BRANCH  19  20
ATOM     20  C   UNL     1      47.772   7.661  12.717  0.00  0.00    +0.000 C 
BRANCH  20  21
ATOM     21  N   UNL     1      46.407   7.324  13.102  0.00  0.00    +0.000 N 
ATOM     22  H   UNL     1      46.216   7.392  14.101  0.00  0.00    +0.000 HD
BRANCH  21  23
ATOM     23  C   UNL     1      45.836   6.178  12.529  0.00  0.00    +0.000 A 
ATOM     24  C   UNL     1      45.523   6.056  11.170  0.00  0.00    +0.000 A 
ATOM     25  C   UNL     1      44.887   4.918  10.677  0.00  0.00    +0.000 A 
ATOM     26  C   UNL     1      44.546   3.924  11.578  0.00  0.00    +0.000 A 
ATOM     27  N   UNL     1      44.797   3.992  12.913  0.00  0.00    +0.000 NA
ATOM     28  C   UNL     1      45.422   5.117  13.343  0.00  0.00    +0.000 A 
BRANCH  26  29
ATOM     29  C   UNL     1      43.840   2.698  11.085  0.00  0.00    +0.000 C 
ATOM     30  N   UNL     1      44.339   2.168   9.926  0.00  0.00    +0.000 N 
ATOM     31  O   UNL     1      42.893   2.195  11.670  0.00  0.00    +0.000 OA
ATOM     32  H   UNL     1      45.144   2.602   9.490  0.00  0.00    +0.000 HD
ATOM     33  H   UNL     1      43.930   1.329   9.546  0.00  0.00    +0.000 HD
ENDBRANCH  26  29
ENDBRANCH  21  23
ENDBRANCH  20  21
ENDBRANCH  19  20
ENDBRANCH   3  19
TORSDOF 9
ENDMDL
MODEL 9
REMARK VINA RESULT:    -6.903      4.240      7.687
REMARK INTER + INTRA:         -10.987
REMARK INTER:                  -9.937
REMARK INTRA:                  -1.050
REMARK UNBOUND:                -0.654
REMARK  Name = 
REMARK  10 active torsions:
REMARK  status: ('A' for Active; 'I' for Inactive)
REMARK    1  A    between atoms: C_1  and  C_2
REMARK    2  A    between atoms: C_2  and  O_3
REMARK    3  A    between atoms: O_3  and  C_4
REMARK    4  A    between atoms: C_6  and  C_7
REMARK    5  A    between atoms: C_7  and  C_8
REMARK    6  A    between atoms: C_8  and  N_9
REMARK    7  A    between atoms: N_9  and  C_10
REMARK    8  A    between atoms: C_13  and  C_14
REMARK    9  A    between atoms: C_20  and  C_21
REMARK   10  A    between atoms: C_27  and  O_28
REMARK                            x       y       z     vdW  Elec       q    Type
REMARK                         _______ _______ _______ _____ _____    ______ ____
ROOT
ATOM      1  C   UNL     1      46.506   6.032  12.122  0.00  0.00    +0.000 A 
ATOM      2  C   UNL     1      47.064   5.539  13.302  0.00  0.00    +0.000 A 
ATOM      3  C   UNL     1      47.806   6.369  14.156  0.00  0.00    +0.000 A 
ATOM      4  C   UNL     1      48.034   7.694  13.758  0.00  0.00    +0.000 A 
ATOM      5  C   UNL     1      47.540   8.191  12.542  0.00  0.00    +0.000 A 
ATOM      6  C   UNL     1      46.758   7.351  11.739  0.00  0.00    +0.000 A 
ENDROOT
BRANCH   5   7
ATOM      7  C   UNL     1      47.861   9.602  12.113  0.00  0.00    +0.000 C 
ATOM      8  F   UNL     1      46.781  10.276  11.625  0.00  0.00    +0.000 F 
ATOM      9  F   UNL     1      48.337  10.362  13.137  0.00  0.00    +0.000 F 
ATOM     10  F   UNL     1      48.804   9.654  11.133  0.00  0.00    +0.000 F 
ENDBRANCH   5   7
BRANCH   1  11
ATOM     11  O   UNL     1      45.693   5.322  11.270  0.00  0.00    +0.000 OA
BRANCH  11  13
ATOM     12  C   UNL     1      44.838   3.185  12.111  0.00  0.00    +0.000 C 
ATOM     13  C   UNL     1      44.505   4.638  11.760  0.00  0.00    +0.000 C 
ATOM     14  C   UNL     1      43.577   5.405  12.747  0.00  0.00    +0.000 C 
ATOM     15  C   UNL     1      42.658   5.775  11.576  0.00  0.00    +0.000 C 
ATOM     16  C   UNL     1      43.327   4.675  10.739  0.00  0.00    +0.000 C 
BRANCH  15  17
ATOM     17  O   UNL     1      42.766   7.120  11.072  0.00  0.00    +0.000 OA
ATOM     18  H   UNL     1      43.709   7.252  10.868  0.00  0.00    +0.000 HD
ENDBRANCH  15  17
ENDBRANCH  11  13
ENDBRANCH   1  11
BRANCH   3  19
ATOM     19  C   UNL     1      48.322   5.790  15.461  0.00  0.00    +0.000 C 
BRANCH  19  20
ATOM     20  C   UNL     1      47.541   4.571  15.960  0.00  0.00    +0.000 C 
BRANCH  20  21
ATOM     21  N   UNL     1      47.929   4.160  17.303  0.00  0.00    +0.000 N 
ATOM     22  H   UNL     1      47.758   4.855  18.029  0.00  0.00    +0.000 HD
BRANCH  21  23
ATOM     23  C   UNL     1      49.174   3.529  17.455  0.00  0.00    +0.000 A 
ATOM     24  C   UNL     1      50.312   4.161  17.968  0.00  0.00    +0.000 A 
ATOM     25  C   UNL     1      51.538   3.500  18.023  0.00  0.00    +0.000 A 
ATOM     26  C   UNL     1      51.603   2.210  17.525  0.00  0.00    +0.000 A 
ATOM     27  N   UNL     1      50.541   1.550  16.989  0.00  0.00    +0.000 NA
ATOM     28  C   UNL     1      49.369   2.233  16.964  0.00  0.00    +0.000 A 
BRANCH  26  29
ATOM     29  C   UNL     1      52.911   1.480  17.547  0.00  0.00    +0.000 C 
ATOM     30  N   UNL     1      52.813   0.115  17.553  0.00  0.00    +0.000 N 
ATOM     31  O   UNL     1      53.991   2.051  17.552  0.00  0.00    +0.000 OA
ATOM     32  H   UNL     1      51.897  -0.316  17.519  0.00  0.00    +0.000 HD
ATOM     33  H   UNL     1      53.652  -0.444  17.543  0.00  0.00    +0.000 HD
ENDBRANCH  26  29
ENDBRANCH  21  23
ENDBRANCH  20  21
ENDBRANCH  19  20
ENDBRANCH   3  19
TORSDOF 9
ENDMDL
