MODEL 1
REMARK VINA RESULT:    -7.725      0.000      0.000
REMARK INTER + INTRA:          -9.777
REMARK INTER:                  -9.305
REMARK INTRA:                  -0.471
REMARK UNBOUND:                -0.471
REMARK  Name = 
REMARK  4 active torsions:
REMARK  status: ('A' for Active; 'I' for Inactive)
REMARK    1  A    between atoms: N_1  and  C_2
REMARK    2  A    between atoms: C_2  and  C_3
REMARK    3  A    between atoms: C_6  and  C_7
REMARK    4  A    between atoms: C_7  and  N_8
REMARK                            x       y       z     vdW  Elec       q    Type
REMARK                         _______ _______ _______ _____ _____    ______ ____
ROOT
ATOM      1  C   UNL     1      46.468   2.452   7.635  0.00  0.00    +0.000 A 
ATOM      2  C   UNL     1      45.714   1.737   8.568  0.00  0.00    +0.000 A 
ATOM      3  C   UNL     1      44.872   2.416   9.444  0.00  0.00    +0.000 A 
ATOM      4  C   UNL     1      44.800   3.806   9.371  0.00  0.00    +0.000 A 
ATOM      5  N   UNL     1      45.508   4.521   8.462  0.00  0.00    +0.000 NA
ATOM      6  C   UNL     1      46.320   3.834   7.626  0.00  0.00    +0.000 A 
ENDROOT
BRANCH   1   7
ATOM      7  C   UNL     1      47.438   1.765   6.718  0.00  0.00    +0.000 C 
BRANCH   7   8
ATOM      8  N   UNL     1      48.583   2.607   6.392  0.00  0.00    +0.000 NA
ATOM      9  H   UNL     1      48.247   3.479   5.993  0.00  0.00    +0.000 HD
ATOM     10  H   UNL     1      49.133   2.153   5.663  0.00  0.00    +0.000 HD
ENDBRANCH   7   8
ENDBRANCH   1   7
BRANCH   4  11
ATOM     11  C   UNL     1      43.861   4.565  10.264  0.00  0.00    +0.000 C 
BRANCH  11  12
ATOM     12  N   UNL     1      44.534   5.421  11.239  0.00  0.00    +0.000 N 
ATOM     13  C   UNL     1      44.662   6.784  11.103  0.00  0.00    +0.000 A 
ATOM     14  C   UNL     1      45.804   7.163  11.765  0.00  0.00    +0.000 A 
ATOM     15  C   UNL     1      46.327   6.013  12.424  0.00  0.00    +0.000 A 
ATOM     16  C   UNL     1      47.465   5.760  13.199  0.00  0.00    +0.000 A 
ATOM     17  N   UNL     1      47.654   4.547  13.774  0.00  0.00    +0.000 NA
ATOM     18  C   UNL     1      46.716   3.590  13.598  0.00  0.00    +0.000 A 
ATOM     19  C   UNL     1      45.583   3.723  12.807  0.00  0.00    +0.000 A 
ATOM     20  C   UNL     1      45.431   4.966  12.188  0.00  0.00    +0.000 A 
ENDBRANCH  11  12
ENDBRANCH   4  11
TORSDOF 4
ENDMDL
MODEL 2
REMARK VINA RESULT:    -6.643      1.213      5.895
REMARK INTER + INTRA:          -8.474
REMARK INTER:                  -8.591
REMARK INTRA:                   0.118
REMARK UNBOUND:                -0.471
REMARK  Name = 
REMARK  4 active torsions:
REMARK  status: ('A' for Active; 'I' for Inactive)
REMARK    1  A    between atoms: N_1  and  C_2
REMARK    2  A    between atoms: C_2  and  C_3
REMARK    3  A    between atoms: C_6  and  C_7
REMARK    4  A    between atoms: C_7  and  N_8
REMARK                            x       y       z     vdW  Elec       q    Type
REMARK                         _______ _______ _______ _____ _____    ______ ____
ROOT
ATOM      1  C   UNL     1      46.427   4.856  13.424  0.00  0.00    +0.000 A 
ATOM      2  C   UNL     1      46.745   5.949  12.615  0.00  0.00    +0.000 A 
ATOM      3  C   UNL     1      46.335   5.969  11.285  0.00  0.00    +0.000 A 
ATOM      4  C   UNL     1      45.609   4.888  10.786  0.00  0.00    +0.000 A 
ATOM      5  N   UNL     1      45.272   3.824  11.557  0.00  0.00    +0.000 NA
ATOM      6  C   UNL     1      45.688   3.831  12.844  0.00  0.00    +0.000 A 
ENDROOT
BRANCH   1   7
ATOM      7  C   UNL     1      46.908   4.764  14.844  0.00  0.00    +0.000 C 
BRANCH   7   8
ATOM      8  N   UNL     1      47.474   3.457  15.153  0.00  0.00    +0.000 NA
ATOM      9  H   UNL     1      47.319   3.256  16.137  0.00  0.00    +0.000 HD
ATOM     10  H   UNL     1      48.485   3.493  15.025  0.00  0.00    +0.000 HD
ENDBRANCH   7   8
ENDBRANCH   1   7
BRANCH   4  11
ATOM     11  C   UNL     1      45.104   4.901   9.372  0.00  0.00    +0.000 C 
BRANCH  11  12
ATOM     12  N   UNL     1      45.061   3.582   8.746  0.00  0.00    +0.000 N 
ATOM     13  C   UNL     1      44.258   2.553   9.183  0.00  0.00    +0.000 A 
ATOM     14  C   UNL     1      44.878   1.373   8.851  0.00  0.00    +0.000 A 
ATOM     15  C   UNL     1      46.038   1.690   8.087  0.00  0.00    +0.000 A 
ATOM     16  C   UNL     1      47.071   0.937   7.517  0.00  0.00    +0.000 A 
ATOM     17  N   UNL     1      48.021   1.533   6.754  0.00  0.00    +0.000 NA
ATOM     18  C   UNL     1      47.942   2.866   6.541  0.00  0.00    +0.000 A 
ATOM     19  C   UNL     1      46.991   3.706   7.102  0.00  0.00    +0.000 A 
ATOM     20  C   UNL     1      46.049   3.077   7.920  0.00  0.00    +0.000 A 
ENDBRANCH  11  12
ENDBRANCH   4  11
TORSDOF 4
ENDMDL
MODEL 3
REMARK VINA RESULT:    -5.700      1.738      5.492
REMARK INTER + INTRA:          -7.338
REMARK INTER:                  -6.909
REMARK INTRA:                  -0.429
REMARK UNBOUND:                -0.471
REMARK  Name = 
REMARK  4 active torsions:
REMARK  status: ('A' for Active; 'I' for Inactive)
REMARK    1  A    between atoms: N_1  and  C_2
REMARK    2  A    between atoms: C_2  and  C_3
REMARK    3  A    between atoms: C_6  and  C_7
REMARK    4  A    between atoms: C_7  and  N_8
REMARK                            x       y       z     vdW  Elec       q    Type
REMARK                         _______ _______ _______ _____ _____    ______ ____
ROOT
ATOM      1  C   UNL     1      47.779   6.810  13.145  0.00  0.00    +0.000 A 
ATOM      2  C   UNL     1      47.369   7.645  12.103  0.00  0.00    +0.000 A 
ATOM      3  C   UNL     1      46.125   7.451  11.509  0.00  0.00    +0.000 A 
ATOM      4  C   UNL     1      45.308   6.421  11.972  0.00  0.00    +0.000 A 
ATOM      5  N   UNL     1      45.675   5.610  12.995  0.00  0.00    +0.000 NA
ATOM      6  C   UNL     1      46.892   5.819  13.550  0.00  0.00    +0.000 A 
ENDROOT
BRANCH   1   7
ATOM      7  C   UNL     1      49.139   6.941  13.767  0.00  0.00    +0.000 C 
BRANCH   7   8
ATOM      8  N   UNL     1      50.140   7.408  12.816  0.00  0.00    +0.000 NA
ATOM      9  H   UNL     1      49.688   8.008  12.131  0.00  0.00    +0.000 HD
ATOM     10  H   UNL     1      50.505   6.609  12.298  0.00  0.00    +0.000 HD
ENDBRANCH   7   8
ENDBRANCH   1   7
BRANCH   4  11
ATOM     11  C   UNL     1      43.938   6.220  11.392  0.00  0.00    +0.000 C 
BRANCH  11  12
ATOM     12  N   UNL     1      43.674   4.849  10.961  0.00  0.00    +0.000 N 
ATOM     13  C   UNL     1      43.056   3.904  11.748  0.00  0.00    +0.000 A 
ATOM     14  C   UNL     1      43.515   2.671  11.356  0.00  0.00    +0.000 A 
ATOM     15  C   UNL     1      44.352   2.860  10.218  0.00  0.00    +0.000 A 
ATOM     16  C   UNL     1      45.124   2.009   9.418  0.00  0.00    +0.000 A 
ATOM     17  N   UNL     1      45.766   2.485   8.322  0.00  0.00    +0.000 NA
ATOM     18  C   UNL     1      45.632   3.793   8.007  0.00  0.00    +0.000 A 
ATOM     19  C   UNL     1      44.934   4.726   8.762  0.00  0.00    +0.000 A 
ATOM     20  C   UNL     1      44.319   4.222   9.910  0.00  0.00    +0.000 A 
ENDBRANCH  11  12
ENDBRANCH   4  11
TORSDOF 4
ENDMDL
MODEL 4
REMARK VINA RESULT:    -5.320      1.895      3.559
REMARK INTER + INTRA:          -6.880
REMARK INTER:                  -6.503
REMARK INTRA:                  -0.377
REMARK UNBOUND:                -0.471
REMARK  Name = 
REMARK  4 active torsions:
REMARK  status: ('A' for Active; 'I' for Inactive)
REMARK    1  A    between atoms: N_1  and  C_2
REMARK    2  A    between atoms: C_2  and  C_3
REMARK    3  A    between atoms: C_6  and  C_7
REMARK    4  A    between atoms: C_7  and  N_8
REMARK                            x       y       z     vdW  Elec       q    Type
REMARK                         _______ _______ _______ _____ _____    ______ ____
ROOT
ATOM      1  C   UNL     1      45.276   3.931   9.117  0.00  0.00    +0.000 A 
ATOM      2  C   UNL     1      45.674   5.249   9.351  0.00  0.00    +0.000 A 
ATOM      3  C   UNL     1      45.644   5.763  10.644  0.00  0.00    +0.000 A 
ATOM      4  C   UNL     1      45.214   4.944  11.686  0.00  0.00    +0.000 A 
ATOM      5  N   UNL     1      44.841   3.655  11.488  0.00  0.00    +0.000 NA
ATOM      6  C   UNL     1      44.876   3.185  10.220  0.00  0.00    +0.000 A 
ENDROOT
BRANCH   1   7
ATOM      7  C   UNL     1      45.229   3.360   7.730  0.00  0.00    +0.000 C 
BRANCH   7   8
ATOM      8  N   UNL     1      46.322   3.842   6.895  0.00  0.00    +0.000 NA
ATOM      9  H   UNL     1      47.198   3.719   7.397  0.00  0.00    +0.000 HD
ATOM     10  H   UNL     1      46.215   4.845   6.752  0.00  0.00    +0.000 HD
ENDBRANCH   7   8
ENDBRANCH   1   7
BRANCH   4  11
ATOM     11  C   UNL     1      45.221   5.448  13.101  0.00  0.00    +0.000 C 
BRANCH  11  12
ATOM     12  N   UNL     1      46.480   5.220  13.805  0.00  0.00    +0.000 N 
ATOM     13  C   UNL     1      46.648   4.271  14.787  0.00  0.00    +0.000 A 
ATOM     14  C   UNL     1      47.636   4.715  15.631  0.00  0.00    +0.000 A 
ATOM     15  C   UNL     1      48.169   5.918  15.082  0.00  0.00    +0.000 A 
ATOM     16  C   UNL     1      49.141   6.837  15.495  0.00  0.00    +0.000 A 
ATOM     17  N   UNL     1      49.498   7.872  14.695  0.00  0.00    +0.000 NA
ATOM     18  C   UNL     1      48.909   7.990  13.484  0.00  0.00    +0.000 A 
ATOM     19  C   UNL     1      47.901   7.166  13.006  0.00  0.00    +0.000 A 
ATOM     20  C   UNL     1      47.518   6.134  13.865  0.00  0.00    +0.000 A 
ENDBRANCH  11  12
ENDBRANCH   4  11
TORSDOF 4
ENDMDL
MODEL 5
REMARK VINA RESULT:    -5.314      3.761      7.337
REMARK INTER + INTRA:          -6.873
REMARK INTER:                  -6.530
REMARK INTRA:                  -0.343
REMARK UNBOUND:                -0.471
REMARK  Name = 
REMARK  4 active torsions:
REMARK  status: ('A' for Active; 'I' for Inactive)
REMARK    1  A    between atoms: N_1  and  C_2
REMARK    2  A    between atoms: C_2  and  C_3
REMARK    3  A    between atoms: C_6  and  C_7
REMARK    4  A    between atoms: C_7  and  N_8
REMARK                            x       y       z     vdW  Elec       q    Type
REMARK                         _______ _______ _______ _____ _____    ______ ____
ROOT
ATOM      1  C   UNL     1      50.950   2.568  17.386  0.00  0.00    +0.000 A 
ATOM      2  C   UNL     1      49.827   1.875  16.930  0.00  0.00    +0.000 A 
ATOM      3  C   UNL     1      48.690   2.578  16.541  0.00  0.00    +0.000 A 
ATOM      4  C   UNL     1      48.699   3.970  16.614  0.00  0.00    +0.000 A 
ATOM      5  N   UNL     1      49.784   4.667  17.035  0.00  0.00    +0.000 NA
ATOM      6  C   UNL     1      50.872   3.956  17.411  0.00  0.00    +0.000 A 
ENDROOT
BRANCH   1   7
ATOM      7  C   UNL     1      52.171   1.846  17.878  0.00  0.00    +0.000 C 
BRANCH   7   8
ATOM      8  N   UNL     1      51.918   0.431  18.119  0.00  0.00    +0.000 NA
ATOM      9  H   UNL     1      51.622   0.309  19.084  0.00  0.00    +0.000 HD
ATOM     10  H   UNL     1      52.792  -0.085  18.022  0.00  0.00    +0.000 HD
ENDBRANCH   7   8
ENDBRANCH   1   7
BRANCH   4  11
ATOM     11  C   UNL     1      47.510   4.762  16.151  0.00  0.00    +0.000 C 
BRANCH  11  12
ATOM     12  N   UNL     1      47.652   5.311  14.805  0.00  0.00    +0.000 N 
ATOM     13  C   UNL     1      48.234   6.528  14.531  0.00  0.00    +0.000 A 
ATOM     14  C   UNL     1      47.666   7.010  13.377  0.00  0.00    +0.000 A 
ATOM     15  C   UNL     1      46.795   6.004  12.867  0.00  0.00    +0.000 A 
ATOM     16  C   UNL     1      45.926   5.924  11.773  0.00  0.00    +0.000 A 
ATOM     17  N   UNL     1      45.272   4.769  11.493  0.00  0.00    +0.000 NA
ATOM     18  C   UNL     1      45.488   3.692  12.281  0.00  0.00    +0.000 A 
ATOM     19  C   UNL     1      46.287   3.684  13.416  0.00  0.00    +0.000 A 
ATOM     20  C   UNL     1      46.915   4.896  13.711  0.00  0.00    +0.000 A 
ENDBRANCH  11  12
ENDBRANCH   4  11
TORSDOF 4
ENDMDL
MODEL 6
REMARK VINA RESULT:    -5.124      3.075      5.160
REMARK INTER + INTRA:          -6.644
REMARK INTER:                  -6.295
REMARK INTRA:                  -0.349
REMARK UNBOUND:                -0.471
REMARK  Name = 
REMARK  4 active torsions:
REMARK  status: ('A' for Active; 'I' for Inactive)
REMARK    1  A    between atoms: N_1  and  C_2
REMARK    2  A    between atoms: C_2  and  C_3
REMARK    3  A    between atoms: C_6  and  C_7
REMARK    4  A    between atoms: C_7  and  N_8
REMARK                            x       y       z     vdW  Elec       q    Type
REMARK                         _______ _______ _______ _____ _____    ______ ____
ROOT
ATOM      1  C   UNL     1      44.806   4.028  11.317  0.00  0.00    +0.000 A 
ATOM      2  C   UNL     1      45.085   5.164  10.554  0.00  0.00    +0.000 A 
ATOM      3  C   UNL     1      45.672   6.274  11.154  0.00  0.00    +0.000 A 
ATOM      4  C   UNL     1      45.973   6.227  12.514  0.00  0.00    +0.000 A 
ATOM      5  N   UNL     1      45.730   5.129  13.272  0.00  0.00    +0.000 NA
ATOM      6  C   UNL     1      45.154   4.067  12.663  0.00  0.00    +0.000 A 
ENDROOT
BRANCH   1   7
ATOM      7  C   UNL     1      44.111   2.836  10.725  0.00  0.00    +0.000 C 
BRANCH   7   8
ATOM      8  N   UNL     1      43.063   2.317  11.595  0.00  0.00    +0.000 NA
ATOM      9  H   UNL     1      43.382   1.447  12.013  0.00  0.00    +0.000 HD
ATOM     10  H   UNL     1      42.248   2.080  11.031  0.00  0.00    +0.000 HD
ENDBRANCH   7   8
ENDBRANCH   1   7
BRANCH   4  11
ATOM     11  C   UNL     1      46.657   7.385  13.180  0.00  0.00    +0.000 C 
BRANCH  11  12
ATOM     12  N   UNL     1      48.024   7.098  13.611  0.00  0.00    +0.000 N 
ATOM     13  C   UNL     1      48.360   6.715  14.889  0.00  0.00    +0.000 A 
ATOM     14  C   UNL     1      49.645   7.136  15.126  0.00  0.00    +0.000 A 
ATOM     15  C   UNL     1      50.151   7.691  13.914  0.00  0.00    +0.000 A 
ATOM     16  C   UNL     1      51.352   8.309  13.547  0.00  0.00    +0.000 A 
ATOM     17  N   UNL     1      51.577   8.671  12.259  0.00  0.00    +0.000 NA
ATOM     18  C   UNL     1      50.627   8.408  11.335  0.00  0.00    +0.000 A 
ATOM     19  C   UNL     1      49.386   7.850  11.606  0.00  0.00    +0.000 A 
ATOM     20  C   UNL     1      49.158   7.527  12.945  0.00  0.00    +0.000 A 
ENDBRANCH  11  12
ENDBRANCH   4  11
TORSDOF 4
ENDMDL
MODEL 7
REMARK VINA RESULT:    -5.060      2.862      6.173
REMARK INTER + INTRA:          -6.566
REMARK INTER:                  -6.296
REMARK INTRA:                  -0.270
REMARK UNBOUND:                -0.471
REMARK  Name = 
REMARK  4 active torsions:
REMARK  status: ('A' for Active; 'I' for Inactive)
REMARK    1  A    between atoms: N_1  and  C_2
REMARK    2  A    between atoms: C_2  and  C_3
REMARK    3  A    between atoms: C_6  and  C_7
REMARK    4  A    between atoms: C_7  and  N_8
REMARK                            x       y       z     vdW  Elec       q    Type
REMARK                         _______ _______ _______ _____ _____    ______ ____
ROOT
ATOM      1  C   UNL     1      47.897   5.175  16.054  0.00  0.00    +0.000 A 
ATOM      2  C   UNL     1      47.018   4.444  15.252  0.00  0.00    +0.000 A 
ATOM      3  C   UNL     1      46.844   4.794  13.917  0.00  0.00    +0.000 A 
ATOM      4  C   UNL     1      47.559   5.875  13.403  0.00  0.00    +0.000 A 
ATOM      5  N   UNL     1      48.433   6.589  14.156  0.00  0.00    +0.000 NA
ATOM      6  C   UNL     1      48.576   6.228  15.452  0.00  0.00    +0.000 A 
ENDROOT
BRANCH   1   7
ATOM      7  C   UNL     1      48.062   4.873  17.515  0.00  0.00    +0.000 C 
BRANCH   7   8
ATOM      8  N   UNL     1      46.858   4.297  18.101  0.00  0.00    +0.000 NA
ATOM      9  H   UNL     1      46.109   4.982  18.054  0.00  0.00    +0.000 HD
ATOM     10  H   UNL     1      47.021   4.121  19.092  0.00  0.00    +0.000 HD
ENDBRANCH   7   8
ENDBRANCH   1   7
BRANCH   4  11
ATOM     11  C   UNL     1      47.437   6.246  11.954  0.00  0.00    +0.000 C 
BRANCH  11  12
ATOM     12  N   UNL     1      46.061   6.450  11.508  0.00  0.00    +0.000 N 
ATOM     13  C   UNL     1      45.367   7.627  11.678  0.00  0.00    +0.000 A 
ATOM     14  C   UNL     1      44.032   7.315  11.758  0.00  0.00    +0.000 A 
ATOM     15  C   UNL     1      43.897   5.917  11.513  0.00  0.00    +0.000 A 
ATOM     16  C   UNL     1      42.819   5.024  11.504  0.00  0.00    +0.000 A 
ATOM     17  N   UNL     1      42.997   3.729  11.145  0.00  0.00    +0.000 NA
ATOM     18  C   UNL     1      44.232   3.320  10.780  0.00  0.00    +0.000 A 
ATOM     19  C   UNL     1      45.372   4.111  10.806  0.00  0.00    +0.000 A 
ATOM     20  C   UNL     1      45.173   5.429  11.222  0.00  0.00    +0.000 A 
ENDBRANCH  11  12
ENDBRANCH   4  11
TORSDOF 4
ENDMDL
MODEL 8
REMARK VINA RESULT:    -4.983      2.100      3.268
REMARK INTER + INTRA:          -6.474
REMARK INTER:                  -6.344
REMARK INTRA:                  -0.130
REMARK UNBOUND:                -0.471
REMARK  Name = 
REMARK  4 active torsions:
REMARK  status: ('A' for Active; 'I' for Inactive)
REMARK    1  A    between atoms: N_1  and  C_2
REMARK    2  A    between atoms: C_2  and  C_3
REMARK    3  A    between atoms: C_6  and  C_7
REMARK    4  A    between atoms: C_7  and  N_8
REMARK                            x       y       z     vdW  Elec       q    Type
REMARK                         _______ _______ _______ _____ _____    ______ ____
ROOT
ATOM      1  C   UNL     1      45.196   3.785   9.371  0.00  0.00    +0.000 A 
ATOM      2  C   UNL     1      45.621   5.115   9.351  0.00  0.00    +0.000 A 
ATOM      3  C   UNL     1      45.501   5.898  10.496  0.00  0.00    +0.000 A 
ATOM      4  C   UNL     1      44.954   5.332  11.646  0.00  0.00    +0.000 A 
ATOM      5  N   UNL     1      44.552   4.037  11.696  0.00  0.00    +0.000 NA
ATOM      6  C   UNL     1      44.677   3.303  10.567  0.00  0.00    +0.000 A 
ENDROOT
BRANCH   1   7
ATOM      7  C   UNL     1      45.245   2.927   8.140  0.00  0.00    +0.000 C 
BRANCH   7   8
ATOM      8  N   UNL     1      46.001   1.698   8.351  0.00  0.00    +0.000 NA
ATOM      9  H   UNL     1      46.000   1.159   7.489  0.00  0.00    +0.000 HD
ATOM     10  H   UNL     1      45.519   1.127   9.045  0.00  0.00    +0.000 HD
ENDBRANCH   7   8
ENDBRANCH   1   7
BRANCH   4  11
ATOM     11  C   UNL     1      44.860   6.131  12.914  0.00  0.00    +0.000 C 
BRANCH  11  12
ATOM     12  N   UNL     1      45.609   7.384  12.881  0.00  0.00    +0.000 N 
ATOM     13  C   UNL     1      45.063   8.594  12.514  0.00  0.00    +0.000 A 
ATOM     14  C   UNL     1      46.072   9.363  11.987  0.00  0.00    +0.000 A 
ATOM     15  C   UNL     1      47.294   8.645  12.145  0.00  0.00    +0.000 A 
ATOM     16  C   UNL     1      48.623   8.882  11.776  0.00  0.00    +0.000 A 
ATOM     17  N   UNL     1      49.606   8.025  12.148  0.00  0.00    +0.000 NA
ATOM     18  C   UNL     1      49.281   6.947  12.894  0.00  0.00    +0.000 A 
ATOM     19  C   UNL     1      47.991   6.596  13.265  0.00  0.00    +0.000 A 
ATOM     20  C   UNL     1      46.989   7.468  12.833  0.00  0.00    +0.000 A 
ENDBRANCH  11  12
ENDBRANCH   4  11
TORSDOF 4
ENDMDL
MODEL 9
REMARK VINA RESULT:    -4.951      4.061      7.233
REMARK INTER + INTRA:          -6.435
REMARK INTER:                  -6.050
REMARK INTRA:                  -0.385
REMARK UNBOUND:                -0.471
REMARK  Name = 
REMARK  4 active torsions:
REMARK  status: ('A' for Active; 'I' for Inactive)
REMARK    1  A    between atoms: N_1  and  C_2
REMARK    2  A    between atoms: C_2  and  C_3
REMARK    3  A    between atoms: C_6  and  C_7
REMARK    4  A    between atoms: C_7  and  N_8
REMARK                            x       y       z     vdW  Elec       q    Type
REMARK                         _______ _______ _______ _____ _____    ______ ____
ROOT
ATOM      1  C   UNL     1      48.351   4.743  17.796  0.00  0.00    +0.000 A 
ATOM      2  C   UNL     1      47.559   3.681  17.357  0.00  0.00    +0.000 A 
ATOM      3  C   UNL     1      47.143   3.630  16.029  0.00  0.00    +0.000 A 
ATOM      4  C   UNL     1      47.531   4.649  15.160  0.00  0.00    +0.000 A 
ATOM      5  N   UNL     1      48.316   5.681  15.559  0.00  0.00    +0.000 NA
ATOM      6  C   UNL     1      48.701   5.705  16.856  0.00  0.00    +0.000 A 
ENDROOT
BRANCH   1   7
ATOM      7  C   UNL     1      48.764   4.872  19.234  0.00  0.00    +0.000 C 
BRANCH   7   8
ATOM      8  N   UNL     1      48.510   3.654  19.994  0.00  0.00    +0.000 NA
ATOM      9  H   UNL     1      47.670   3.783  20.551  0.00  0.00    +0.000 HD
ATOM     10  H   UNL     1      49.272   3.510  20.656  0.00  0.00    +0.000 HD
ENDBRANCH   7   8
ENDBRANCH   1   7
BRANCH   4  11
ATOM     11  C   UNL     1      47.146   4.597  13.710  0.00  0.00    +0.000 C 
BRANCH  11  12
ATOM     12  N   UNL     1      45.839   5.182  13.423  0.00  0.00    +0.000 N 
ATOM     13  C   UNL     1      44.695   4.442  13.227  0.00  0.00    +0.000 A 
ATOM     14  C   UNL     1      43.870   5.163  12.398  0.00  0.00    +0.000 A 
ATOM     15  C   UNL     1      44.480   6.431  12.173  0.00  0.00    +0.000 A 
ATOM     16  C   UNL     1      44.152   7.552  11.401  0.00  0.00    +0.000 A 
ATOM     17  N   UNL     1      44.910   8.675  11.457  0.00  0.00    +0.000 NA
ATOM     18  C   UNL     1      45.978   8.698  12.285  0.00  0.00    +0.000 A 
ATOM     19  C   UNL     1      46.416   7.626  13.049  0.00  0.00    +0.000 A 
ATOM     20  C   UNL     1      45.646   6.465  12.941  0.00  0.00    +0.000 A 
ENDBRANCH  11  12
ENDBRANCH   4  11
TORSDOF 4
ENDMDL
