MODEL 1
REMARK VINA RESULT:    -7.637      0.000      0.000
REMARK INTER + INTRA:         -10.651
REMARK INTER:                  -9.869
REMARK INTRA:                  -0.782
REMARK UNBOUND:                -0.782
REMARK  Name = 
REMARK  5 active torsions:
REMARK  status: ('A' for Active; 'I' for Inactive)
REMARK    1  A    between atoms: C_2  and  C_5
REMARK    2  A    between atoms: C_7  and  N_8
REMARK    3  A    between atoms: N_8  and  C_9
REMARK    4  A    between atoms: C_9  and  C_10
REMARK    5  A    between atoms: C_14  and  N_15
REMARK                            x       y       z     vdW  Elec       q    Type
REMARK                         _______ _______ _______ _____ _____    ______ ____
ROOT
ATOM      1  C   UNL     1      43.529   4.955  10.578  0.00  0.00    +0.000 C 
ENDROOT
BRANCH   1   2
ATOM      2  C   UNL     1      44.442   5.821  11.408  0.00  0.00    +0.000 A 
ATOM      3  C   UNL     1      44.309   7.202  11.397  0.00  0.00    +0.000 A 
ATOM      4  N   UNL     1      45.079   8.042  12.125  0.00  0.00    +0.000 NA
ATOM      5  C   UNL     1      46.023   7.467  12.899  0.00  0.00    +0.000 A 
ATOM      6  C   UNL     1      46.280   6.097  12.998  0.00  0.00    +0.000 A 
ATOM      7  C   UNL     1      45.449   5.280  12.215  0.00  0.00    +0.000 A 
BRANCH   6   8
ATOM      8  N   UNL     1      47.263   5.586  13.809  0.00  0.00    +0.000 N 
ATOM      9  C   UNL     1      47.148   4.277  14.462  0.00  0.00    +0.000 C 
ATOM     10  C   UNL     1      47.373   4.405  15.980  0.00  0.00    +0.000 C 
ATOM     11  N   UNL     1      48.622   5.113  16.339  0.00  0.00    +0.000 NA
ATOM     12  C   UNL     1      48.631   6.437  15.678  0.00  0.00    +0.000 C 
ATOM     13  C   UNL     1      48.455   6.370  14.143  0.00  0.00    +0.000 C 
ATOM     14  H   UNL     1      49.406   4.573  15.969  0.00  0.00    +0.000 HD
ENDBRANCH   6   8
ENDBRANCH   1   2
BRANCH   1  15
ATOM     15  N   UNL     1      44.003   4.866   9.198  0.00  0.00    +0.000 N 
ATOM     16  H   UNL     1      44.423   5.723   8.853  0.00  0.00    +0.000 HD
BRANCH  15  19
ATOM     17  C   UNL     1      46.303   2.511   7.447  0.00  0.00    +0.000 A 
ATOM     18  C   UNL     1      45.601   3.686   7.748  0.00  0.00    +0.000 A 
ATOM     19  C   UNL     1      44.637   3.701   8.748  0.00  0.00    +0.000 A 
ATOM     20  C   UNL     1      44.412   2.501   9.430  0.00  0.00    +0.000 A 
ATOM     21  C   UNL     1      45.119   1.367   9.067  0.00  0.00    +0.000 A 
ATOM     22  N   UNL     1      46.054   1.339   8.093  0.00  0.00    +0.000 NA
BRANCH  17  24
ATOM     23  F   UNL     1      47.681   1.325   5.866  0.00  0.00    +0.000 F 
ATOM     24  C   UNL     1      47.383   2.564   6.372  0.00  0.00    +0.000 C 
ATOM     25  F   UNL     1      48.566   3.059   6.817  0.00  0.00    +0.000 F 
ATOM     26  F   UNL     1      47.038   3.314   5.286  0.00  0.00    +0.000 F 
ENDBRANCH  17  24
ENDBRANCH  15  19
ENDBRANCH   1  15
TORSDOF 5
ENDMDL
MODEL 2
REMARK VINA RESULT:    -7.627      1.561      2.507
REMARK INTER + INTRA:         -10.638
REMARK INTER:                  -9.876
REMARK INTRA:                  -0.761
REMARK UNBOUND:                -0.782
REMARK  Name = 
REMARK  5 active torsions:
REMARK  status: ('A' for Active; 'I' for Inactive)
REMARK    1  A    between atoms: C_2  and  C_5
REMARK    2  A    between atoms: C_7  and  N_8
REMARK    3  A    between atoms: N_8  and  C_9
REMARK    4  A    between atoms: C_9  and  C_10
REMARK    5  A    between atoms: C_14  and  N_15
REMARK                            x       y       z     vdW  Elec       q    Type
REMARK                         _______ _______ _______ _____ _____    ______ ____
ROOT
ATOM      1  C   UNL     1      43.992   5.258  10.953  0.00  0.00    +0.000 C 
ENDROOT
BRANCH   1   2
ATOM      2  C   UNL     1      45.067   5.311  12.008  0.00  0.00    +0.000 A 
ATOM      3  C   UNL     1      45.094   4.378  13.036  0.00  0.00    +0.000 A 
ATOM      4  N   UNL     1      46.033   4.352  14.008  0.00  0.00    +0.000 NA
ATOM      5  C   UNL     1      46.987   5.305  13.944  0.00  0.00    +0.000 A 
ATOM      6  C   UNL     1      47.075   6.312  12.979  0.00  0.00    +0.000 A 
ATOM      7  C   UNL     1      46.070   6.286  12.001  0.00  0.00    +0.000 A 
BRANCH   6   8
ATOM      8  N   UNL     1      48.079   7.250  12.981  0.00  0.00    +0.000 N 
ATOM      9  C   UNL     1      48.679   7.767  11.746  0.00  0.00    +0.000 C 
ATOM     10  C   UNL     1      50.211   7.609  11.780  0.00  0.00    +0.000 C 
ATOM     11  N   UNL     1      50.841   8.167  12.996  0.00  0.00    +0.000 NA
ATOM     12  C   UNL     1      50.209   7.557  14.187  0.00  0.00    +0.000 C 
ATOM     13  C   UNL     1      48.673   7.725  14.234  0.00  0.00    +0.000 C 
ATOM     14  H   UNL     1      50.648   9.169  13.018  0.00  0.00    +0.000 HD
ENDBRANCH   6   8
ENDBRANCH   1   2
BRANCH   1  15
ATOM     15  N   UNL     1      44.574   5.214   9.613  0.00  0.00    +0.000 N 
ATOM     16  H   UNL     1      45.237   5.960   9.430  0.00  0.00    +0.000 HD
BRANCH  15  19
ATOM     17  C   UNL     1      46.269   2.587   7.582  0.00  0.00    +0.000 A 
ATOM     18  C   UNL     1      45.847   3.854   8.008  0.00  0.00    +0.000 A 
ATOM     19  C   UNL     1      44.929   3.986   9.042  0.00  0.00    +0.000 A 
ATOM     20  C   UNL     1      44.461   2.806   9.629  0.00  0.00    +0.000 A 
ATOM     21  C   UNL     1      44.896   1.584   9.145  0.00  0.00    +0.000 A 
ATOM     22  N   UNL     1      45.782   1.443   8.136  0.00  0.00    +0.000 NA
BRANCH  17  24
ATOM     23  F   UNL     1      46.989   3.273   5.387  0.00  0.00    +0.000 F 
ATOM     24  C   UNL     1      47.313   2.502   6.474  0.00  0.00    +0.000 C 
ATOM     25  F   UNL     1      47.480   1.248   5.983  0.00  0.00    +0.000 F 
ATOM     26  F   UNL     1      48.551   2.933   6.854  0.00  0.00    +0.000 F 
ENDBRANCH  17  24
ENDBRANCH  15  19
ENDBRANCH   1  15
TORSDOF 5
ENDMDL
MODEL 3
REMARK VINA RESULT:    -7.229      3.958      7.784
REMARK INTER + INTRA:         -10.124
REMARK INTER:                  -9.408
REMARK INTRA:                  -0.716
REMARK UNBOUND:                -0.782
REMARK  Name = 
REMARK  5 active torsions:
REMARK  status: ('A' for Active; 'I' for Inactive)
REMARK    1  A    between atoms: C_2  and  C_5
REMARK    2  A    between atoms: C_7  and  N_8
REMARK    3  A    between atoms: N_8  and  C_9
REMARK    4  A    between atoms: C_9  and  C_10
REMARK    5  A    between atoms: C_14  and  N_15
REMARK                            x       y       z     vdW  Elec       q    Type
REMARK                         _______ _______ _______ _____ _____    ______ ____
ROOT
ATOM      1  C   UNL     1      45.496   6.203  12.900  0.00  0.00    +0.000 C 
ENDROOT
BRANCH   1   2
ATOM      2  C   UNL     1      44.903   4.958  12.292  0.00  0.00    +0.000 A 
ATOM      3  C   UNL     1      44.026   4.166  13.020  0.00  0.00    +0.000 A 
ATOM      4  N   UNL     1      43.443   3.045  12.539  0.00  0.00    +0.000 NA
ATOM      5  C   UNL     1      43.755   2.706  11.270  0.00  0.00    +0.000 A 
ATOM      6  C   UNL     1      44.631   3.398  10.429  0.00  0.00    +0.000 A 
ATOM      7  C   UNL     1      45.205   4.549  10.989  0.00  0.00    +0.000 A 
BRANCH   6   8
ATOM      8  N   UNL     1      44.900   2.989   9.146  0.00  0.00    +0.000 N 
ATOM      9  C   UNL     1      45.103   1.580   8.792  0.00  0.00    +0.000 C 
ATOM     10  C   UNL     1      46.439   1.393   8.049  0.00  0.00    +0.000 C 
ATOM     11  N   UNL     1      46.610   2.301   6.893  0.00  0.00    +0.000 NA
ATOM     12  C   UNL     1      46.438   3.698   7.351  0.00  0.00    +0.000 C 
ATOM     13  C   UNL     1      45.091   3.959   8.064  0.00  0.00    +0.000 C 
ATOM     14  H   UNL     1      45.869   2.097   6.222  0.00  0.00    +0.000 HD
ENDBRANCH   6   8
ENDBRANCH   1   2
BRANCH   1  15
ATOM     15  N   UNL     1      46.950   6.095  13.004  0.00  0.00    +0.000 N 
ATOM     16  H   UNL     1      47.452   6.734  12.396  0.00  0.00    +0.000 HD
BRANCH  15  19
ATOM     17  C   UNL     1      48.166   4.568  16.181  0.00  0.00    +0.000 A 
ATOM     18  C   UNL     1      47.419   4.751  15.009  0.00  0.00    +0.000 A 
ATOM     19  C   UNL     1      47.552   5.909  14.255  0.00  0.00    +0.000 A 
ATOM     20  C   UNL     1      48.460   6.866  14.718  0.00  0.00    +0.000 A 
ATOM     21  C   UNL     1      49.149   6.640  15.897  0.00  0.00    +0.000 A 
ATOM     22  N   UNL     1      49.023   5.521  16.642  0.00  0.00    +0.000 NA
BRANCH  17  24
ATOM     23  F   UNL     1      48.796   3.212  18.070  0.00  0.00    +0.000 F 
ATOM     24  C   UNL     1      48.014   3.258  16.944  0.00  0.00    +0.000 C 
ATOM     25  F   UNL     1      48.371   2.166  16.221  0.00  0.00    +0.000 F 
ATOM     26  F   UNL     1      46.745   3.026  17.388  0.00  0.00    +0.000 F 
ENDBRANCH  17  24
ENDBRANCH  15  19
ENDBRANCH   1  15
TORSDOF 5
ENDMDL
MODEL 4
REMARK VINA RESULT:    -6.927      2.105      2.573
REMARK INTER + INTRA:          -9.734
REMARK INTER:                  -9.097
REMARK INTRA:                  -0.637
REMARK UNBOUND:                -0.782
REMARK  Name = 
REMARK  5 active torsions:
REMARK  status: ('A' for Active; 'I' for Inactive)
REMARK    1  A    between atoms: C_2  and  C_5
REMARK    2  A    between atoms: C_7  and  N_8
REMARK    3  A    between atoms: N_8  and  C_9
REMARK    4  A    between atoms: C_9  and  C_10
REMARK    5  A    between atoms: C_14  and  N_15
REMARK                            x       y       z     vdW  Elec       q    Type
REMARK                         _______ _______ _______ _____ _____    ______ ____
ROOT
ATOM      1  C   UNL     1      44.816   5.795  11.304  0.00  0.00    +0.000 C 
ENDROOT
BRANCH   1   2
ATOM      2  C   UNL     1      45.739   6.903  11.745  0.00  0.00    +0.000 A 
ATOM      3  C   UNL     1      45.258   8.191  11.932  0.00  0.00    +0.000 A 
ATOM      4  N   UNL     1      46.019   9.231  12.340  0.00  0.00    +0.000 NA
ATOM      5  C   UNL     1      47.322   8.963  12.571  0.00  0.00    +0.000 A 
ATOM      6  C   UNL     1      47.945   7.723  12.410  0.00  0.00    +0.000 A 
ATOM      7  C   UNL     1      47.101   6.687  11.982  0.00  0.00    +0.000 A 
BRANCH   6   8
ATOM      8  N   UNL     1      49.280   7.528  12.665  0.00  0.00    +0.000 N 
ATOM      9  C   UNL     1      49.807   7.341  14.021  0.00  0.00    +0.000 C 
ATOM     10  C   UNL     1      50.939   8.346  14.308  0.00  0.00    +0.000 C 
ATOM     11  N   UNL     1      52.003   8.354  13.280  0.00  0.00    +0.000 NA
ATOM     12  C   UNL     1      51.389   8.596  11.956  0.00  0.00    +0.000 C 
ATOM     13  C   UNL     1      50.275   7.588  11.590  0.00  0.00    +0.000 C 
ATOM     14  H   UNL     1      52.430   7.427  13.262  0.00  0.00    +0.000 HD
ENDBRANCH   6   8
ENDBRANCH   1   2
BRANCH   1  15
ATOM     15  N   UNL     1      44.889   5.596   9.859  0.00  0.00    +0.000 N 
ATOM     16  H   UNL     1      45.458   6.286   9.378  0.00  0.00    +0.000 HD
BRANCH  15  19
ATOM     17  C   UNL     1      46.044   2.624   7.926  0.00  0.00    +0.000 A 
ATOM     18  C   UNL     1      45.871   3.962   8.304  0.00  0.00    +0.000 A 
ATOM     19  C   UNL     1      45.002   4.302   9.333  0.00  0.00    +0.000 A 
ATOM     20  C   UNL     1      44.324   3.255   9.964  0.00  0.00    +0.000 A 
ATOM     21  C   UNL     1      44.517   1.955   9.525  0.00  0.00    +0.000 A 
ATOM     22  N   UNL     1      45.354   1.613   8.522  0.00  0.00    +0.000 NA
BRANCH  17  24
ATOM     23  F   UNL     1      47.421   0.985   6.820  0.00  0.00    +0.000 F 
ATOM     24  C   UNL     1      47.045   2.303   6.821  0.00  0.00    +0.000 C 
ATOM     25  F   UNL     1      48.204   3.004   6.922  0.00  0.00    +0.000 F 
ATOM     26  F   UNL     1      46.566   2.533   5.565  0.00  0.00    +0.000 F 
ENDBRANCH  17  24
ENDBRANCH  15  19
ENDBRANCH   1  15
TORSDOF 5
ENDMDL
MODEL 5
REMARK VINA RESULT:    -6.753      2.277      4.031
REMARK INTER + INTRA:          -9.508
REMARK INTER:                  -8.773
REMARK INTRA:                  -0.735
REMARK UNBOUND:                -0.782
REMARK  Name = 
REMARK  5 active torsions:
REMARK  status: ('A' for Active; 'I' for Inactive)
REMARK    1  A    between atoms: C_2  and  C_5
REMARK    2  A    between atoms: C_7  and  N_8
REMARK    3  A    between atoms: N_8  and  C_9
REMARK    4  A    between atoms: C_9  and  C_10
REMARK    5  A    between atoms: C_14  and  N_15
REMARK                            x       y       z     vdW  Elec       q    Type
REMARK                         _______ _______ _______ _____ _____    ______ ____
ROOT
ATOM      1  C   UNL     1      47.090   6.428  12.163  0.00  0.00    +0.000 C 
ENDROOT
BRANCH   1   2
ATOM      2  C   UNL     1      47.900   6.463  13.434  0.00  0.00    +0.000 A 
ATOM      3  C   UNL     1      49.046   7.241  13.520  0.00  0.00    +0.000 A 
ATOM      4  N   UNL     1      49.814   7.335  14.628  0.00  0.00    +0.000 NA
ATOM      5  C   UNL     1      49.411   6.615  15.698  0.00  0.00    +0.000 A 
ATOM      6  C   UNL     1      48.292   5.780  15.749  0.00  0.00    +0.000 A 
ATOM      7  C   UNL     1      47.539   5.724  14.566  0.00  0.00    +0.000 A 
BRANCH   6   8
ATOM      8  N   UNL     1      47.946   5.078  16.877  0.00  0.00    +0.000 N 
ATOM      9  C   UNL     1      48.063   5.641  18.226  0.00  0.00    +0.000 C 
ATOM     10  C   UNL     1      48.893   4.712  19.133  0.00  0.00    +0.000 C 
ATOM     11  N   UNL     1      48.421   3.310  19.140  0.00  0.00    +0.000 NA
ATOM     12  C   UNL     1      48.379   2.810  17.748  0.00  0.00    +0.000 C 
ATOM     13  C   UNL     1      47.521   3.677  16.798  0.00  0.00    +0.000 C 
ATOM     14  H   UNL     1      47.467   3.302  19.504  0.00  0.00    +0.000 HD
ENDBRANCH   6   8
ENDBRANCH   1   2
BRANCH   1  15
ATOM     15  N   UNL     1      45.662   6.316  12.453  0.00  0.00    +0.000 N 
ATOM     16  H   UNL     1      45.167   7.202  12.419  0.00  0.00    +0.000 HD
BRANCH  15  19
ATOM     17  C   UNL     1      44.462   3.510  10.311  0.00  0.00    +0.000 A 
ATOM     18  C   UNL     1      45.128   4.683  10.694  0.00  0.00    +0.000 A 
ATOM     19  C   UNL     1      44.926   5.235  11.952  0.00  0.00    +0.000 A 
ATOM     20  C   UNL     1      44.042   4.566  12.804  0.00  0.00    +0.000 A 
ATOM     21  C   UNL     1      43.394   3.427  12.358  0.00  0.00    +0.000 A 
ATOM     22  N   UNL     1      43.577   2.884  11.135  0.00  0.00    +0.000 NA
BRANCH  17  24
ATOM     23  F   UNL     1      44.343   3.741   7.916  0.00  0.00    +0.000 F 
ATOM     24  C   UNL     1      44.756   2.923   8.935  0.00  0.00    +0.000 C 
ATOM     25  F   UNL     1      44.137   1.736   8.711  0.00  0.00    +0.000 F 
ATOM     26  F   UNL     1      46.084   2.713   8.702  0.00  0.00    +0.000 F 
ENDBRANCH  17  24
ENDBRANCH  15  19
ENDBRANCH   1  15
TORSDOF 5
ENDMDL
MODEL 6
REMARK VINA RESULT:    -6.689      3.927      7.224
REMARK INTER + INTRA:          -9.425
REMARK INTER:                  -8.671
REMARK INTRA:                  -0.755
REMARK UNBOUND:                -0.782
REMARK  Name = 
REMARK  5 active torsions:
REMARK  status: ('A' for Active; 'I' for Inactive)
REMARK    1  A    between atoms: C_2  and  C_5
REMARK    2  A    between atoms: C_7  and  N_8
REMARK    3  A    between atoms: N_8  and  C_9
REMARK    4  A    between atoms: C_9  and  C_10
REMARK    5  A    between atoms: C_14  and  N_15
REMARK                            x       y       z     vdW  Elec       q    Type
REMARK                         _______ _______ _______ _____ _____    ______ ____
ROOT
ATOM      1  C   UNL     1      44.680   6.430  12.684  0.00  0.00    +0.000 C 
ENDROOT
BRANCH   1   2
ATOM      2  C   UNL     1      44.396   5.046  12.157  0.00  0.00    +0.000 A 
ATOM      3  C   UNL     1      43.755   4.106  12.950  0.00  0.00    +0.000 A 
ATOM      4  N   UNL     1      43.454   2.852  12.543  0.00  0.00    +0.000 NA
ATOM      5  C   UNL     1      43.811   2.531  11.281  0.00  0.00    +0.000 A 
ATOM      6  C   UNL     1      44.473   3.369  10.379  0.00  0.00    +0.000 A 
ATOM      7  C   UNL     1      44.760   4.654  10.864  0.00  0.00    +0.000 A 
BRANCH   6   8
ATOM      8  N   UNL     1      44.806   2.969   9.108  0.00  0.00    +0.000 N 
ATOM      9  C   UNL     1      45.036   1.563   8.757  0.00  0.00    +0.000 C 
ATOM     10  C   UNL     1      46.408   1.391   8.078  0.00  0.00    +0.000 C 
ATOM     11  N   UNL     1      46.626   2.307   6.936  0.00  0.00    +0.000 NA
ATOM     12  C   UNL     1      46.420   3.700   7.391  0.00  0.00    +0.000 C 
ATOM     13  C   UNL     1      45.038   3.946   8.041  0.00  0.00    +0.000 C 
ATOM     14  H   UNL     1      45.919   2.101   6.229  0.00  0.00    +0.000 HD
ENDBRANCH   6   8
ENDBRANCH   1   2
BRANCH   1  15
ATOM     15  N   UNL     1      45.967   6.474  13.375  0.00  0.00    +0.000 N 
ATOM     16  H   UNL     1      46.222   5.598  13.820  0.00  0.00    +0.000 HD
BRANCH  15  19
ATOM     17  C   UNL     1      48.142   9.152  11.963  0.00  0.00    +0.000 A 
ATOM     18  C   UNL     1      46.987   8.481  12.387  0.00  0.00    +0.000 A 
ATOM     19  C   UNL     1      47.047   7.158  12.805  0.00  0.00    +0.000 A 
ATOM     20  C   UNL     1      48.303   6.543  12.784  0.00  0.00    +0.000 A 
ATOM     21  C   UNL     1      49.402   7.250  12.328  0.00  0.00    +0.000 A 
ATOM     22  N   UNL     1      49.355   8.535  11.914  0.00  0.00    +0.000 NA
BRANCH  17  24
ATOM     23  F   UNL     1      49.027  11.008  10.708  0.00  0.00    +0.000 F 
ATOM     24  C   UNL     1      48.026  10.617  11.559  0.00  0.00    +0.000 C 
ATOM     25  F   UNL     1      48.098  11.475  12.609  0.00  0.00    +0.000 F 
ATOM     26  F   UNL     1      46.868  10.914  10.901  0.00  0.00    +0.000 F 
ENDBRANCH  17  24
ENDBRANCH  15  19
ENDBRANCH   1  15
TORSDOF 5
ENDMDL
MODEL 7
REMARK VINA RESULT:    -6.658      4.304      7.797
REMARK INTER + INTRA:          -9.386
REMARK INTER:                  -8.712
REMARK INTRA:                  -0.674
REMARK UNBOUND:                -0.782
REMARK  Name = 
REMARK  5 active torsions:
REMARK  status: ('A' for Active; 'I' for Inactive)
REMARK    1  A    between atoms: C_2  and  C_5
REMARK    2  A    between atoms: C_7  and  N_8
REMARK    3  A    between atoms: N_8  and  C_9
REMARK    4  A    between atoms: C_9  and  C_10
REMARK    5  A    between atoms: C_14  and  N_15
REMARK                            x       y       z     vdW  Elec       q    Type
REMARK                         _______ _______ _______ _____ _____    ______ ____
ROOT
ATOM      1  C   UNL     1      48.158   7.010  13.437  0.00  0.00    +0.000 C 
ENDROOT
BRANCH   1   2
ATOM      2  C   UNL     1      46.828   7.106  12.734  0.00  0.00    +0.000 A 
ATOM      3  C   UNL     1      46.212   8.337  12.553  0.00  0.00    +0.000 A 
ATOM      4  N   UNL     1      45.029   8.504  11.921  0.00  0.00    +0.000 NA
ATOM      5  C   UNL     1      44.440   7.385  11.448  0.00  0.00    +0.000 A 
ATOM      6  C   UNL     1      44.935   6.084  11.571  0.00  0.00    +0.000 A 
ATOM      7  C   UNL     1      46.164   5.978  12.239  0.00  0.00    +0.000 A 
BRANCH   6   8
ATOM      8  N   UNL     1      44.275   4.992  11.063  0.00  0.00    +0.000 N 
ATOM      9  C   UNL     1      43.168   4.339  11.769  0.00  0.00    +0.000 C 
ATOM     10  C   UNL     1      43.439   2.830  11.926  0.00  0.00    +0.000 C 
ATOM     11  N   UNL     1      43.784   2.152  10.657  0.00  0.00    +0.000 NA
ATOM     12  C   UNL     1      44.936   2.846  10.040  0.00  0.00    +0.000 C 
ATOM     13  C   UNL     1      44.706   4.358   9.813  0.00  0.00    +0.000 C 
ATOM     14  H   UNL     1      42.988   2.244  10.025  0.00  0.00    +0.000 HD
ENDBRANCH   6   8
ENDBRANCH   1   2
BRANCH   1  15
ATOM     15  N   UNL     1      48.004   7.189  14.879  0.00  0.00    +0.000 N 
ATOM     16  H   UNL     1      47.053   7.404  15.165  0.00  0.00    +0.000 HD
BRANCH  15  19
ATOM     17  C   UNL     1      48.980   4.284  17.002  0.00  0.00    +0.000 A 
ATOM     18  C   UNL     1      48.184   5.145  16.234  0.00  0.00    +0.000 A 
ATOM     19  C   UNL     1      48.689   6.352  15.768  0.00  0.00    +0.000 A 
ATOM     20  C   UNL     1      50.014   6.655  16.098  0.00  0.00    +0.000 A 
ATOM     21  C   UNL     1      50.740   5.776  16.884  0.00  0.00    +0.000 A 
ATOM     22  N   UNL     1      50.258   4.603  17.347  0.00  0.00    +0.000 NA
BRANCH  17  24
ATOM     23  F   UNL     1      48.437   2.784  18.807  0.00  0.00    +0.000 F 
ATOM     24  C   UNL     1      48.390   2.951  17.447  0.00  0.00    +0.000 C 
ATOM     25  F   UNL     1      49.038   1.874  16.935  0.00  0.00    +0.000 F 
ATOM     26  F   UNL     1      47.074   2.798  17.120  0.00  0.00    +0.000 F 
ENDBRANCH  17  24
ENDBRANCH  15  19
ENDBRANCH   1  15
TORSDOF 5
ENDMDL
MODEL 8
REMARK VINA RESULT:    -6.488      3.194      6.949
REMARK INTER + INTRA:          -9.166
REMARK INTER:                  -8.425
REMARK INTRA:                  -0.741
REMARK UNBOUND:                -0.782
REMARK  Name = 
REMARK  5 active torsions:
REMARK  status: ('A' for Active; 'I' for Inactive)
REMARK    1  A    between atoms: C_2  and  C_5
REMARK    2  A    between atoms: C_7  and  N_8
REMARK    3  A    between atoms: N_8  and  C_9
REMARK    4  A    between atoms: C_9  and  C_10
REMARK    5  A    between atoms: C_14  and  N_15
REMARK                            x       y       z     vdW  Elec       q    Type
REMARK                         _______ _______ _______ _____ _____    ______ ____
ROOT
ATOM      1  C   UNL     1      44.425   6.159  11.787  0.00  0.00    +0.000 C 
ENDROOT
BRANCH   1   2
ATOM      2  C   UNL     1      44.261   4.759  11.254  0.00  0.00    +0.000 A 
ATOM      3  C   UNL     1      43.479   3.833  11.930  0.00  0.00    +0.000 A 
ATOM      4  N   UNL     1      43.273   2.566  11.508  0.00  0.00    +0.000 NA
ATOM      5  C   UNL     1      43.879   2.214  10.354  0.00  0.00    +0.000 A 
ATOM      6  C   UNL     1      44.704   3.034   9.579  0.00  0.00    +0.000 A 
ATOM      7  C   UNL     1      44.880   4.335  10.073  0.00  0.00    +0.000 A 
BRANCH   6   8
ATOM      8  N   UNL     1      45.288   2.602   8.413  0.00  0.00    +0.000 N 
ATOM      9  C   UNL     1      45.654   1.201   8.184  0.00  0.00    +0.000 C 
ATOM     10  C   UNL     1      47.136   1.086   7.777  0.00  0.00    +0.000 C 
ATOM     11  N   UNL     1      47.513   1.965   6.648  0.00  0.00    +0.000 NA
ATOM     12  C   UNL     1      47.152   3.360   6.984  0.00  0.00    +0.000 C 
ATOM     13  C   UNL     1      45.663   3.547   7.356  0.00  0.00    +0.000 C 
ATOM     14  H   UNL     1      46.962   1.686   5.835  0.00  0.00    +0.000 HD
ENDBRANCH   6   8
ENDBRANCH   1   2
BRANCH   1  15
ATOM     15  N   UNL     1      45.645   6.778  11.271  0.00  0.00    +0.000 N 
ATOM     16  H   UNL     1      45.486   7.659  10.793  0.00  0.00    +0.000 HD
BRANCH  15  19
ATOM     17  C   UNL     1      49.103   7.419  12.507  0.00  0.00    +0.000 A 
ATOM     18  C   UNL     1      48.006   7.360  11.637  0.00  0.00    +0.000 A 
ATOM     19  C   UNL     1      46.822   6.747  12.029  0.00  0.00    +0.000 A 
ATOM     20  C   UNL     1      46.784   6.205  13.317  0.00  0.00    +0.000 A 
ATOM     21  C   UNL     1      47.911   6.272  14.119  0.00  0.00    +0.000 A 
ATOM     22  N   UNL     1      49.069   6.859  13.748  0.00  0.00    +0.000 NA
BRANCH  17  24
ATOM     23  F   UNL     1      50.154   9.487  11.856  0.00  0.00    +0.000 F 
ATOM     24  C   UNL     1      50.361   8.145  12.043  0.00  0.00    +0.000 C 
ATOM     25  F   UNL     1      50.841   7.691  10.857  0.00  0.00    +0.000 F 
ATOM     26  F   UNL     1      51.396   8.069  12.930  0.00  0.00    +0.000 F 
ENDBRANCH  17  24
ENDBRANCH  15  19
ENDBRANCH   1  15
TORSDOF 5
ENDMDL
MODEL 9
REMARK VINA RESULT:    -6.287      4.356      7.910
REMARK INTER + INTRA:          -8.907
REMARK INTER:                  -8.182
REMARK INTRA:                  -0.725
REMARK UNBOUND:                -0.782
REMARK  Name = 
REMARK  5 active torsions:
REMARK  status: ('A' for Active; 'I' for Inactive)
REMARK    1  A    between atoms: C_2  and  C_5
REMARK    2  A    between atoms: C_7  and  N_8
REMARK    3  A    between atoms: N_8  and  C_9
REMARK    4  A    between atoms: C_9  and  C_10
REMARK    5  A    between atoms: C_14  and  N_15
REMARK                            x       y       z     vdW  Elec       q    Type
REMARK                         _______ _______ _______ _____ _____    ______ ____
ROOT
ATOM      1  C   UNL     1      49.316   7.303  14.300  0.00  0.00    +0.000 C 
ENDROOT
BRANCH   1   2
ATOM      2  C   UNL     1      47.949   7.445  13.680  0.00  0.00    +0.000 A 
ATOM      3  C   UNL     1      47.381   8.699  13.501  0.00  0.00    +0.000 A 
ATOM      4  N   UNL     1      46.169   8.906  12.940  0.00  0.00    +0.000 NA
ATOM      5  C   UNL     1      45.499   7.805  12.539  0.00  0.00    +0.000 A 
ATOM      6  C   UNL     1      45.940   6.485  12.670  0.00  0.00    +0.000 A 
ATOM      7  C   UNL     1      47.203   6.338  13.263  0.00  0.00    +0.000 A 
BRANCH   6   8
ATOM      8  N   UNL     1      45.198   5.413  12.238  0.00  0.00    +0.000 N 
ATOM      9  C   UNL     1      44.962   5.137  10.817  0.00  0.00    +0.000 C 
ATOM     10  C   UNL     1      43.454   4.999  10.533  0.00  0.00    +0.000 C 
ATOM     11  N   UNL     1      42.767   4.036  11.422  0.00  0.00    +0.000 NA
ATOM     12  C   UNL     1      43.019   4.418  12.829  0.00  0.00    +0.000 C 
ATOM     13  C   UNL     1      44.520   4.527  13.188  0.00  0.00    +0.000 C 
ATOM     14  H   UNL     1      43.181   3.115  11.269  0.00  0.00    +0.000 HD
ENDBRANCH   6   8
ENDBRANCH   1   2
BRANCH   1  15
ATOM     15  N   UNL     1      49.282   7.628  15.725  0.00  0.00    +0.000 N 
ATOM     16  H   UNL     1      49.081   8.604  15.917  0.00  0.00    +0.000 HD
BRANCH  15  19
ATOM     17  C   UNL     1      48.059   4.521  17.384  0.00  0.00    +0.000 A 
ATOM     18  C   UNL     1      48.513   5.385  16.378  0.00  0.00    +0.000 A 
ATOM     19  C   UNL     1      48.696   6.738  16.634  0.00  0.00    +0.000 A 
ATOM     20  C   UNL     1      48.413   7.183  17.929  0.00  0.00    +0.000 A 
ATOM     21  C   UNL     1      47.941   6.284  18.871  0.00  0.00    +0.000 A 
ATOM     22  N   UNL     1      47.753   4.969  18.632  0.00  0.00    +0.000 NA
BRANCH  17  24
ATOM     23  F   UNL     1      49.022   2.313  17.435  0.00  0.00    +0.000 F 
ATOM     24  C   UNL     1      47.920   3.038  17.060  0.00  0.00    +0.000 C 
ATOM     25  F   UNL     1      47.763   2.785  15.736  0.00  0.00    +0.000 F 
ATOM     26  F   UNL     1      46.871   2.435  17.693  0.00  0.00    +0.000 F 
ENDBRANCH  17  24
ENDBRANCH  15  19
ENDBRANCH   1  15
TORSDOF 5
ENDMDL
