MODEL 1
REMARK VINA RESULT:    -8.496      0.000      0.000
REMARK INTER + INTRA:         -12.755
REMARK INTER:                 -12.221
REMARK INTRA:                  -0.534
REMARK UNBOUND:                -0.534
REMARK  Name = 
REMARK  8 active torsions:
REMARK  status: ('A' for Active; 'I' for Inactive)
REMARK    1  A    between atoms: N_1  and  C_2
REMARK    2  A    between atoms: C_2  and  C_3
REMARK    3  A    between atoms: C_2  and  C_24
REMARK    4  A    between atoms: C_3  and  C_4
REMARK    5  A    between atoms: C_7  and  C_8
REMARK    6  A    between atoms: C_8  and  N_9
REMARK    7  A    between atoms: C_10  and  C_12
REMARK    8  A    between atoms: N_26  and  C_27
REMARK                            x       y       z     vdW  Elec       q    Type
REMARK                         _______ _______ _______ _____ _____    ______ ____
ROOT
ATOM      1  C   UNL     1      44.923   5.161  12.740  0.00  0.00    +0.000 A 
ATOM      2  C   UNL     1      46.027   4.589  13.382  0.00  0.00    +0.000 A 
ATOM      3  C   UNL     1      47.094   5.389  13.805  0.00  0.00    +0.000 A 
ATOM      4  C   UNL     1      47.074   6.774  13.594  0.00  0.00    +0.000 A 
ATOM      5  C   UNL     1      46.009   7.331  12.876  0.00  0.00    +0.000 A 
ATOM      6  C   UNL     1      44.943   6.534  12.458  0.00  0.00    +0.000 A 
ENDROOT
BRANCH   1   7
ATOM      7  C   UNL     1      43.721   4.333  12.348  0.00  0.00    +0.000 C 
BRANCH   7   8
ATOM      8  C   UNL     1      44.038   2.973  11.680  0.00  0.00    +0.000 C 
BRANCH   8   9
ATOM      9  C   UNL     1      44.370   3.221  10.192  0.00  0.00    +0.000 C 
ATOM     10  O   UNL     1      43.905   4.160   9.555  0.00  0.00    +0.000 OA
ATOM     11  N   UNL     1      45.220   2.286   9.624  0.00  0.00    +0.000 N 
ATOM     12  H   UNL     1      45.646   1.585  10.214  0.00  0.00    +0.000 HD
BRANCH  11  13
ATOM     13  C   UNL     1      45.620   2.352   8.216  0.00  0.00    +0.000 C 
ATOM     14  C   UNL     1      46.615   1.237   7.852  0.00  0.00    +0.000 C 
ATOM     15  C   UNL     1      47.249   1.445   6.481  0.00  0.00    +0.000 C 
ATOM     16  C   UNL     1      47.740   2.876   6.329  0.00  0.00    +0.000 C 
ATOM     17  O   UNL     1      46.636   3.769   6.470  0.00  0.00    +0.000 OA
ATOM     18  C   UNL     1      46.128   3.750   7.806  0.00  0.00    +0.000 C 
ENDBRANCH  11  13
ENDBRANCH   8   9
BRANCH   8  19
ATOM     19  N   UNL     1      42.906   2.022  11.768  0.00  0.00    +0.000 NA
ATOM     20  H   UNL     1      42.573   1.772  10.842  0.00  0.00    +0.000 HD
ATOM     21  H   UNL     1      42.128   2.478  12.245  0.00  0.00    +0.000 HD
ENDBRANCH   8  19
ENDBRANCH   7   8
ENDBRANCH   1   7
BRANCH   4  22
ATOM     22  C   UNL     1      48.183   7.656  14.106  0.00  0.00    +0.000 C 
BRANCH  22  23
ATOM     23  N   UNL     1      48.239   7.634  15.542  0.00  0.00    +0.000 N 
ATOM     24  C   UNL     1      49.198   6.925  16.216  0.00  0.00    +0.000 C 
ATOM     25  O   UNL     1      50.088   6.310  15.638  0.00  0.00    +0.000 OA
ATOM     26  H   UNL     1      47.394   7.915  16.029  0.00  0.00    +0.000 HD
BRANCH  24  27
ATOM     27  C   UNL     1      49.144   7.005  17.681  0.00  0.00    +0.000 A 
ATOM     28  C   UNL     1      49.290   8.232  18.315  0.00  0.00    +0.000 A 
ATOM     29  S   UNL     1      49.117   8.150  20.009  0.00  0.00    +0.000 S 
ATOM     30  C   UNL     1      48.898   6.462  19.960  0.00  0.00    +0.000 A 
ATOM     31  N   UNL     1      48.707   5.750  21.103  0.00  0.00    +0.000 NA
ATOM     32  C   UNL     1      48.582   4.476  20.923  0.00  0.00    +0.000 A 
ATOM     33  N   UNL     1      48.628   3.853  19.703  0.00  0.00    +0.000 N 
ATOM     34  C   UNL     1      48.799   4.535  18.522  0.00  0.00    +0.000 A 
ATOM     35  O   UNL     1      48.811   3.947  17.447  0.00  0.00    +0.000 OA
ATOM     36  C   UNL     1      48.946   5.972  18.671  0.00  0.00    +0.000 A 
ATOM     37  H   UNL     1      48.521   2.852  19.626  0.00  0.00    +0.000 HD
ENDBRANCH  24  27
ENDBRANCH  22  23
ENDBRANCH   4  22
TORSDOF 8
ENDMDL
MODEL 2
REMARK VINA RESULT:    -8.178      1.512      1.676
REMARK INTER + INTRA:         -12.297
REMARK INTER:                 -11.307
REMARK INTRA:                  -0.990
REMARK UNBOUND:                -0.534
REMARK  Name = 
REMARK  8 active torsions:
REMARK  status: ('A' for Active; 'I' for Inactive)
REMARK    1  A    between atoms: N_1  and  C_2
REMARK    2  A    between atoms: C_2  and  C_3
REMARK    3  A    between atoms: C_2  and  C_24
REMARK    4  A    between atoms: C_3  and  C_4
REMARK    5  A    between atoms: C_7  and  C_8
REMARK    6  A    between atoms: C_8  and  N_9
REMARK    7  A    between atoms: C_10  and  C_12
REMARK    8  A    between atoms: N_26  and  C_27
REMARK                            x       y       z     vdW  Elec       q    Type
REMARK                         _______ _______ _______ _____ _____    ______ ____
ROOT
ATOM      1  C   UNL     1      45.130   6.348  11.508  0.00  0.00    +0.000 A 
ATOM      2  C   UNL     1      46.377   5.830  11.876  0.00  0.00    +0.000 A 
ATOM      3  C   UNL     1      47.259   6.589  12.653  0.00  0.00    +0.000 A 
ATOM      4  C   UNL     1      46.908   7.878  13.076  0.00  0.00    +0.000 A 
ATOM      5  C   UNL     1      45.696   8.425  12.635  0.00  0.00    +0.000 A 
ATOM      6  C   UNL     1      44.815   7.666  11.864  0.00  0.00    +0.000 A 
ENDROOT
BRANCH   1   7
ATOM      7  C   UNL     1      44.126   5.519  10.741  0.00  0.00    +0.000 C 
BRANCH   7   8
ATOM      8  C   UNL     1      44.026   4.033  11.164  0.00  0.00    +0.000 C 
BRANCH   8   9
ATOM      9  C   UNL     1      44.330   3.149   9.934  0.00  0.00    +0.000 C 
ATOM     10  O   UNL     1      43.814   2.050   9.763  0.00  0.00    +0.000 OA
ATOM     11  N   UNL     1      45.249   3.685   9.047  0.00  0.00    +0.000 N 
ATOM     12  H   UNL     1      45.575   4.632   9.189  0.00  0.00    +0.000 HD
BRANCH  11  13
ATOM     13  C   UNL     1      45.674   2.972   7.840  0.00  0.00    +0.000 C 
ATOM     14  C   UNL     1      46.421   1.671   8.180  0.00  0.00    +0.000 C 
ATOM     15  C   UNL     1      47.104   1.057   6.962  0.00  0.00    +0.000 C 
ATOM     16  C   UNL     1      47.883   2.113   6.195  0.00  0.00    +0.000 C 
ATOM     17  O   UNL     1      46.987   3.134   5.758  0.00  0.00    +0.000 OA
ATOM     18  C   UNL     1      46.467   3.869   6.867  0.00  0.00    +0.000 C 
ENDBRANCH  11  13
ENDBRANCH   8   9
BRANCH   8  19
ATOM     19  N   UNL     1      42.686   3.683  11.688  0.00  0.00    +0.000 NA
ATOM     20  H   UNL     1      42.700   3.628  12.703  0.00  0.00    +0.000 HD
ATOM     21  H   UNL     1      42.431   2.755  11.350  0.00  0.00    +0.000 HD
ENDBRANCH   8  19
ENDBRANCH   7   8
ENDBRANCH   1   7
BRANCH   4  22
ATOM     22  C   UNL     1      47.817   8.679  13.971  0.00  0.00    +0.000 C 
BRANCH  22  23
ATOM     23  N   UNL     1      48.165   7.936  15.151  0.00  0.00    +0.000 N 
ATOM     24  C   UNL     1      49.425   7.437  15.344  0.00  0.00    +0.000 C 
ATOM     25  O   UNL     1      50.339   7.632  14.549  0.00  0.00    +0.000 OA
ATOM     26  H   UNL     1      47.391   7.555  15.686  0.00  0.00    +0.000 HD
BRANCH  24  27
ATOM     27  C   UNL     1      49.643   6.711  16.602  0.00  0.00    +0.000 A 
ATOM     28  C   UNL     1      50.534   7.208  17.544  0.00  0.00    +0.000 A 
ATOM     29  S   UNL     1      50.599   6.284  18.976  0.00  0.00    +0.000 S 
ATOM     30  C   UNL     1      49.479   5.157  18.365  0.00  0.00    +0.000 A 
ATOM     31  N   UNL     1      49.099   4.080  19.104  0.00  0.00    +0.000 NA
ATOM     32  C   UNL     1      48.266   3.291  18.507  0.00  0.00    +0.000 A 
ATOM     33  N   UNL     1      47.779   3.486  17.241  0.00  0.00    +0.000 N 
ATOM     34  C   UNL     1      48.120   4.569  16.467  0.00  0.00    +0.000 A 
ATOM     35  O   UNL     1      47.646   4.723  15.348  0.00  0.00    +0.000 OA
ATOM     36  C   UNL     1      49.057   5.486  17.092  0.00  0.00    +0.000 A 
ATOM     37  H   UNL     1      47.126   2.834  16.830  0.00  0.00    +0.000 HD
ENDBRANCH  24  27
ENDBRANCH  22  23
ENDBRANCH   4  22
TORSDOF 8
ENDMDL
MODEL 3
REMARK VINA RESULT:    -7.901      1.908      2.184
REMARK INTER + INTRA:         -11.899
REMARK INTER:                 -11.105
REMARK INTRA:                  -0.794
REMARK UNBOUND:                -0.534
REMARK  Name = 
REMARK  8 active torsions:
REMARK  status: ('A' for Active; 'I' for Inactive)
REMARK    1  A    between atoms: N_1  and  C_2
REMARK    2  A    between atoms: C_2  and  C_3
REMARK    3  A    between atoms: C_2  and  C_24
REMARK    4  A    between atoms: C_3  and  C_4
REMARK    5  A    between atoms: C_7  and  C_8
REMARK    6  A    between atoms: C_8  and  N_9
REMARK    7  A    between atoms: C_10  and  C_12
REMARK    8  A    between atoms: N_26  and  C_27
REMARK                            x       y       z     vdW  Elec       q    Type
REMARK                         _______ _______ _______ _____ _____    ______ ____
ROOT
ATOM      1  C   UNL     1      45.074   5.583  12.793  0.00  0.00    +0.000 A 
ATOM      2  C   UNL     1      46.322   5.134  13.238  0.00  0.00    +0.000 A 
ATOM      3  C   UNL     1      47.349   6.046  13.505  0.00  0.00    +0.000 A 
ATOM      4  C   UNL     1      47.144   7.422  13.332  0.00  0.00    +0.000 A 
ATOM      5  C   UNL     1      45.923   7.860  12.806  0.00  0.00    +0.000 A 
ATOM      6  C   UNL     1      44.897   6.950  12.544  0.00  0.00    +0.000 A 
ENDROOT
BRANCH   1   7
ATOM      7  C   UNL     1      43.924   4.627  12.578  0.00  0.00    +0.000 C 
BRANCH   7   8
ATOM      8  C   UNL     1      44.305   3.244  11.997  0.00  0.00    +0.000 C 
BRANCH   8   9
ATOM      9  C   UNL     1      44.420   3.368  10.461  0.00  0.00    +0.000 C 
ATOM     10  O   UNL     1      43.737   4.148   9.806  0.00  0.00    +0.000 OA
ATOM     11  N   UNL     1      45.342   2.516   9.877  0.00  0.00    +0.000 N 
ATOM     12  H   UNL     1      45.942   1.958  10.470  0.00  0.00    +0.000 HD
BRANCH  11  13
ATOM     13  C   UNL     1      45.562   2.481   8.429  0.00  0.00    +0.000 C 
ATOM     14  C   UNL     1      46.462   1.304   8.017  0.00  0.00    +0.000 C 
ATOM     15  C   UNL     1      46.924   1.404   6.567  0.00  0.00    +0.000 C 
ATOM     16  C   UNL     1      47.443   2.801   6.265  0.00  0.00    +0.000 C 
ATOM     17  O   UNL     1      46.399   3.748   6.485  0.00  0.00    +0.000 OA
ATOM     18  C   UNL     1      46.065   3.830   7.871  0.00  0.00    +0.000 C 
ENDBRANCH  11  13
ENDBRANCH   8   9
BRANCH   8  19
ATOM     19  N   UNL     1      43.307   2.199  12.321  0.00  0.00    +0.000 NA
ATOM     20  H   UNL     1      42.539   2.217  11.657  0.00  0.00    +0.000 HD
ATOM     21  H   UNL     1      42.906   2.399  13.238  0.00  0.00    +0.000 HD
ENDBRANCH   8  19
ENDBRANCH   7   8
ENDBRANCH   1   7
BRANCH   4  22
ATOM     22  C   UNL     1      48.217   8.419  13.683  0.00  0.00    +0.000 C 
BRANCH  22  23
ATOM     23  N   UNL     1      49.362   7.767  14.256  0.00  0.00    +0.000 N 
ATOM     24  C   UNL     1      49.603   7.785  15.604  0.00  0.00    +0.000 C 
ATOM     25  O   UNL     1      48.836   8.314  16.402  0.00  0.00    +0.000 OA
ATOM     26  H   UNL     1      50.120   7.548  13.618  0.00  0.00    +0.000 HD
BRANCH  24  27
ATOM     27  C   UNL     1      50.802   7.065  16.051  0.00  0.00    +0.000 A 
ATOM     28  C   UNL     1      52.063   7.555  15.736  0.00  0.00    +0.000 A 
ATOM     29  S   UNL     1      53.337   6.640  16.406  0.00  0.00    +0.000 S 
ATOM     30  C   UNL     1      52.249   5.525  17.093  0.00  0.00    +0.000 A 
ATOM     31  N   UNL     1      52.701   4.459  17.806  0.00  0.00    +0.000 NA
ATOM     32  C   UNL     1      51.769   3.679  18.247  0.00  0.00    +0.000 A 
ATOM     33  N   UNL     1      50.428   3.871  18.039  0.00  0.00    +0.000 N 
ATOM     34  C   UNL     1      49.927   4.944  17.341  0.00  0.00    +0.000 A 
ATOM     35  O   UNL     1      48.720   5.097  17.195  0.00  0.00    +0.000 OA
ATOM     36  C   UNL     1      50.935   5.851  16.823  0.00  0.00    +0.000 A 
ATOM     37  H   UNL     1      49.747   3.226  18.411  0.00  0.00    +0.000 HD
ENDBRANCH  24  27
ENDBRANCH  22  23
ENDBRANCH   4  22
TORSDOF 8
ENDMDL
MODEL 4
REMARK VINA RESULT:    -7.568      5.528     10.199
REMARK INTER + INTRA:         -11.420
REMARK INTER:                 -10.729
REMARK INTRA:                  -0.691
REMARK UNBOUND:                -0.534
REMARK  Name = 
REMARK  8 active torsions:
REMARK  status: ('A' for Active; 'I' for Inactive)
REMARK    1  A    between atoms: N_1  and  C_2
REMARK    2  A    between atoms: C_2  and  C_3
REMARK    3  A    between atoms: C_2  and  C_24
REMARK    4  A    between atoms: C_3  and  C_4
REMARK    5  A    between atoms: C_7  and  C_8
REMARK    6  A    between atoms: C_8  and  N_9
REMARK    7  A    between atoms: C_10  and  C_12
REMARK    8  A    between atoms: N_26  and  C_27
REMARK                            x       y       z     vdW  Elec       q    Type
REMARK                         _______ _______ _______ _____ _____    ______ ____
ROOT
ATOM      1  C   UNL     1      50.989   2.371  17.418  0.00  0.00    +0.000 A 
ATOM      2  C   UNL     1      49.591   2.362  17.369  0.00  0.00    +0.000 A 
ATOM      3  C   UNL     1      48.877   3.563  17.289  0.00  0.00    +0.000 A 
ATOM      4  C   UNL     1      49.550   4.792  17.255  0.00  0.00    +0.000 A 
ATOM      5  C   UNL     1      50.943   4.801  17.390  0.00  0.00    +0.000 A 
ATOM      6  C   UNL     1      51.655   3.603  17.466  0.00  0.00    +0.000 A 
ENDROOT
BRANCH   1   7
ATOM      7  C   UNL     1      51.786   1.087  17.421  0.00  0.00    +0.000 C 
BRANCH   7   8
ATOM      8  C   UNL     1      53.275   1.227  17.821  0.00  0.00    +0.000 C 
BRANCH   8   9
ATOM      9  C   UNL     1      53.910  -0.181  17.855  0.00  0.00    +0.000 C 
ATOM     10  O   UNL     1      54.717  -0.567  17.016  0.00  0.00    +0.000 OA
ATOM     11  N   UNL     1      53.482  -0.985  18.899  0.00  0.00    +0.000 N 
ATOM     12  H   UNL     1      52.885  -0.589  19.613  0.00  0.00    +0.000 HD
BRANCH  11  13
ATOM     13  C   UNL     1      53.960  -2.359  19.070  0.00  0.00    +0.000 C 
ATOM     14  C   UNL     1      52.838  -3.300  19.540  0.00  0.00    +0.000 C 
ATOM     15  C   UNL     1      53.365  -4.661  19.982  0.00  0.00    +0.000 C 
ATOM     16  C   UNL     1      54.556  -4.497  20.914  0.00  0.00    +0.000 C 
ATOM     17  O   UNL     1      55.594  -3.797  20.231  0.00  0.00    +0.000 OA
ATOM     18  C   UNL     1      55.214  -2.446  19.966  0.00  0.00    +0.000 C 
ENDBRANCH  11  13
ENDBRANCH   8   9
BRANCH   8  19
ATOM     19  N   UNL     1      53.449   1.866  19.145  0.00  0.00    +0.000 NA
ATOM     20  H   UNL     1      53.366   1.179  19.889  0.00  0.00    +0.000 HD
ATOM     21  H   UNL     1      52.698   2.542  19.286  0.00  0.00    +0.000 HD
ENDBRANCH   8  19
ENDBRANCH   7   8
ENDBRANCH   1   7
BRANCH   4  22
ATOM     22  C   UNL     1      48.798   6.087  17.098  0.00  0.00    +0.000 C 
BRANCH  22  23
ATOM     23  N   UNL     1      47.896   6.029  15.981  0.00  0.00    +0.000 N 
ATOM     24  C   UNL     1      48.297   6.352  14.711  0.00  0.00    +0.000 C 
ATOM     25  O   UNL     1      49.454   6.661  14.447  0.00  0.00    +0.000 OA
ATOM     26  H   UNL     1      46.906   6.024  16.203  0.00  0.00    +0.000 HD
BRANCH  24  27
ATOM     27  C   UNL     1      47.274   6.233  13.665  0.00  0.00    +0.000 A 
ATOM     28  C   UNL     1      46.828   7.368  12.999  0.00  0.00    +0.000 A 
ATOM     29  S   UNL     1      45.702   7.035  11.762  0.00  0.00    +0.000 S 
ATOM     30  C   UNL     1      45.728   5.369  12.111  0.00  0.00    +0.000 A 
ATOM     31  N   UNL     1      44.958   4.496  11.407  0.00  0.00    +0.000 NA
ATOM     32  C   UNL     1      45.055   3.267  11.795  0.00  0.00    +0.000 A 
ATOM     33  N   UNL     1      45.854   2.833  12.820  0.00  0.00    +0.000 N 
ATOM     34  C   UNL     1      46.663   3.676  13.545  0.00  0.00    +0.000 A 
ATOM     35  O   UNL     1      47.383   3.250  14.440  0.00  0.00    +0.000 OA
ATOM     36  C   UNL     1      46.589   5.071  13.148  0.00  0.00    +0.000 A 
ATOM     37  H   UNL     1      45.888   1.857  13.075  0.00  0.00    +0.000 HD
ENDBRANCH  24  27
ENDBRANCH  22  23
ENDBRANCH   4  22
TORSDOF 8
ENDMDL
MODEL 5
REMARK VINA RESULT:    -7.461      5.664     10.383
REMARK INTER + INTRA:         -11.266
REMARK INTER:                 -10.334
REMARK INTRA:                  -0.932
REMARK UNBOUND:                -0.534
REMARK  Name = 
REMARK  8 active torsions:
REMARK  status: ('A' for Active; 'I' for Inactive)
REMARK    1  A    between atoms: N_1  and  C_2
REMARK    2  A    between atoms: C_2  and  C_3
REMARK    3  A    between atoms: C_2  and  C_24
REMARK    4  A    between atoms: C_3  and  C_4
REMARK    5  A    between atoms: C_7  and  C_8
REMARK    6  A    between atoms: C_8  and  N_9
REMARK    7  A    between atoms: C_10  and  C_12
REMARK    8  A    between atoms: N_26  and  C_27
REMARK                            x       y       z     vdW  Elec       q    Type
REMARK                         _______ _______ _______ _____ _____    ______ ____
ROOT
ATOM      1  C   UNL     1      51.673   2.822  17.756  0.00  0.00    +0.000 A 
ATOM      2  C   UNL     1      51.083   4.064  18.018  0.00  0.00    +0.000 A 
ATOM      3  C   UNL     1      49.721   4.269  17.771  0.00  0.00    +0.000 A 
ATOM      4  C   UNL     1      48.926   3.234  17.261  0.00  0.00    +0.000 A 
ATOM      5  C   UNL     1      49.536   2.020  16.921  0.00  0.00    +0.000 A 
ATOM      6  C   UNL     1      50.894   1.816  17.170  0.00  0.00    +0.000 A 
ENDROOT
BRANCH   1   7
ATOM      7  C   UNL     1      53.120   2.550  18.091  0.00  0.00    +0.000 C 
BRANCH   7   8
ATOM      8  C   UNL     1      53.746   1.316  17.395  0.00  0.00    +0.000 C 
BRANCH   8   9
ATOM      9  C   UNL     1      54.097   0.268  18.475  0.00  0.00    +0.000 C 
ATOM     10  O   UNL     1      54.610   0.567  19.548  0.00  0.00    +0.000 OA
ATOM     11  N   UNL     1      53.807  -1.041  18.129  0.00  0.00    +0.000 N 
ATOM     12  H   UNL     1      53.304  -1.224  17.271  0.00  0.00    +0.000 HD
BRANCH  11  13
ATOM     13  C   UNL     1      54.099  -2.166  19.021  0.00  0.00    +0.000 C 
ATOM     14  C   UNL     1      54.945  -3.244  18.324  0.00  0.00    +0.000 C 
ATOM     15  C   UNL     1      55.030  -4.532  19.135  0.00  0.00    +0.000 C 
ATOM     16  C   UNL     1      53.652  -4.952  19.620  0.00  0.00    +0.000 C 
ATOM     17  O   UNL     1      53.109  -3.922  20.444  0.00  0.00    +0.000 OA
ATOM     18  C   UNL     1      52.830  -2.747  19.679  0.00  0.00    +0.000 C 
ENDBRANCH  11  13
ENDBRANCH   8   9
BRANCH   8  19
ATOM     19  N   UNL     1      54.971   1.655  16.636  0.00  0.00    +0.000 NA
ATOM     20  H   UNL     1      54.741   2.175  15.795  0.00  0.00    +0.000 HD
ATOM     21  H   UNL     1      55.420   0.790  16.331  0.00  0.00    +0.000 HD
ENDBRANCH   8  19
ENDBRANCH   7   8
ENDBRANCH   1   7
BRANCH   4  22
ATOM     22  C   UNL     1      47.445   3.418  17.057  0.00  0.00    +0.000 C 
BRANCH  22  23
ATOM     23  N   UNL     1      47.180   4.443  16.085  0.00  0.00    +0.000 N 
ATOM     24  C   UNL     1      47.167   4.178  14.742  0.00  0.00    +0.000 C 
ATOM     25  O   UNL     1      47.332   3.049  14.294  0.00  0.00    +0.000 OA
ATOM     26  H   UNL     1      47.289   5.401  16.402  0.00  0.00    +0.000 HD
BRANCH  24  27
ATOM     27  C   UNL     1      46.868   5.317  13.866  0.00  0.00    +0.000 A 
ATOM     28  C   UNL     1      47.790   6.347  13.728  0.00  0.00    +0.000 A 
ATOM     29  S   UNL     1      47.315   7.543  12.609  0.00  0.00    +0.000 S 
ATOM     30  C   UNL     1      45.834   6.756  12.313  0.00  0.00    +0.000 A 
ATOM     31  N   UNL     1      44.929   7.278  11.442  0.00  0.00    +0.000 NA
ATOM     32  C   UNL     1      43.838   6.593  11.333  0.00  0.00    +0.000 A 
ATOM     33  N   UNL     1      43.574   5.434  12.015  0.00  0.00    +0.000 N 
ATOM     34  C   UNL     1      44.467   4.862  12.890  0.00  0.00    +0.000 A 
ATOM     35  O   UNL     1      44.206   3.812  13.465  0.00  0.00    +0.000 OA
ATOM     36  C   UNL     1      45.710   5.595  13.049  0.00  0.00    +0.000 A 
ATOM     37  H   UNL     1      42.702   4.942  11.886  0.00  0.00    +0.000 HD
ENDBRANCH  24  27
ENDBRANCH  22  23
ENDBRANCH   4  22
TORSDOF 8
ENDMDL
MODEL 6
REMARK VINA RESULT:    -7.298      2.855      8.947
REMARK INTER + INTRA:         -11.032
REMARK INTER:                  -9.909
REMARK INTRA:                  -1.123
REMARK UNBOUND:                -0.534
REMARK  Name = 
REMARK  8 active torsions:
REMARK  status: ('A' for Active; 'I' for Inactive)
REMARK    1  A    between atoms: N_1  and  C_2
REMARK    2  A    between atoms: C_2  and  C_3
REMARK    3  A    between atoms: C_2  and  C_24
REMARK    4  A    between atoms: C_3  and  C_4
REMARK    5  A    between atoms: C_7  and  C_8
REMARK    6  A    between atoms: C_8  and  N_9
REMARK    7  A    between atoms: C_10  and  C_12
REMARK    8  A    between atoms: N_26  and  C_27
REMARK                            x       y       z     vdW  Elec       q    Type
REMARK                         _______ _______ _______ _____ _____    ______ ____
ROOT
ATOM      1  C   UNL     1      49.552   8.877  15.657  0.00  0.00    +0.000 A 
ATOM      2  C   UNL     1      48.891   9.879  14.937  0.00  0.00    +0.000 A 
ATOM      3  C   UNL     1      48.441   9.636  13.635  0.00  0.00    +0.000 A 
ATOM      4  C   UNL     1      48.641   8.388  13.031  0.00  0.00    +0.000 A 
ATOM      5  C   UNL     1      49.377   7.416  13.722  0.00  0.00    +0.000 A 
ATOM      6  C   UNL     1      49.823   7.657  15.022  0.00  0.00    +0.000 A 
ENDROOT
BRANCH   1   7
ATOM      7  C   UNL     1      49.975   9.085  17.092  0.00  0.00    +0.000 C 
BRANCH   7   8
ATOM      8  C   UNL     1      48.915   8.719  18.160  0.00  0.00    +0.000 C 
BRANCH   8   9
ATOM      9  C   UNL     1      49.058   7.220  18.503  0.00  0.00    +0.000 C 
ATOM     10  O   UNL     1      49.808   6.808  19.382  0.00  0.00    +0.000 OA
ATOM     11  N   UNL     1      48.288   6.370  17.725  0.00  0.00    +0.000 N 
ATOM     12  H   UNL     1      47.621   6.766  17.077  0.00  0.00    +0.000 HD
BRANCH  11  13
ATOM     13  C   UNL     1      48.320   4.915  17.896  0.00  0.00    +0.000 C 
ATOM     14  C   UNL     1      49.653   4.314  17.422  0.00  0.00    +0.000 C 
ATOM     15  C   UNL     1      49.608   2.792  17.336  0.00  0.00    +0.000 C 
ATOM     16  C   UNL     1      48.353   2.333  16.609  0.00  0.00    +0.000 C 
ATOM     17  O   UNL     1      47.204   2.791  17.320  0.00  0.00    +0.000 OA
ATOM     18  C   UNL     1      47.099   4.215  17.262  0.00  0.00    +0.000 C 
ENDBRANCH  11  13
ENDBRANCH   8   9
BRANCH   8  19
ATOM     19  N   UNL     1      47.532   8.977  17.697  0.00  0.00    +0.000 NA
ATOM     20  H   UNL     1      46.858   8.689  18.401  0.00  0.00    +0.000 HD
ATOM     21  H   UNL     1      47.350   8.409  16.870  0.00  0.00    +0.000 HD
ENDBRANCH   8  19
ENDBRANCH   7   8
ENDBRANCH   1   7
BRANCH   4  22
ATOM     22  C   UNL     1      48.100   8.090  11.658  0.00  0.00    +0.000 C 
BRANCH  22  23
ATOM     23  N   UNL     1      47.281   6.909  11.670  0.00  0.00    +0.000 N 
ATOM     24  C   UNL     1      45.915   6.978  11.734  0.00  0.00    +0.000 C 
ATOM     25  O   UNL     1      45.310   8.045  11.737  0.00  0.00    +0.000 OA
ATOM     26  H   UNL     1      47.748   6.042  11.917  0.00  0.00    +0.000 HD
BRANCH  24  27
ATOM     27  C   UNL     1      45.206   5.692  11.723  0.00  0.00    +0.000 A 
ATOM     28  C   UNL     1      44.548   5.254  12.865  0.00  0.00    +0.000 A 
ATOM     29  S   UNL     1      43.711   3.784  12.648  0.00  0.00    +0.000 S 
ATOM     30  C   UNL     1      44.246   3.653  11.037  0.00  0.00    +0.000 A 
ATOM     31  N   UNL     1      43.891   2.589  10.268  0.00  0.00    +0.000 NA
ATOM     32  C   UNL     1      44.389   2.603   9.075  0.00  0.00    +0.000 A 
ATOM     33  N   UNL     1      45.208   3.586   8.584  0.00  0.00    +0.000 N 
ATOM     34  C   UNL     1      45.576   4.688   9.319  0.00  0.00    +0.000 A 
ATOM     35  O   UNL     1      46.290   5.560   8.839  0.00  0.00    +0.000 OA
ATOM     36  C   UNL     1      45.043   4.719  10.669  0.00  0.00    +0.000 A 
ATOM     37  H   UNL     1      45.565   3.542   7.640  0.00  0.00    +0.000 HD
ENDBRANCH  24  27
ENDBRANCH  22  23
ENDBRANCH   4  22
TORSDOF 8
ENDMDL
MODEL 7
REMARK VINA RESULT:    -7.018      6.269      8.348
REMARK INTER + INTRA:         -10.628
REMARK INTER:                  -9.948
REMARK INTRA:                  -0.680
REMARK UNBOUND:                -0.534
REMARK  Name = 
REMARK  8 active torsions:
REMARK  status: ('A' for Active; 'I' for Inactive)
REMARK    1  A    between atoms: N_1  and  C_2
REMARK    2  A    between atoms: C_2  and  C_3
REMARK    3  A    between atoms: C_2  and  C_24
REMARK    4  A    between atoms: C_3  and  C_4
REMARK    5  A    between atoms: C_7  and  C_8
REMARK    6  A    between atoms: C_8  and  N_9
REMARK    7  A    between atoms: C_10  and  C_12
REMARK    8  A    between atoms: N_26  and  C_27
REMARK                            x       y       z     vdW  Elec       q    Type
REMARK                         _______ _______ _______ _____ _____    ______ ____
ROOT
ATOM      1  C   UNL     1      49.074   3.286  17.275  0.00  0.00    +0.000 A 
ATOM      2  C   UNL     1      49.683   2.134  16.764  0.00  0.00    +0.000 A 
ATOM      3  C   UNL     1      50.994   1.805  17.123  0.00  0.00    +0.000 A 
ATOM      4  C   UNL     1      51.719   2.622  18.001  0.00  0.00    +0.000 A 
ATOM      5  C   UNL     1      51.138   3.818  18.443  0.00  0.00    +0.000 A 
ATOM      6  C   UNL     1      49.828   4.143  18.088  0.00  0.00    +0.000 A 
ENDROOT
BRANCH   1   7
ATOM      7  C   UNL     1      47.633   3.619  16.969  0.00  0.00    +0.000 C 
BRANCH   7   8
ATOM      8  C   UNL     1      47.414   4.768  15.954  0.00  0.00    +0.000 C 
BRANCH   8   9
ATOM      9  C   UNL     1      46.922   4.162  14.622  0.00  0.00    +0.000 C 
ATOM     10  O   UNL     1      47.511   3.252  14.048  0.00  0.00    +0.000 OA
ATOM     11  N   UNL     1      45.770   4.739  14.112  0.00  0.00    +0.000 N 
ATOM     12  H   UNL     1      45.274   5.422  14.668  0.00  0.00    +0.000 HD
BRANCH  11  13
ATOM     13  C   UNL     1      45.177   4.306  12.844  0.00  0.00    +0.000 C 
ATOM     14  C   UNL     1      45.673   5.156  11.662  0.00  0.00    +0.000 C 
ATOM     15  C   UNL     1      44.872   4.905  10.389  0.00  0.00    +0.000 C 
ATOM     16  C   UNL     1      43.380   4.939  10.678  0.00  0.00    +0.000 C 
ATOM     17  O   UNL     1      43.063   3.925  11.631  0.00  0.00    +0.000 OA
ATOM     18  C   UNL     1      43.638   4.222  12.905  0.00  0.00    +0.000 C 
ENDBRANCH  11  13
ENDBRANCH   8   9
BRANCH   8  19
ATOM     19  N   UNL     1      48.650   5.544  15.702  0.00  0.00    +0.000 NA
ATOM     20  H   UNL     1      48.683   5.864  14.739  0.00  0.00    +0.000 HD
ATOM     21  H   UNL     1      49.456   4.932  15.834  0.00  0.00    +0.000 HD
ENDBRANCH   8  19
ENDBRANCH   7   8
ENDBRANCH   1   7
BRANCH   4  22
ATOM     22  C   UNL     1      53.105   2.244  18.452  0.00  0.00    +0.000 C 
BRANCH  22  23
ATOM     23  N   UNL     1      53.405   0.880  18.114  0.00  0.00    +0.000 N 
ATOM     24  C   UNL     1      54.330   0.150  18.811  0.00  0.00    +0.000 C 
ATOM     25  O   UNL     1      54.920   0.598  19.789  0.00  0.00    +0.000 OA
ATOM     26  H   UNL     1      53.129   0.577  17.185  0.00  0.00    +0.000 HD
BRANCH  24  27
ATOM     27  C   UNL     1      54.524  -1.235  18.364  0.00  0.00    +0.000 A 
ATOM     28  C   UNL     1      54.255  -2.287  19.230  0.00  0.00    +0.000 A 
ATOM     29  S   UNL     1      54.455  -3.825  18.519  0.00  0.00    +0.000 S 
ATOM     30  C   UNL     1      54.963  -3.138  17.046  0.00  0.00    +0.000 A 
ATOM     31  N   UNL     1      55.309  -3.925  15.992  0.00  0.00    +0.000 NA
ATOM     32  C   UNL     1      55.701  -3.273  14.946  0.00  0.00    +0.000 A 
ATOM     33  N   UNL     1      55.775  -1.907  14.861  0.00  0.00    +0.000 N 
ATOM     34  C   UNL     1      55.417  -1.074  15.894  0.00  0.00    +0.000 A 
ATOM     35  O   UNL     1      55.473   0.144  15.774  0.00  0.00    +0.000 OA
ATOM     36  C   UNL     1      54.970  -1.758  17.094  0.00  0.00    +0.000 A 
ATOM     37  H   UNL     1      56.088  -1.456  14.014  0.00  0.00    +0.000 HD
ENDBRANCH  24  27
ENDBRANCH  22  23
ENDBRANCH   4  22
TORSDOF 8
ENDMDL
MODEL 8
REMARK VINA RESULT:    -6.936      2.484      3.745
REMARK INTER + INTRA:         -10.511
REMARK INTER:                  -9.171
REMARK INTRA:                  -1.340
REMARK UNBOUND:                -0.534
REMARK  Name = 
REMARK  8 active torsions:
REMARK  status: ('A' for Active; 'I' for Inactive)
REMARK    1  A    between atoms: N_1  and  C_2
REMARK    2  A    between atoms: C_2  and  C_3
REMARK    3  A    between atoms: C_2  and  C_24
REMARK    4  A    between atoms: C_3  and  C_4
REMARK    5  A    between atoms: C_7  and  C_8
REMARK    6  A    between atoms: C_8  and  N_9
REMARK    7  A    between atoms: C_10  and  C_12
REMARK    8  A    between atoms: N_26  and  C_27
REMARK                            x       y       z     vdW  Elec       q    Type
REMARK                         _______ _______ _______ _____ _____    ______ ____
ROOT
ATOM      1  C   UNL     1      47.353   8.998  12.170  0.00  0.00    +0.000 A 
ATOM      2  C   UNL     1      48.543   8.609  11.544  0.00  0.00    +0.000 A 
ATOM      3  C   UNL     1      49.688   8.343  12.302  0.00  0.00    +0.000 A 
ATOM      4  C   UNL     1      49.662   8.460  13.698  0.00  0.00    +0.000 A 
ATOM      5  C   UNL     1      48.496   8.931  14.313  0.00  0.00    +0.000 A 
ATOM      6  C   UNL     1      47.353   9.192  13.557  0.00  0.00    +0.000 A 
ENDROOT
BRANCH   1   7
ATOM      7  C   UNL     1      46.081   9.210  11.383  0.00  0.00    +0.000 C 
BRANCH   7   8
ATOM      8  C   UNL     1      44.855   8.394  11.861  0.00  0.00    +0.000 C 
BRANCH   8   9
ATOM      9  C   UNL     1      45.193   6.890  11.756  0.00  0.00    +0.000 C 
ATOM     10  O   UNL     1      45.648   6.244  12.694  0.00  0.00    +0.000 OA
ATOM     11  N   UNL     1      44.962   6.329  10.511  0.00  0.00    +0.000 N 
ATOM     12  H   UNL     1      44.503   6.882   9.800  0.00  0.00    +0.000 HD
BRANCH  11  13
ATOM     13  C   UNL     1      45.250   4.921  10.225  0.00  0.00    +0.000 C 
ATOM     14  C   UNL     1      45.650   4.707   8.755  0.00  0.00    +0.000 C 
ATOM     15  C   UNL     1      45.689   3.232   8.372  0.00  0.00    +0.000 C 
ATOM     16  C   UNL     1      44.434   2.520   8.850  0.00  0.00    +0.000 C 
ATOM     17  O   UNL     1      44.346   2.626  10.270  0.00  0.00    +0.000 OA
ATOM     18  C   UNL     1      44.112   3.978  10.670  0.00  0.00    +0.000 C 
ENDBRANCH  11  13
ENDBRANCH   8   9
BRANCH   8  19
ATOM     19  N   UNL     1      43.642   8.672  11.060  0.00  0.00    +0.000 NA
ATOM     20  H   UNL     1      43.090   7.828  10.940  0.00  0.00    +0.000 HD
ATOM     21  H   UNL     1      43.924   8.971  10.126  0.00  0.00    +0.000 HD
ENDBRANCH   8  19
ENDBRANCH   7   8
ENDBRANCH   1   7
BRANCH   4  22
ATOM     22  C   UNL     1      50.867   8.108  14.531  0.00  0.00    +0.000 C 
BRANCH  22  23
ATOM     23  N   UNL     1      50.563   7.055  15.461  0.00  0.00    +0.000 N 
ATOM     24  C   UNL     1      50.327   7.308  16.786  0.00  0.00    +0.000 C 
ATOM     25  O   UNL     1      50.314   8.445  17.246  0.00  0.00    +0.000 OA
ATOM     26  H   UNL     1      50.811   6.115  15.170  0.00  0.00    +0.000 HD
BRANCH  24  27
ATOM     27  C   UNL     1      50.015   6.139  17.617  0.00  0.00    +0.000 A 
ATOM     28  C   UNL     1      50.692   5.937  18.813  0.00  0.00    +0.000 A 
ATOM     29  S   UNL     1      50.145   4.578  19.686  0.00  0.00    +0.000 S 
ATOM     30  C   UNL     1      49.023   4.179  18.469  0.00  0.00    +0.000 A 
ATOM     31  N   UNL     1      48.223   3.086  18.589  0.00  0.00    +0.000 NA
ATOM     32  C   UNL     1      47.438   2.886  17.581  0.00  0.00    +0.000 A 
ATOM     33  N   UNL     1      47.383   3.681  16.466  0.00  0.00    +0.000 N 
ATOM     34  C   UNL     1      48.159   4.805  16.311  0.00  0.00    +0.000 A 
ATOM     35  O   UNL     1      48.066   5.507  15.311  0.00  0.00    +0.000 OA
ATOM     36  C   UNL     1      49.060   5.074  17.418  0.00  0.00    +0.000 A 
ATOM     37  H   UNL     1      46.746   3.474  15.711  0.00  0.00    +0.000 HD
ENDBRANCH  24  27
ENDBRANCH  22  23
ENDBRANCH   4  22
TORSDOF 8
ENDMDL
MODEL 9
REMARK VINA RESULT:    -6.897      4.003      9.049
REMARK INTER + INTRA:         -10.455
REMARK INTER:                  -8.892
REMARK INTRA:                  -1.563
REMARK UNBOUND:                -0.534
REMARK  Name = 
REMARK  8 active torsions:
REMARK  status: ('A' for Active; 'I' for Inactive)
REMARK    1  A    between atoms: N_1  and  C_2
REMARK    2  A    between atoms: C_2  and  C_3
REMARK    3  A    between atoms: C_2  and  C_24
REMARK    4  A    between atoms: C_3  and  C_4
REMARK    5  A    between atoms: C_7  and  C_8
REMARK    6  A    between atoms: C_8  and  N_9
REMARK    7  A    between atoms: C_10  and  C_12
REMARK    8  A    between atoms: N_26  and  C_27
REMARK                            x       y       z     vdW  Elec       q    Type
REMARK                         _______ _______ _______ _____ _____    ______ ____
ROOT
ATOM      1  C   UNL     1      50.917   4.512  18.658  0.00  0.00    +0.000 A 
ATOM      2  C   UNL     1      50.868   3.480  17.715  0.00  0.00    +0.000 A 
ATOM      3  C   UNL     1      49.647   3.092  17.152  0.00  0.00    +0.000 A 
ATOM      4  C   UNL     1      48.456   3.731  17.521  0.00  0.00    +0.000 A 
ATOM      5  C   UNL     1      48.498   4.704  18.527  0.00  0.00    +0.000 A 
ATOM      6  C   UNL     1      49.716   5.094  19.085  0.00  0.00    +0.000 A 
ENDROOT
BRANCH   1   7
ATOM      7  C   UNL     1      52.230   5.006  19.219  0.00  0.00    +0.000 C 
BRANCH   7   8
ATOM      8  C   UNL     1      52.950   6.089  18.380  0.00  0.00    +0.000 C 
BRANCH   8   9
ATOM      9  C   UNL     1      52.003   7.299  18.221  0.00  0.00    +0.000 C 
ATOM     10  O   UNL     1      51.759   8.076  19.137  0.00  0.00    +0.000 OA
ATOM     11  N   UNL     1      51.433   7.429  16.965  0.00  0.00    +0.000 N 
ATOM     12  H   UNL     1      51.738   6.816  16.220  0.00  0.00    +0.000 HD
BRANCH  11  13
ATOM     13  C   UNL     1      50.491   8.505  16.644  0.00  0.00    +0.000 C 
ATOM     14  C   UNL     1      49.078   7.963  16.373  0.00  0.00    +0.000 C 
ATOM     15  C   UNL     1      48.153   9.020  15.777  0.00  0.00    +0.000 C 
ATOM     16  C   UNL     1      48.839   9.748  14.632  0.00  0.00    +0.000 C 
ATOM     17  O   UNL     1      50.018  10.386  15.120  0.00  0.00    +0.000 OA
ATOM     18  C   UNL     1      50.998   9.422  15.512  0.00  0.00    +0.000 C 
ENDBRANCH  11  13
ENDBRANCH   8   9
BRANCH   8  19
ATOM     19  N   UNL     1      53.336   5.600  17.036  0.00  0.00    +0.000 NA
ATOM     20  H   UNL     1      52.981   6.218  16.313  0.00  0.00    +0.000 HD
ATOM     21  H   UNL     1      52.905   4.689  16.880  0.00  0.00    +0.000 HD
ENDBRANCH   8  19
ENDBRANCH   7   8
ENDBRANCH   1   7
BRANCH   4  22
ATOM     22  C   UNL     1      47.146   3.372  16.871  0.00  0.00    +0.000 C 
BRANCH  22  23
ATOM     23  N   UNL     1      46.764   4.358  15.897  0.00  0.00    +0.000 N 
ATOM     24  C   UNL     1      46.883   4.128  14.553  0.00  0.00    +0.000 C 
ATOM     25  O   UNL     1      47.275   3.057  14.101  0.00  0.00    +0.000 OA
ATOM     26  H   UNL     1      46.681   5.311  16.234  0.00  0.00    +0.000 HD
BRANCH  24  27
ATOM     27  C   UNL     1      46.442   5.218  13.674  0.00  0.00    +0.000 A 
ATOM     28  C   UNL     1      47.284   6.295  13.428  0.00  0.00    +0.000 A 
ATOM     29  S   UNL     1      46.643   7.423  12.321  0.00  0.00    +0.000 S 
ATOM     30  C   UNL     1      45.194   6.541  12.176  0.00  0.00    +0.000 A 
ATOM     31  N   UNL     1      44.188   6.979  11.372  0.00  0.00    +0.000 NA
ATOM     32  C   UNL     1      43.136   6.227  11.377  0.00  0.00    +0.000 A 
ATOM     33  N   UNL     1      43.002   5.078  12.112  0.00  0.00    +0.000 N 
ATOM     34  C   UNL     1      43.999   4.589  12.922  0.00  0.00    +0.000 A 
ATOM     35  O   UNL     1      43.853   3.545  13.546  0.00  0.00    +0.000 OA
ATOM     36  C   UNL     1      45.204   5.399  12.952  0.00  0.00    +0.000 A 
ATOM     37  H   UNL     1      42.154   4.532  12.072  0.00  0.00    +0.000 HD
ENDBRANCH  24  27
ENDBRANCH  22  23
ENDBRANCH   4  22
TORSDOF 8
ENDMDL
