MODEL 1
REMARK VINA RESULT:    -7.434      0.000      0.000
REMARK INTER + INTRA:         -10.927
REMARK INTER:                  -9.824
REMARK INTRA:                  -1.103
REMARK UNBOUND:                -1.103
REMARK  Name = 
REMARK  6 active torsions:
REMARK  status: ('A' for Active; 'I' for Inactive)
REMARK    1  A    between atoms: N_1  and  C_2
REMARK    2  A    between atoms: C_5  and  C_6
REMARK    3  A    between atoms: C_6  and  C_7
REMARK    4  A    between atoms: C_10  and  C_11
REMARK    5  A    between atoms: C_11  and  N_12
REMARK    6  A    between atoms: C_13  and  C_15
REMARK                            x       y       z     vdW  Elec       q    Type
REMARK                         _______ _______ _______ _____ _____    ______ ____
ROOT
ATOM      1  C   UNL     1      46.836   4.550  14.193  0.00  0.00    +0.000 A 
ATOM      2  C   UNL     1      47.541   5.737  14.010  0.00  0.00    +0.000 A 
ATOM      3  C   UNL     1      48.294   6.250  15.061  0.00  0.00    +0.000 A 
ATOM      4  C   UNL     1      48.297   5.597  16.288  0.00  0.00    +0.000 A 
ATOM      5  C   UNL     1      47.553   4.428  16.389  0.00  0.00    +0.000 A 
ATOM      6  N   UNL     1      46.833   3.888  15.374  0.00  0.00    +0.000 NA
ENDROOT
BRANCH   1   7
ATOM      7  C   UNL     1      46.045   3.950  13.054  0.00  0.00    +0.000 C 
BRANCH   7  11
ATOM      8  C   UNL     1      43.704   4.486  10.184  0.00  0.00    +0.000 C 
ATOM      9  C   UNL     1      43.891   3.137  10.883  0.00  0.00    +0.000 C 
ATOM     10  C   UNL     1      43.637   3.243  12.386  0.00  0.00    +0.000 C 
ATOM     11  C   UNL     1      44.535   4.295  13.058  0.00  0.00    +0.000 C 
ATOM     12  C   UNL     1      44.282   5.654  12.375  0.00  0.00    +0.000 C 
ATOM     13  C   UNL     1      44.503   5.609  10.859  0.00  0.00    +0.000 C 
BRANCH   8  14
ATOM     14  N   UNL     1      44.097   4.379   8.778  0.00  0.00    +0.000 NA
ATOM     15  H   UNL     1      44.600   3.504   8.628  0.00  0.00    +0.000 HD
ATOM     16  H   UNL     1      44.758   5.121   8.547  0.00  0.00    +0.000 HD
ENDBRANCH   8  14
ENDBRANCH   7  11
ENDBRANCH   1   7
BRANCH   4  17
ATOM     17  C   UNL     1      49.095   6.127  17.438  0.00  0.00    +0.000 C 
BRANCH  17  18
ATOM     18  N   UNL     1      50.129   5.207  17.847  0.00  0.00    +0.000 N 
ATOM     19  C   UNL     1      51.409   5.267  17.352  0.00  0.00    +0.000 C 
ATOM     20  O   UNL     1      51.745   6.099  16.514  0.00  0.00    +0.000 OA
ATOM     21  H   UNL     1      49.841   4.400  18.388  0.00  0.00    +0.000 HD
BRANCH  19  22
ATOM     22  C   UNL     1      52.377   4.321  17.923  0.00  0.00    +0.000 A 
ATOM     23  C   UNL     1      53.483   4.811  18.607  0.00  0.00    +0.000 A 
ATOM     24  S   UNL     1      54.491   3.594  19.245  0.00  0.00    +0.000 S 
ATOM     25  C   UNL     1      53.513   2.366  18.592  0.00  0.00    +0.000 A 
ATOM     26  N   UNL     1      53.840   1.056  18.753  0.00  0.00    +0.000 NA
ATOM     27  C   UNL     1      53.038   0.230  18.169  0.00  0.00    +0.000 A 
ATOM     28  N   UNL     1      51.928   0.594  17.453  0.00  0.00    +0.000 N 
ATOM     29  C   UNL     1      51.516   1.901  17.331  0.00  0.00    +0.000 A 
ATOM     30  O   UNL     1      50.452   2.187  16.792  0.00  0.00    +0.000 OA
ATOM     31  C   UNL     1      52.415   2.876  17.920  0.00  0.00    +0.000 A 
ATOM     32  H   UNL     1      51.324  -0.104  17.045  0.00  0.00    +0.000 HD
ENDBRANCH  19  22
ENDBRANCH  17  18
ENDBRANCH   4  17
TORSDOF 6
ENDMDL
MODEL 2
REMARK VINA RESULT:    -6.863      3.004      8.904
REMARK INTER + INTRA:         -10.173
REMARK INTER:                  -9.235
REMARK INTRA:                  -0.939
REMARK UNBOUND:                -1.103
REMARK  Name = 
REMARK  6 active torsions:
REMARK  status: ('A' for Active; 'I' for Inactive)
REMARK    1  A    between atoms: N_1  and  C_2
REMARK    2  A    between atoms: C_5  and  C_6
REMARK    3  A    between atoms: C_6  and  C_7
REMARK    4  A    between atoms: C_10  and  C_11
REMARK    5  A    between atoms: C_11  and  N_12
REMARK    6  A    between atoms: C_13  and  C_15
REMARK                            x       y       z     vdW  Elec       q    Type
REMARK                         _______ _______ _______ _____ _____    ______ ____
ROOT
ATOM      1  C   UNL     1      51.310   2.278  17.421  0.00  0.00    +0.000 A 
ATOM      2  C   UNL     1      51.895   3.514  17.684  0.00  0.00    +0.000 A 
ATOM      3  C   UNL     1      51.097   4.652  17.709  0.00  0.00    +0.000 A 
ATOM      4  C   UNL     1      49.740   4.547  17.428  0.00  0.00    +0.000 A 
ATOM      5  C   UNL     1      49.241   3.278  17.159  0.00  0.00    +0.000 A 
ATOM      6  N   UNL     1      49.989   2.147  17.156  0.00  0.00    +0.000 NA
ENDROOT
BRANCH   1   7
ATOM      7  C   UNL     1      52.149   1.020  17.430  0.00  0.00    +0.000 C 
BRANCH   7  11
ATOM      8  C   UNL     1      54.985  -1.420  17.392  0.00  0.00    +0.000 C 
ATOM      9  C   UNL     1      54.601  -0.550  16.192  0.00  0.00    +0.000 C 
ATOM     10  C   UNL     1      54.592   0.934  16.556  0.00  0.00    +0.000 C 
ATOM     11  C   UNL     1      53.651   1.243  17.732  0.00  0.00    +0.000 C 
ATOM     12  C   UNL     1      54.098   0.398  18.942  0.00  0.00    +0.000 C 
ATOM     13  C   UNL     1      54.145  -1.102  18.636  0.00  0.00    +0.000 C 
BRANCH   8  14
ATOM     14  N   UNL     1      54.841  -2.836  17.048  0.00  0.00    +0.000 NA
ATOM     15  H   UNL     1      54.386  -2.923  16.139  0.00  0.00    +0.000 HD
ATOM     16  H   UNL     1      54.216  -3.291  17.714  0.00  0.00    +0.000 HD
ENDBRANCH   8  14
ENDBRANCH   7  11
ENDBRANCH   1   7
BRANCH   4  17
ATOM     17  C   UNL     1      48.856   5.756  17.443  0.00  0.00    +0.000 C 
BRANCH  17  18
ATOM     18  N   UNL     1      48.018   5.826  16.270  0.00  0.00    +0.000 N 
ATOM     19  C   UNL     1      48.480   6.275  15.058  0.00  0.00    +0.000 C 
ATOM     20  O   UNL     1      49.634   6.664  14.904  0.00  0.00    +0.000 OA
ATOM     21  H   UNL     1      47.022   5.692  16.406  0.00  0.00    +0.000 HD
BRANCH  19  22
ATOM     22  C   UNL     1      47.537   6.209  13.932  0.00  0.00    +0.000 A 
ATOM     23  C   UNL     1      47.218   7.374  13.246  0.00  0.00    +0.000 A 
ATOM     24  S   UNL     1      46.146   7.132  11.943  0.00  0.00    +0.000 S 
ATOM     25  C   UNL     1      46.033   5.468  12.276  0.00  0.00    +0.000 A 
ATOM     26  N   UNL     1      45.232   4.661  11.528  0.00  0.00    +0.000 NA
ATOM     27  C   UNL     1      45.204   3.430  11.916  0.00  0.00    +0.000 A 
ATOM     28  N   UNL     1      45.918   2.928  12.972  0.00  0.00    +0.000 N 
ATOM     29  C   UNL     1      46.798   3.690  13.706  0.00  0.00    +0.000 A 
ATOM     30  O   UNL     1      47.515   3.186  14.564  0.00  0.00    +0.000 OA
ATOM     31  C   UNL     1      46.824   5.096  13.348  0.00  0.00    +0.000 A 
ATOM     32  H   UNL     1      45.874   1.948  13.207  0.00  0.00    +0.000 HD
ENDBRANCH  19  22
ENDBRANCH  17  18
ENDBRANCH   4  17
TORSDOF 6
ENDMDL
MODEL 3
REMARK VINA RESULT:    -6.628      4.897      9.373
REMARK INTER + INTRA:          -9.862
REMARK INTER:                  -9.009
REMARK INTRA:                  -0.854
REMARK UNBOUND:                -1.103
REMARK  Name = 
REMARK  6 active torsions:
REMARK  status: ('A' for Active; 'I' for Inactive)
REMARK    1  A    between atoms: N_1  and  C_2
REMARK    2  A    between atoms: C_5  and  C_6
REMARK    3  A    between atoms: C_6  and  C_7
REMARK    4  A    between atoms: C_10  and  C_11
REMARK    5  A    between atoms: C_11  and  N_12
REMARK    6  A    between atoms: C_13  and  C_15
REMARK                            x       y       z     vdW  Elec       q    Type
REMARK                         _______ _______ _______ _____ _____    ______ ____
ROOT
ATOM      1  C   UNL     1      49.111   7.569  16.409  0.00  0.00    +0.000 A 
ATOM      2  C   UNL     1      48.612   8.786  15.952  0.00  0.00    +0.000 A 
ATOM      3  C   UNL     1      48.002   8.846  14.704  0.00  0.00    +0.000 A 
ATOM      4  C   UNL     1      47.939   7.704  13.914  0.00  0.00    +0.000 A 
ATOM      5  C   UNL     1      48.477   6.535  14.440  0.00  0.00    +0.000 A 
ATOM      6  N   UNL     1      49.051   6.440  15.664  0.00  0.00    +0.000 NA
ENDROOT
BRANCH   1   7
ATOM      7  C   UNL     1      49.741   7.469  17.780  0.00  0.00    +0.000 C 
BRANCH   7  11
ATOM      8  C   UNL     1      48.271   5.424  20.547  0.00  0.00    +0.000 C 
ATOM      9  C   UNL     1      49.594   6.185  20.668  0.00  0.00    +0.000 C 
ATOM     10  C   UNL     1      49.418   7.669  20.348  0.00  0.00    +0.000 C 
ATOM     11  C   UNL     1      48.822   7.900  18.950  0.00  0.00    +0.000 C 
ATOM     12  C   UNL     1      47.464   7.172  18.877  0.00  0.00    +0.000 C 
ATOM     13  C   UNL     1      47.571   5.679  19.206  0.00  0.00    +0.000 C 
BRANCH   8  14
ATOM     14  N   UNL     1      48.504   3.988  20.715  0.00  0.00    +0.000 NA
ATOM     15  H   UNL     1      47.682   3.469  20.404  0.00  0.00    +0.000 HD
ATOM     16  H   UNL     1      48.612   3.769  21.705  0.00  0.00    +0.000 HD
ENDBRANCH   8  14
ENDBRANCH   7  11
ENDBRANCH   1   7
BRANCH   4  17
ATOM     17  C   UNL     1      47.292   7.738  12.564  0.00  0.00    +0.000 C 
BRANCH  17  18
ATOM     18  N   UNL     1      46.603   6.506  12.265  0.00  0.00    +0.000 N 
ATOM     19  C   UNL     1      45.335   6.477  11.740  0.00  0.00    +0.000 C 
ATOM     20  O   UNL     1      44.701   7.503  11.510  0.00  0.00    +0.000 OA
ATOM     21  H   UNL     1      47.018   5.648  12.614  0.00  0.00    +0.000 HD
BRANCH  19  22
ATOM     22  C   UNL     1      44.793   5.152  11.406  0.00  0.00    +0.000 A 
ATOM     23  C   UNL     1      44.001   4.489  12.335  0.00  0.00    +0.000 A 
ATOM     24  S   UNL     1      43.415   2.984  11.790  0.00  0.00    +0.000 S 
ATOM     25  C   UNL     1      44.237   3.141  10.309  0.00  0.00    +0.000 A 
ATOM     26  N   UNL     1      44.176   2.157   9.372  0.00  0.00    +0.000 NA
ATOM     27  C   UNL     1      44.881   2.383   8.314  0.00  0.00    +0.000 A 
ATOM     28  N   UNL     1      45.628   3.512   8.101  0.00  0.00    +0.000 N 
ATOM     29  C   UNL     1      45.656   4.565   8.986  0.00  0.00    +0.000 A 
ATOM     30  O   UNL     1      46.231   5.613   8.712  0.00  0.00    +0.000 OA
ATOM     31  C   UNL     1      44.925   4.338  10.219  0.00  0.00    +0.000 A 
ATOM     32  H   UNL     1      46.135   3.641   7.238  0.00  0.00    +0.000 HD
ENDBRANCH  19  22
ENDBRANCH  17  18
ENDBRANCH   4  17
TORSDOF 6
ENDMDL
MODEL 4
REMARK VINA RESULT:    -6.553      4.394      9.028
REMARK INTER + INTRA:          -9.763
REMARK INTER:                  -8.970
REMARK INTRA:                  -0.793
REMARK UNBOUND:                -1.103
REMARK  Name = 
REMARK  6 active torsions:
REMARK  status: ('A' for Active; 'I' for Inactive)
REMARK    1  A    between atoms: N_1  and  C_2
REMARK    2  A    between atoms: C_5  and  C_6
REMARK    3  A    between atoms: C_6  and  C_7
REMARK    4  A    between atoms: C_10  and  C_11
REMARK    5  A    between atoms: C_11  and  N_12
REMARK    6  A    between atoms: C_13  and  C_15
REMARK                            x       y       z     vdW  Elec       q    Type
REMARK                         _______ _______ _______ _____ _____    ______ ____
ROOT
ATOM      1  C   UNL     1      50.048   6.576  16.103  0.00  0.00    +0.000 A 
ATOM      2  C   UNL     1      50.653   7.600  15.378  0.00  0.00    +0.000 A 
ATOM      3  C   UNL     1      50.095   7.998  14.168  0.00  0.00    +0.000 A 
ATOM      4  C   UNL     1      48.972   7.340  13.679  0.00  0.00    +0.000 A 
ATOM      5  C   UNL     1      48.443   6.318  14.458  0.00  0.00    +0.000 A 
ATOM      6  N   UNL     1      48.947   5.928  15.655  0.00  0.00    +0.000 NA
ENDROOT
BRANCH   1   7
ATOM      7  C   UNL     1      50.611   6.154  17.441  0.00  0.00    +0.000 C 
BRANCH   7  11
ATOM      8  C   UNL     1      48.691   4.983  20.432  0.00  0.00    +0.000 C 
ATOM      9  C   UNL     1      50.216   5.112  20.402  0.00  0.00    +0.000 C 
ATOM     10  C   UNL     1      50.653   6.522  20.011  0.00  0.00    +0.000 C 
ATOM     11  C   UNL     1      50.078   6.958  18.653  0.00  0.00    +0.000 C 
ATOM     12  C   UNL     1      48.540   6.876  18.731  0.00  0.00    +0.000 C 
ATOM     13  C   UNL     1      48.038   5.487  19.138  0.00  0.00    +0.000 C 
BRANCH   8  14
ATOM     14  N   UNL     1      48.311   3.589  20.665  0.00  0.00    +0.000 NA
ATOM     15  H   UNL     1      48.644   3.010  19.893  0.00  0.00    +0.000 HD
ATOM     16  H   UNL     1      47.295   3.501  20.658  0.00  0.00    +0.000 HD
ENDBRANCH   8  14
ENDBRANCH   7  11
ENDBRANCH   1   7
BRANCH   4  17
ATOM     17  C   UNL     1      48.352   7.743  12.377  0.00  0.00    +0.000 C 
BRANCH  17  18
ATOM     18  N   UNL     1      47.581   6.672  11.793  0.00  0.00    +0.000 N 
ATOM     19  C   UNL     1      46.228   6.768  11.575  0.00  0.00    +0.000 C 
ATOM     20  O   UNL     1      45.588   7.770  11.883  0.00  0.00    +0.000 OA
ATOM     21  H   UNL     1      48.038   5.771  11.702  0.00  0.00    +0.000 HD
BRANCH  19  22
ATOM     22  C   UNL     1      45.592   5.632  10.894  0.00  0.00    +0.000 A 
ATOM     23  C   UNL     1      45.648   5.554   9.508  0.00  0.00    +0.000 A 
ATOM     24  S   UNL     1      44.902   4.162   8.867  0.00  0.00    +0.000 S 
ATOM     25  C   UNL     1      44.435   3.635  10.415  0.00  0.00    +0.000 A 
ATOM     26  N   UNL     1      43.718   2.490  10.574  0.00  0.00    +0.000 NA
ATOM     27  C   UNL     1      43.391   2.230  11.796  0.00  0.00    +0.000 A 
ATOM     28  N   UNL     1      43.731   3.002  12.875  0.00  0.00    +0.000 N 
ATOM     29  C   UNL     1      44.519   4.124  12.770  0.00  0.00    +0.000 A 
ATOM     30  O   UNL     1      44.911   4.724  13.766  0.00  0.00    +0.000 OA
ATOM     31  C   UNL     1      44.867   4.493  11.411  0.00  0.00    +0.000 A 
ATOM     32  H   UNL     1      43.468   2.727  13.810  0.00  0.00    +0.000 HD
ENDBRANCH  19  22
ENDBRANCH  17  18
ENDBRANCH   4  17
TORSDOF 6
ENDMDL
MODEL 5
REMARK VINA RESULT:    -6.515      3.320      9.481
REMARK INTER + INTRA:          -9.713
REMARK INTER:                  -8.756
REMARK INTRA:                  -0.956
REMARK UNBOUND:                -1.103
REMARK  Name = 
REMARK  6 active torsions:
REMARK  status: ('A' for Active; 'I' for Inactive)
REMARK    1  A    between atoms: N_1  and  C_2
REMARK    2  A    between atoms: C_5  and  C_6
REMARK    3  A    between atoms: C_6  and  C_7
REMARK    4  A    between atoms: C_10  and  C_11
REMARK    5  A    between atoms: C_11  and  N_12
REMARK    6  A    between atoms: C_13  and  C_15
REMARK                            x       y       z     vdW  Elec       q    Type
REMARK                         _______ _______ _______ _____ _____    ______ ____
ROOT
ATOM      1  C   UNL     1      51.129   3.986  18.283  0.00  0.00    +0.000 A 
ATOM      2  C   UNL     1      50.844   2.842  17.542  0.00  0.00    +0.000 A 
ATOM      3  C   UNL     1      49.551   2.641  17.072  0.00  0.00    +0.000 A 
ATOM      4  C   UNL     1      48.555   3.559  17.386  0.00  0.00    +0.000 A 
ATOM      5  C   UNL     1      48.922   4.663  18.145  0.00  0.00    +0.000 A 
ATOM      6  N   UNL     1      50.180   4.901  18.592  0.00  0.00    +0.000 NA
ENDROOT
BRANCH   1   7
ATOM      7  C   UNL     1      52.537   4.248  18.769  0.00  0.00    +0.000 C 
BRANCH   7  11
ATOM      8  C   UNL     1      54.867   7.134  18.274  0.00  0.00    +0.000 C 
ATOM      9  C   UNL     1      55.256   5.848  19.007  0.00  0.00    +0.000 C 
ATOM     10  C   UNL     1      55.028   4.614  18.136  0.00  0.00    +0.000 C 
ATOM     11  C   UNL     1      53.574   4.503  17.648  0.00  0.00    +0.000 C 
ATOM     12  C   UNL     1      53.229   5.784  16.862  0.00  0.00    +0.000 C 
ATOM     13  C   UNL     1      53.455   7.061  17.678  0.00  0.00    +0.000 C 
BRANCH   8  14
ATOM     14  N   UNL     1      54.959   8.276  19.185  0.00  0.00    +0.000 NA
ATOM     15  H   UNL     1      55.360   7.974  20.074  0.00  0.00    +0.000 HD
ATOM     16  H   UNL     1      54.023   8.617  19.407  0.00  0.00    +0.000 HD
ENDBRANCH   8  14
ENDBRANCH   7  11
ENDBRANCH   1   7
BRANCH   4  17
ATOM     17  C   UNL     1      47.152   3.367  16.899  0.00  0.00    +0.000 C 
BRANCH  17  18
ATOM     18  N   UNL     1      46.785   4.354  15.912  0.00  0.00    +0.000 N 
ATOM     19  C   UNL     1      46.861   4.114  14.562  0.00  0.00    +0.000 C 
ATOM     20  O   UNL     1      47.266   3.045  14.112  0.00  0.00    +0.000 OA
ATOM     21  H   UNL     1      46.628   5.300  16.242  0.00  0.00    +0.000 HD
BRANCH  19  22
ATOM     22  C   UNL     1      46.373   5.181  13.678  0.00  0.00    +0.000 A 
ATOM     23  C   UNL     1      47.157   6.310  13.479  0.00  0.00    +0.000 A 
ATOM     24  S   UNL     1      46.477   7.439  12.398  0.00  0.00    +0.000 S 
ATOM     25  C   UNL     1      45.087   6.482  12.191  0.00  0.00    +0.000 A 
ATOM     26  N   UNL     1      44.068   6.898  11.390  0.00  0.00    +0.000 NA
ATOM     27  C   UNL     1      43.055   6.098  11.357  0.00  0.00    +0.000 A 
ATOM     28  N   UNL     1      42.974   4.912  12.038  0.00  0.00    +0.000 N 
ATOM     29  C   UNL     1      44.010   4.416  12.795  0.00  0.00    +0.000 A 
ATOM     30  O   UNL     1      43.958   3.295  13.291  0.00  0.00    +0.000 OA
ATOM     31  C   UNL     1      45.152   5.303  12.913  0.00  0.00    +0.000 A 
ATOM     32  H   UNL     1      42.164   4.318  11.946  0.00  0.00    +0.000 HD
ENDBRANCH  19  22
ENDBRANCH  17  18
ENDBRANCH   4  17
TORSDOF 6
ENDMDL
MODEL 6
REMARK VINA RESULT:    -6.262      6.389      9.634
REMARK INTER + INTRA:          -9.378
REMARK INTER:                  -8.430
REMARK INTRA:                  -0.948
REMARK UNBOUND:                -1.103
REMARK  Name = 
REMARK  6 active torsions:
REMARK  status: ('A' for Active; 'I' for Inactive)
REMARK    1  A    between atoms: N_1  and  C_2
REMARK    2  A    between atoms: C_5  and  C_6
REMARK    3  A    between atoms: C_6  and  C_7
REMARK    4  A    between atoms: C_10  and  C_11
REMARK    5  A    between atoms: C_11  and  N_12
REMARK    6  A    between atoms: C_13  and  C_15
REMARK                            x       y       z     vdW  Elec       q    Type
REMARK                         _______ _______ _______ _____ _____    ______ ____
ROOT
ATOM      1  C   UNL     1      50.655   8.593  12.135  0.00  0.00    +0.000 A 
ATOM      2  C   UNL     1      49.920   9.711  11.749  0.00  0.00    +0.000 A 
ATOM      3  C   UNL     1      48.532   9.631  11.709  0.00  0.00    +0.000 A 
ATOM      4  C   UNL     1      47.903   8.428  12.010  0.00  0.00    +0.000 A 
ATOM      5  C   UNL     1      48.714   7.358  12.368  0.00  0.00    +0.000 A 
ATOM      6  N   UNL     1      50.066   7.414  12.445  0.00  0.00    +0.000 NA
ENDROOT
BRANCH   1   7
ATOM      7  C   UNL     1      52.162   8.667  12.228  0.00  0.00    +0.000 C 
BRANCH   7  11
ATOM      8  C   UNL     1      54.126   6.164  10.259  0.00  0.00    +0.000 C 
ATOM      9  C   UNL     1      52.635   6.431  10.040  0.00  0.00    +0.000 C 
ATOM     10  C   UNL     1      52.366   7.908   9.753  0.00  0.00    +0.000 C 
ATOM     11  C   UNL     1      52.890   8.825  10.871  0.00  0.00    +0.000 C 
ATOM     12  C   UNL     1      54.404   8.578  11.029  0.00  0.00    +0.000 C 
ATOM     13  C   UNL     1      54.742   7.108  11.300  0.00  0.00    +0.000 C 
BRANCH   8  14
ATOM     14  N   UNL     1      54.329   4.774  10.674  0.00  0.00    +0.000 NA
ATOM     15  H   UNL     1      54.145   4.151   9.887  0.00  0.00    +0.000 HD
ATOM     16  H   UNL     1      53.646   4.524  11.389  0.00  0.00    +0.000 HD
ENDBRANCH   8  14
ENDBRANCH   7  11
ENDBRANCH   1   7
BRANCH   4  17
ATOM     17  C   UNL     1      46.411   8.311  11.970  0.00  0.00    +0.000 C 
BRANCH  17  18
ATOM     18  N   UNL     1      45.983   6.945  11.788  0.00  0.00    +0.000 N 
ATOM     19  C   UNL     1      44.697   6.614  11.435  0.00  0.00    +0.000 C 
ATOM     20  O   UNL     1      43.827   7.464  11.272  0.00  0.00    +0.000 OA
ATOM     21  H   UNL     1      46.618   6.216  12.096  0.00  0.00    +0.000 HD
BRANCH  19  22
ATOM     22  C   UNL     1      44.428   5.188  11.201  0.00  0.00    +0.000 A 
ATOM     23  C   UNL     1      43.644   4.488  12.109  0.00  0.00    +0.000 A 
ATOM     24  S   UNL     1      43.388   2.857  11.682  0.00  0.00    +0.000 S 
ATOM     25  C   UNL     1      44.354   3.015  10.291  0.00  0.00    +0.000 A 
ATOM     26  N   UNL     1      44.575   1.950   9.473  0.00  0.00    +0.000 NA
ATOM     27  C   UNL     1      45.362   2.196   8.479  0.00  0.00    +0.000 A 
ATOM     28  N   UNL     1      45.933   3.414   8.219  0.00  0.00    +0.000 N 
ATOM     29  C   UNL     1      45.675   4.534   8.973  0.00  0.00    +0.000 A 
ATOM     30  O   UNL     1      46.100   5.637   8.644  0.00  0.00    +0.000 OA
ATOM     31  C   UNL     1      44.842   4.301  10.138  0.00  0.00    +0.000 A 
ATOM     32  H   UNL     1      46.517   3.547   7.407  0.00  0.00    +0.000 HD
ENDBRANCH  19  22
ENDBRANCH  17  18
ENDBRANCH   4  17
TORSDOF 6
ENDMDL
MODEL 7
REMARK VINA RESULT:    -6.244      1.263      1.640
REMARK INTER + INTRA:          -9.355
REMARK INTER:                  -9.024
REMARK INTRA:                  -0.331
REMARK UNBOUND:                -1.103
REMARK  Name = 
REMARK  6 active torsions:
REMARK  status: ('A' for Active; 'I' for Inactive)
REMARK    1  A    between atoms: N_1  and  C_2
REMARK    2  A    between atoms: C_5  and  C_6
REMARK    3  A    between atoms: C_6  and  C_7
REMARK    4  A    between atoms: C_10  and  C_11
REMARK    5  A    between atoms: C_11  and  N_12
REMARK    6  A    between atoms: C_13  and  C_15
REMARK                            x       y       z     vdW  Elec       q    Type
REMARK                         _______ _______ _______ _____ _____    ______ ____
ROOT
ATOM      1  C   UNL     1      46.757   4.816  14.179  0.00  0.00    +0.000 A 
ATOM      2  C   UNL     1      47.453   5.892  13.633  0.00  0.00    +0.000 A 
ATOM      3  C   UNL     1      48.435   6.521  14.391  0.00  0.00    +0.000 A 
ATOM      4  C   UNL     1      48.675   6.097  15.693  0.00  0.00    +0.000 A 
ATOM      5  C   UNL     1      47.924   5.028  16.164  0.00  0.00    +0.000 A 
ATOM      6  N   UNL     1      46.981   4.376  15.439  0.00  0.00    +0.000 NA
ENDROOT
BRANCH   1   7
ATOM      7  C   UNL     1      45.715   4.088  13.360  0.00  0.00    +0.000 C 
BRANCH   7  11
ATOM      8  C   UNL     1      43.162   5.674  11.130  0.00  0.00    +0.000 C 
ATOM      9  C   UNL     1      44.295   6.450  11.805  0.00  0.00    +0.000 C 
ATOM     10  C   UNL     1      45.662   5.860  11.462  0.00  0.00    +0.000 C 
ATOM     11  C   UNL     1      45.768   4.373  11.839  0.00  0.00    +0.000 C 
ATOM     12  C   UNL     1      44.653   3.607  11.099  0.00  0.00    +0.000 C 
ATOM     13  C   UNL     1      43.255   4.164  11.387  0.00  0.00    +0.000 C 
BRANCH   8  14
ATOM     14  N   UNL     1      41.867   6.173  11.596  0.00  0.00    +0.000 NA
ATOM     15  H   UNL     1      41.921   7.182  11.739  0.00  0.00    +0.000 HD
ATOM     16  H   UNL     1      41.652   5.776  12.510  0.00  0.00    +0.000 HD
ENDBRANCH   8  14
ENDBRANCH   7  11
ENDBRANCH   1   7
BRANCH   4  17
ATOM     17  C   UNL     1      49.723   6.758  16.534  0.00  0.00    +0.000 C 
BRANCH  17  18
ATOM     18  N   UNL     1      50.736   5.825  16.965  0.00  0.00    +0.000 N 
ATOM     19  C   UNL     1      50.925   5.496  18.285  0.00  0.00    +0.000 C 
ATOM     20  O   UNL     1      50.252   5.994  19.183  0.00  0.00    +0.000 OA
ATOM     21  H   UNL     1      51.425   5.542  16.277  0.00  0.00    +0.000 HD
BRANCH  19  22
ATOM     22  C   UNL     1      51.936   4.467  18.565  0.00  0.00    +0.000 A 
ATOM     23  C   UNL     1      53.044   4.797  19.336  0.00  0.00    +0.000 A 
ATOM     24  S   UNL     1      54.105   3.491  19.609  0.00  0.00    +0.000 S 
ATOM     25  C   UNL     1      53.147   2.447  18.668  0.00  0.00    +0.000 A 
ATOM     26  N   UNL     1      53.517   1.153  18.467  0.00  0.00    +0.000 NA
ATOM     27  C   UNL     1      52.725   0.485  17.698  0.00  0.00    +0.000 A 
ATOM     28  N   UNL     1      51.586   0.987  17.125  0.00  0.00    +0.000 N 
ATOM     29  C   UNL     1      51.133   2.264  17.363  0.00  0.00    +0.000 A 
ATOM     30  O   UNL     1      50.047   2.644  16.938  0.00  0.00    +0.000 OA
ATOM     31  C   UNL     1      52.017   3.077  18.176  0.00  0.00    +0.000 A 
ATOM     32  H   UNL     1      50.994   0.402  16.555  0.00  0.00    +0.000 HD
ENDBRANCH  19  22
ENDBRANCH  17  18
ENDBRANCH   4  17
TORSDOF 6
ENDMDL
MODEL 8
REMARK VINA RESULT:    -6.211      2.484      3.443
REMARK INTER + INTRA:          -9.312
REMARK INTER:                  -8.140
REMARK INTRA:                  -1.172
REMARK UNBOUND:                -1.103
REMARK  Name = 
REMARK  6 active torsions:
REMARK  status: ('A' for Active; 'I' for Inactive)
REMARK    1  A    between atoms: N_1  and  C_2
REMARK    2  A    between atoms: C_5  and  C_6
REMARK    3  A    between atoms: C_6  and  C_7
REMARK    4  A    between atoms: C_10  and  C_11
REMARK    5  A    between atoms: C_11  and  N_12
REMARK    6  A    between atoms: C_13  and  C_15
REMARK                            x       y       z     vdW  Elec       q    Type
REMARK                         _______ _______ _______ _____ _____    ______ ____
ROOT
ATOM      1  C   UNL     1      46.200   7.321  12.193  0.00  0.00    +0.000 A 
ATOM      2  C   UNL     1      47.299   6.923  11.435  0.00  0.00    +0.000 A 
ATOM      3  C   UNL     1      48.567   7.369  11.790  0.00  0.00    +0.000 A 
ATOM      4  C   UNL     1      48.715   8.238  12.865  0.00  0.00    +0.000 A 
ATOM      5  C   UNL     1      47.564   8.598  13.555  0.00  0.00    +0.000 A 
ATOM      6  N   UNL     1      46.319   8.157  13.251  0.00  0.00    +0.000 NA
ENDROOT
BRANCH   1   7
ATOM      7  C   UNL     1      44.817   6.816  11.853  0.00  0.00    +0.000 C 
BRANCH   7  11
ATOM      8  C   UNL     1      44.047   3.162  11.623  0.00  0.00    +0.000 C 
ATOM      9  C   UNL     1      45.356   3.717  12.189  0.00  0.00    +0.000 C 
ATOM     10  C   UNL     1      45.101   4.700  13.330  0.00  0.00    +0.000 C 
ATOM     11  C   UNL     1      44.194   5.867  12.906  0.00  0.00    +0.000 C 
ATOM     12  C   UNL     1      42.861   5.281  12.396  0.00  0.00    +0.000 C 
ATOM     13  C   UNL     1      43.051   4.271  11.260  0.00  0.00    +0.000 C 
BRANCH   8  14
ATOM     14  N   UNL     1      44.322   2.341  10.442  0.00  0.00    +0.000 NA
ATOM     15  H   UNL     1      45.308   2.419  10.192  0.00  0.00    +0.000 HD
ATOM     16  H   UNL     1      43.805   2.704   9.641  0.00  0.00    +0.000 HD
ENDBRANCH   8  14
ENDBRANCH   7  11
ENDBRANCH   1   7
BRANCH   4  17
ATOM     17  C   UNL     1      50.067   8.739  13.268  0.00  0.00    +0.000 C 
BRANCH  17  18
ATOM     18  N   UNL     1      50.757   7.800  14.121  0.00  0.00    +0.000 N 
ATOM     19  C   UNL     1      50.737   7.894  15.491  0.00  0.00    +0.000 C 
ATOM     20  O   UNL     1      50.144   8.797  16.074  0.00  0.00    +0.000 OA
ATOM     21  H   UNL     1      51.404   7.160  13.674  0.00  0.00    +0.000 HD
BRANCH  19  22
ATOM     22  C   UNL     1      51.412   6.819  16.231  0.00  0.00    +0.000 A 
ATOM     23  C   UNL     1      52.792   6.864  16.385  0.00  0.00    +0.000 A 
ATOM     24  S   UNL     1      53.424   5.572  17.299  0.00  0.00    +0.000 S 
ATOM     25  C   UNL     1      51.883   4.879  17.485  0.00  0.00    +0.000 A 
ATOM     26  N   UNL     1      51.722   3.709  18.160  0.00  0.00    +0.000 NA
ATOM     27  C   UNL     1      50.508   3.271  18.188  0.00  0.00    +0.000 A 
ATOM     28  N   UNL     1      49.436   3.905  17.616  0.00  0.00    +0.000 N 
ATOM     29  C   UNL     1      49.540   5.127  16.992  0.00  0.00    +0.000 A 
ATOM     30  O   UNL     1      48.546   5.729  16.600  0.00  0.00    +0.000 OA
ATOM     31  C   UNL     1      50.894   5.637  16.883  0.00  0.00    +0.000 A 
ATOM     32  H   UNL     1      48.506   3.524  17.698  0.00  0.00    +0.000 HD
ENDBRANCH  19  22
ENDBRANCH  17  18
ENDBRANCH   4  17
TORSDOF 6
ENDMDL
MODEL 9
REMARK VINA RESULT:    -6.061      3.372      4.139
REMARK INTER + INTRA:          -9.112
REMARK INTER:                  -7.780
REMARK INTRA:                  -1.332
REMARK UNBOUND:                -1.103
REMARK  Name = 
REMARK  6 active torsions:
REMARK  status: ('A' for Active; 'I' for Inactive)
REMARK    1  A    between atoms: N_1  and  C_2
REMARK    2  A    between atoms: C_5  and  C_6
REMARK    3  A    between atoms: C_6  and  C_7
REMARK    4  A    between atoms: C_10  and  C_11
REMARK    5  A    between atoms: C_11  and  N_12
REMARK    6  A    between atoms: C_13  and  C_15
REMARK                            x       y       z     vdW  Elec       q    Type
REMARK                         _______ _______ _______ _____ _____    ______ ____
ROOT
ATOM      1  C   UNL     1      46.493   7.269  12.214  0.00  0.00    +0.000 A 
ATOM      2  C   UNL     1      47.727   6.630  12.317  0.00  0.00    +0.000 A 
ATOM      3  C   UNL     1      48.681   7.132  13.195  0.00  0.00    +0.000 A 
ATOM      4  C   UNL     1      48.409   8.285  13.921  0.00  0.00    +0.000 A 
ATOM      5  C   UNL     1      47.160   8.869  13.745  0.00  0.00    +0.000 A 
ATOM      6  N   UNL     1      46.199   8.386  12.919  0.00  0.00    +0.000 NA
ENDROOT
BRANCH   1   7
ATOM      7  C   UNL     1      45.424   6.718  11.299  0.00  0.00    +0.000 C 
BRANCH   7  11
ATOM      8  C   UNL     1      44.118   3.225  10.990  0.00  0.00    +0.000 C 
ATOM      9  C   UNL     1      45.141   3.655  12.043  0.00  0.00    +0.000 C 
ATOM     10  C   UNL     1      44.624   4.822  12.883  0.00  0.00    +0.000 C 
ATOM     11  C   UNL     1      44.236   6.036  12.023  0.00  0.00    +0.000 C 
ATOM     12  C   UNL     1      43.162   5.588  11.011  0.00  0.00    +0.000 C 
ATOM     13  C   UNL     1      43.614   4.406  10.148  0.00  0.00    +0.000 C 
BRANCH   8  14
ATOM     14  N   UNL     1      44.701   2.209  10.112  0.00  0.00    +0.000 NA
ATOM     15  H   UNL     1      43.966   1.776   9.552  0.00  0.00    +0.000 HD
ATOM     16  H   UNL     1      45.101   1.456  10.672  0.00  0.00    +0.000 HD
ENDBRANCH   8  14
ENDBRANCH   7  11
ENDBRANCH   1   7
BRANCH   4  17
ATOM     17  C   UNL     1      49.419   8.852  14.870  0.00  0.00    +0.000 C 
BRANCH  17  18
ATOM     18  N   UNL     1      49.464   8.116  16.111  0.00  0.00    +0.000 N 
ATOM     19  C   UNL     1      48.676   8.434  17.189  0.00  0.00    +0.000 C 
ATOM     20  O   UNL     1      47.895   9.381  17.168  0.00  0.00    +0.000 OA
ATOM     21  H   UNL     1      50.224   7.454  16.227  0.00  0.00    +0.000 HD
BRANCH  19  22
ATOM     22  C   UNL     1      48.768   7.544  18.355  0.00  0.00    +0.000 A 
ATOM     23  C   UNL     1      49.010   8.090  19.609  0.00  0.00    +0.000 A 
ATOM     24  S   UNL     1      49.050   6.939  20.864  0.00  0.00    +0.000 S 
ATOM     25  C   UNL     1      48.790   5.661  19.772  0.00  0.00    +0.000 A 
ATOM     26  N   UNL     1      48.745   4.372  20.207  0.00  0.00    +0.000 NA
ATOM     27  C   UNL     1      48.587   3.499  19.269  0.00  0.00    +0.000 A 
ATOM     28  N   UNL     1      48.454   3.797  17.939  0.00  0.00    +0.000 N 
ATOM     29  C   UNL     1      48.416   5.088  17.465  0.00  0.00    +0.000 A 
ATOM     30  O   UNL     1      48.170   5.329  16.288  0.00  0.00    +0.000 OA
ATOM     31  C   UNL     1      48.647   6.108  18.471  0.00  0.00    +0.000 A 
ATOM     32  H   UNL     1      48.304   3.068  17.258  0.00  0.00    +0.000 HD
ENDBRANCH  19  22
ENDBRANCH  17  18
ENDBRANCH   4  17
TORSDOF 6
ENDMDL
