MODEL 1
REMARK VINA RESULT:    -7.570      0.000      0.000
REMARK INTER + INTRA:         -13.021
REMARK INTER:                 -11.775
REMARK INTRA:                  -1.247
REMARK UNBOUND:                -1.247
REMARK  Name = 
REMARK  10 active torsions:
REMARK  status: ('A' for Active; 'I' for Inactive)
REMARK    1  A    between atoms: N_1  and  C_2
REMARK    2  A    between atoms: C_2  and  C_3
REMARK    3  A    between atoms: C_3  and  N_4
REMARK    4  A    between atoms: C_3  and  C_21
REMARK    5  A    between atoms: N_4  and  C_5
REMARK    6  A    between atoms: C_5  and  C_6
REMARK    7  A    between atoms: C_9  and  C_10
REMARK    8  A    between atoms: C_10  and  O_11
REMARK    9  A    between atoms: O_11  and  C_12
REMARK   10  A    between atoms: C_12  and  C_13
REMARK                            x       y       z     vdW  Elec       q    Type
REMARK                         _______ _______ _______ _____ _____    ______ ____
ROOT
ATOM      1  N   UNL     1      47.260   7.414  14.312  0.00  0.00    +0.000 NA
ATOM      2  H   UNL     1      46.749   6.532  14.248  0.00  0.00    +0.000 HD
ENDROOT
BRANCH   1   3
ATOM      3  C   UNL     1      48.671   7.027  14.445  0.00  0.00    +0.000 C 
BRANCH   3   4
ATOM      4  C   UNL     1      48.737   6.585  15.912  0.00  0.00    +0.000 A 
ATOM      5  C   UNL     1      49.360   7.297  16.921  0.00  0.00    +0.000 A 
ATOM      6  S   UNL     1      49.757   6.293  18.251  0.00  0.00    +0.000 S 
ATOM      7  C   UNL     1      48.971   4.947  17.557  0.00  0.00    +0.000 A 
ATOM      8  N   UNL     1      49.066   3.700  18.090  0.00  0.00    +0.000 NA
ATOM      9  C   UNL     1      48.423   2.790  17.433  0.00  0.00    +0.000 A 
ATOM     10  N   UNL     1      47.644   3.020  16.323  0.00  0.00    +0.000 N 
ATOM     11  C   UNL     1      47.443   4.275  15.792  0.00  0.00    +0.000 A 
ATOM     12  O   UNL     1      46.613   4.466  14.906  0.00  0.00    +0.000 OA
ATOM     13  C   UNL     1      48.279   5.298  16.417  0.00  0.00    +0.000 A 
ATOM     14  H   UNL     1      47.106   2.276  15.909  0.00  0.00    +0.000 HD
ENDBRANCH   3   4
BRANCH   3  15
ATOM     15  C   UNL     1      49.734   8.142  14.193  0.00  0.00    +0.000 C 
BRANCH  15  16
ATOM     16  N   UNL     1      50.897   7.662  13.410  0.00  0.00    +0.000 NA
ATOM     17  H   UNL     1      50.581   7.422  12.467  0.00  0.00    +0.000 HD
ATOM     18  H   UNL     1      51.211   6.775  13.805  0.00  0.00    +0.000 HD
ENDBRANCH  15  16
ENDBRANCH   3  15
ENDBRANCH   1   3
BRANCH   1  19
ATOM     19  C   UNL     1      46.718   8.105  13.146  0.00  0.00    +0.000 C 
BRANCH  19  20
ATOM     20  C   UNL     1      45.967   7.043  12.310  0.00  0.00    +0.000 A 
ATOM     21  C   UNL     1      44.833   6.392  12.843  0.00  0.00    +0.000 A 
ATOM     22  C   UNL     1      44.232   5.310  12.203  0.00  0.00    +0.000 A 
ATOM     23  C   UNL     1      44.697   4.891  10.956  0.00  0.00    +0.000 A 
ATOM     24  C   UNL     1      45.776   5.571  10.374  0.00  0.00    +0.000 A 
ATOM     25  C   UNL     1      46.413   6.636  11.049  0.00  0.00    +0.000 A 
BRANCH  23  26
ATOM     26  C   UNL     1      43.992   3.757  10.248  0.00  0.00    +0.000 C 
BRANCH  26  27
ATOM     27  O   UNL     1      44.817   2.589  10.169  0.00  0.00    +0.000 OA
BRANCH  27  28
ATOM     28  C   UNL     1      44.642   1.875   8.946  0.00  0.00    +0.000 C 
BRANCH  28  29
ATOM     29  C   UNL     1      45.851   2.068   8.099  0.00  0.00    +0.000 A 
ATOM     30  C   UNL     1      46.722   1.039   7.805  0.00  0.00    +0.000 A 
ATOM     31  N   UNL     1      47.807   1.166   7.010  0.00  0.00    +0.000 NA
ATOM     32  C   UNL     1      48.006   2.397   6.511  0.00  0.00    +0.000 A 
ATOM     33  N   UNL     1      47.239   3.477   6.725  0.00  0.00    +0.000 NA
ATOM     34  C   UNL     1      46.176   3.286   7.531  0.00  0.00    +0.000 A 
ENDBRANCH  28  29
ENDBRANCH  27  28
ENDBRANCH  26  27
ENDBRANCH  23  26
ENDBRANCH  19  20
ENDBRANCH   1  19
TORSDOF 10
ENDMDL
MODEL 2
REMARK VINA RESULT:    -7.453      1.262      1.630
REMARK INTER + INTRA:         -12.839
REMARK INTER:                 -11.512
REMARK INTRA:                  -1.327
REMARK UNBOUND:                -1.247
REMARK  Name = 
REMARK  10 active torsions:
REMARK  status: ('A' for Active; 'I' for Inactive)
REMARK    1  A    between atoms: N_1  and  C_2
REMARK    2  A    between atoms: C_2  and  C_3
REMARK    3  A    between atoms: C_3  and  N_4
REMARK    4  A    between atoms: C_3  and  C_21
REMARK    5  A    between atoms: N_4  and  C_5
REMARK    6  A    between atoms: C_5  and  C_6
REMARK    7  A    between atoms: C_9  and  C_10
REMARK    8  A    between atoms: C_10  and  O_11
REMARK    9  A    between atoms: O_11  and  C_12
REMARK   10  A    between atoms: C_12  and  C_13
REMARK                            x       y       z     vdW  Elec       q    Type
REMARK                         _______ _______ _______ _____ _____    ______ ____
ROOT
ATOM      1  N   UNL     1      48.405   6.249  14.284  0.00  0.00    +0.000 NA
ATOM      2  H   UNL     1      48.770   5.424  13.804  0.00  0.00    +0.000 HD
ENDROOT
BRANCH   1   3
ATOM      3  C   UNL     1      49.527   6.747  15.089  0.00  0.00    +0.000 C 
BRANCH   3   4
ATOM      4  C   UNL     1      48.869   6.934  16.462  0.00  0.00    +0.000 A 
ATOM      5  C   UNL     1      48.641   8.157  17.065  0.00  0.00    +0.000 A 
ATOM      6  S   UNL     1      48.453   8.001  18.761  0.00  0.00    +0.000 S 
ATOM      7  C   UNL     1      48.525   6.298  18.681  0.00  0.00    +0.000 A 
ATOM      8  N   UNL     1      48.596   5.524  19.796  0.00  0.00    +0.000 NA
ATOM      9  C   UNL     1      48.660   4.254  19.559  0.00  0.00    +0.000 A 
ATOM     10  N   UNL     1      48.600   3.680  18.310  0.00  0.00    +0.000 N 
ATOM     11  C   UNL     1      48.441   4.411  17.154  0.00  0.00    +0.000 A 
ATOM     12  O   UNL     1      48.225   3.859  16.077  0.00  0.00    +0.000 OA
ATOM     13  C   UNL     1      48.523   5.853  17.376  0.00  0.00    +0.000 A 
ATOM     14  H   UNL     1      48.574   2.678  18.204  0.00  0.00    +0.000 HD
ENDBRANCH   3   4
BRANCH   3  15
ATOM     15  C   UNL     1      50.175   8.094  14.640  0.00  0.00    +0.000 C 
BRANCH  15  16
ATOM     16  N   UNL     1      51.297   7.906  13.691  0.00  0.00    +0.000 NA
ATOM     17  H   UNL     1      51.223   6.974  13.275  0.00  0.00    +0.000 HD
ATOM     18  H   UNL     1      52.169   7.878  14.221  0.00  0.00    +0.000 HD
ENDBRANCH  15  16
ENDBRANCH   3  15
ENDBRANCH   1   3
BRANCH   1  19
ATOM     19  C   UNL     1      47.841   6.973  13.148  0.00  0.00    +0.000 C 
BRANCH  19  20
ATOM     20  C   UNL     1      46.732   6.073  12.555  0.00  0.00    +0.000 A 
ATOM     21  C   UNL     1      46.379   4.866  13.197  0.00  0.00    +0.000 A 
ATOM     22  C   UNL     1      45.516   3.942  12.610  0.00  0.00    +0.000 A 
ATOM     23  C   UNL     1      44.906   4.233  11.390  0.00  0.00    +0.000 A 
ATOM     24  C   UNL     1      45.186   5.459  10.771  0.00  0.00    +0.000 A 
ATOM     25  C   UNL     1      46.099   6.372  11.345  0.00  0.00    +0.000 A 
BRANCH  23  26
ATOM     26  C   UNL     1      43.924   3.246  10.802  0.00  0.00    +0.000 C 
BRANCH  26  27
ATOM     27  O   UNL     1      44.164   3.029   9.407  0.00  0.00    +0.000 OA
BRANCH  27  28
ATOM     28  C   UNL     1      44.813   1.786   9.148  0.00  0.00    +0.000 C 
BRANCH  28  29
ATOM     29  C   UNL     1      45.923   2.014   8.181  0.00  0.00    +0.000 A 
ATOM     30  C   UNL     1      46.203   3.259   7.656  0.00  0.00    +0.000 A 
ATOM     31  N   UNL     1      47.222   3.513   6.808  0.00  0.00    +0.000 NA
ATOM     32  C   UNL     1      47.972   2.446   6.483  0.00  0.00    +0.000 A 
ATOM     33  N   UNL     1      47.801   1.190   6.920  0.00  0.00    +0.000 NA
ATOM     34  C   UNL     1      46.763   1.001   7.759  0.00  0.00    +0.000 A 
ENDBRANCH  28  29
ENDBRANCH  27  28
ENDBRANCH  26  27
ENDBRANCH  23  26
ENDBRANCH  19  20
ENDBRANCH   1  19
TORSDOF 10
ENDMDL
MODEL 3
REMARK VINA RESULT:    -7.414      1.991      3.207
REMARK INTER + INTRA:         -12.778
REMARK INTER:                 -11.802
REMARK INTRA:                  -0.976
REMARK UNBOUND:                -1.247
REMARK  Name = 
REMARK  10 active torsions:
REMARK  status: ('A' for Active; 'I' for Inactive)
REMARK    1  A    between atoms: N_1  and  C_2
REMARK    2  A    between atoms: C_2  and  C_3
REMARK    3  A    between atoms: C_3  and  N_4
REMARK    4  A    between atoms: C_3  and  C_21
REMARK    5  A    between atoms: N_4  and  C_5
REMARK    6  A    between atoms: C_5  and  C_6
REMARK    7  A    between atoms: C_9  and  C_10
REMARK    8  A    between atoms: C_10  and  O_11
REMARK    9  A    between atoms: O_11  and  C_12
REMARK   10  A    between atoms: C_12  and  C_13
REMARK                            x       y       z     vdW  Elec       q    Type
REMARK                         _______ _______ _______ _____ _____    ______ ____
ROOT
ATOM      1  N   UNL     1      48.065   4.386  15.437  0.00  0.00    +0.000 NA
ATOM      2  H   UNL     1      49.020   4.685  15.644  0.00  0.00    +0.000 HD
ENDROOT
BRANCH   1   3
ATOM      3  C   UNL     1      47.564   3.818  16.695  0.00  0.00    +0.000 C 
BRANCH   3   4
ATOM      4  C   UNL     1      47.916   4.921  17.700  0.00  0.00    +0.000 A 
ATOM      5  C   UNL     1      47.008   5.543  18.536  0.00  0.00    +0.000 A 
ATOM      6  S   UNL     1      47.581   7.066  19.074  0.00  0.00    +0.000 S 
ATOM      7  C   UNL     1      49.094   6.839  18.319  0.00  0.00    +0.000 A 
ATOM      8  N   UNL     1      50.018   7.833  18.237  0.00  0.00    +0.000 NA
ATOM      9  C   UNL     1      51.105   7.499  17.620  0.00  0.00    +0.000 A 
ATOM     10  N   UNL     1      51.380   6.244  17.129  0.00  0.00    +0.000 N 
ATOM     11  C   UNL     1      50.518   5.179  17.262  0.00  0.00    +0.000 A 
ATOM     12  O   UNL     1      50.864   4.038  16.961  0.00  0.00    +0.000 OA
ATOM     13  C   UNL     1      49.220   5.562  17.814  0.00  0.00    +0.000 A 
ATOM     14  H   UNL     1      52.282   6.033  16.731  0.00  0.00    +0.000 HD
ENDBRANCH   3   4
BRANCH   3  15
ATOM     15  C   UNL     1      48.202   2.472  17.163  0.00  0.00    +0.000 C 
BRANCH  15  16
ATOM     16  N   UNL     1      49.106   1.880  16.149  0.00  0.00    +0.000 NA
ATOM     17  H   UNL     1      49.393   0.951  16.467  0.00  0.00    +0.000 HD
ATOM     18  H   UNL     1      49.971   2.420  16.132  0.00  0.00    +0.000 HD
ENDBRANCH  15  16
ENDBRANCH   3  15
ENDBRANCH   1   3
BRANCH   1  19
ATOM     19  C   UNL     1      47.543   5.610  14.838  0.00  0.00    +0.000 C 
BRANCH  19  20
ATOM     20  C   UNL     1      46.540   5.175  13.743  0.00  0.00    +0.000 A 
ATOM     21  C   UNL     1      45.699   6.131  13.132  0.00  0.00    +0.000 A 
ATOM     22  C   UNL     1      44.664   5.763  12.274  0.00  0.00    +0.000 A 
ATOM     23  C   UNL     1      44.488   4.423  11.927  0.00  0.00    +0.000 A 
ATOM     24  C   UNL     1      45.360   3.466  12.465  0.00  0.00    +0.000 A 
ATOM     25  C   UNL     1      46.376   3.837  13.373  0.00  0.00    +0.000 A 
BRANCH  23  26
ATOM     26  C   UNL     1      43.402   4.052  10.944  0.00  0.00    +0.000 C 
BRANCH  26  27
ATOM     27  O   UNL     1      43.896   3.195   9.909  0.00  0.00    +0.000 OA
BRANCH  27  28
ATOM     28  C   UNL     1      44.580   3.911   8.882  0.00  0.00    +0.000 C 
BRANCH  28  29
ATOM     29  C   UNL     1      45.598   3.015   8.266  0.00  0.00    +0.000 A 
ATOM     30  C   UNL     1      45.677   1.669   8.563  0.00  0.00    +0.000 A 
ATOM     31  N   UNL     1      46.560   0.818   7.998  0.00  0.00    +0.000 NA
ATOM     32  C   UNL     1      47.395   1.375   7.105  0.00  0.00    +0.000 A 
ATOM     33  N   UNL     1      47.422   2.663   6.735  0.00  0.00    +0.000 NA
ATOM     34  C   UNL     1      46.521   3.462   7.340  0.00  0.00    +0.000 A 
ENDBRANCH  28  29
ENDBRANCH  27  28
ENDBRANCH  26  27
ENDBRANCH  23  26
ENDBRANCH  19  20
ENDBRANCH   1  19
TORSDOF 10
ENDMDL
MODEL 4
REMARK VINA RESULT:    -7.369      1.802      2.873
REMARK INTER + INTRA:         -12.708
REMARK INTER:                 -11.793
REMARK INTRA:                  -0.915
REMARK UNBOUND:                -1.247
REMARK  Name = 
REMARK  10 active torsions:
REMARK  status: ('A' for Active; 'I' for Inactive)
REMARK    1  A    between atoms: N_1  and  C_2
REMARK    2  A    between atoms: C_2  and  C_3
REMARK    3  A    between atoms: C_3  and  N_4
REMARK    4  A    between atoms: C_3  and  C_21
REMARK    5  A    between atoms: N_4  and  C_5
REMARK    6  A    between atoms: C_5  and  C_6
REMARK    7  A    between atoms: C_9  and  C_10
REMARK    8  A    between atoms: C_10  and  O_11
REMARK    9  A    between atoms: O_11  and  C_12
REMARK   10  A    between atoms: C_12  and  C_13
REMARK                            x       y       z     vdW  Elec       q    Type
REMARK                         _______ _______ _______ _____ _____    ______ ____
ROOT
ATOM      1  N   UNL     1      48.242   5.450  14.804  0.00  0.00    +0.000 NA
ATOM      2  H   UNL     1      49.189   5.825  14.873  0.00  0.00    +0.000 HD
ENDROOT
BRANCH   1   3
ATOM      3  C   UNL     1      47.863   5.117  16.183  0.00  0.00    +0.000 C 
BRANCH   3   4
ATOM      4  C   UNL     1      48.973   5.806  16.987  0.00  0.00    +0.000 A 
ATOM      5  C   UNL     1      50.163   6.265  16.452  0.00  0.00    +0.000 A 
ATOM      6  S   UNL     1      51.375   6.428  17.652  0.00  0.00    +0.000 S 
ATOM      7  C   UNL     1      50.285   6.033  18.904  0.00  0.00    +0.000 A 
ATOM      8  N   UNL     1      50.697   5.823  20.182  0.00  0.00    +0.000 NA
ATOM      9  C   UNL     1      49.747   5.518  21.004  0.00  0.00    +0.000 A 
ATOM     10  N   UNL     1      48.411   5.462  20.680  0.00  0.00    +0.000 N 
ATOM     11  C   UNL     1      47.929   5.750  19.423  0.00  0.00    +0.000 A 
ATOM     12  O   UNL     1      46.722   5.852  19.211  0.00  0.00    +0.000 OA
ATOM     13  C   UNL     1      48.991   5.945  18.437  0.00  0.00    +0.000 A 
ATOM     14  H   UNL     1      47.715   5.297  21.390  0.00  0.00    +0.000 HD
ENDBRANCH   3   4
BRANCH   3  15
ATOM     15  C   UNL     1      47.820   3.603  16.557  0.00  0.00    +0.000 C 
BRANCH  15  16
ATOM     16  N   UNL     1      46.630   3.242  17.363  0.00  0.00    +0.000 NA
ATOM     17  H   UNL     1      46.410   2.257  17.202  0.00  0.00    +0.000 HD
ATOM     18  H   UNL     1      45.823   3.746  16.994  0.00  0.00    +0.000 HD
ENDBRANCH  15  16
ENDBRANCH   3  15
ENDBRANCH   1   3
BRANCH   1  19
ATOM     19  C   UNL     1      47.607   6.507  14.023  0.00  0.00    +0.000 C 
BRANCH  19  20
ATOM     20  C   UNL     1      46.547   5.823  13.128  0.00  0.00    +0.000 A 
ATOM     21  C   UNL     1      45.810   4.722  13.616  0.00  0.00    +0.000 A 
ATOM     22  C   UNL     1      44.976   3.968  12.793  0.00  0.00    +0.000 A 
ATOM     23  C   UNL     1      44.784   4.341  11.462  0.00  0.00    +0.000 A 
ATOM     24  C   UNL     1      45.451   5.475  10.977  0.00  0.00    +0.000 A 
ATOM     25  C   UNL     1      46.333   6.209  11.801  0.00  0.00    +0.000 A 
BRANCH  23  26
ATOM     26  C   UNL     1      43.827   3.548  10.604  0.00  0.00    +0.000 C 
BRANCH  26  27
ATOM     27  O   UNL     1      44.349   3.337   9.287  0.00  0.00    +0.000 OA
BRANCH  27  28
ATOM     28  C   UNL     1      44.991   2.070   9.147  0.00  0.00    +0.000 C 
BRANCH  28  29
ATOM     29  C   UNL     1      45.950   2.140   8.011  0.00  0.00    +0.000 A 
ATOM     30  C   UNL     1      46.017   3.227   7.163  0.00  0.00    +0.000 A 
ATOM     31  N   UNL     1      46.898   3.344   6.147  0.00  0.00    +0.000 NA
ATOM     32  C   UNL     1      47.732   2.302   5.994  0.00  0.00    +0.000 A 
ATOM     33  N   UNL     1      47.765   1.191   6.745  0.00  0.00    +0.000 NA
ATOM     34  C   UNL     1      46.857   1.133   7.738  0.00  0.00    +0.000 A 
ENDBRANCH  28  29
ENDBRANCH  27  28
ENDBRANCH  26  27
ENDBRANCH  23  26
ENDBRANCH  19  20
ENDBRANCH   1  19
TORSDOF 10
ENDMDL
MODEL 5
REMARK VINA RESULT:    -7.278      1.794      2.527
REMARK INTER + INTRA:         -12.566
REMARK INTER:                 -11.363
REMARK INTRA:                  -1.203
REMARK UNBOUND:                -1.247
REMARK  Name = 
REMARK  10 active torsions:
REMARK  status: ('A' for Active; 'I' for Inactive)
REMARK    1  A    between atoms: N_1  and  C_2
REMARK    2  A    between atoms: C_2  and  C_3
REMARK    3  A    between atoms: C_3  and  N_4
REMARK    4  A    between atoms: C_3  and  C_21
REMARK    5  A    between atoms: N_4  and  C_5
REMARK    6  A    between atoms: C_5  and  C_6
REMARK    7  A    between atoms: C_9  and  C_10
REMARK    8  A    between atoms: C_10  and  O_11
REMARK    9  A    between atoms: O_11  and  C_12
REMARK   10  A    between atoms: C_12  and  C_13
REMARK                            x       y       z     vdW  Elec       q    Type
REMARK                         _______ _______ _______ _____ _____    ______ ____
ROOT
ATOM      1  N   UNL     1      48.571   6.862  16.230  0.00  0.00    +0.000 NA
ATOM      2  H   UNL     1      48.472   5.845  16.243  0.00  0.00    +0.000 HD
ENDROOT
BRANCH   1   3
ATOM      3  C   UNL     1      49.361   7.182  17.426  0.00  0.00    +0.000 C 
BRANCH   3   4
ATOM      4  C   UNL     1      50.039   5.838  17.722  0.00  0.00    +0.000 A 
ATOM      5  C   UNL     1      51.382   5.681  18.010  0.00  0.00    +0.000 A 
ATOM      6  S   UNL     1      51.911   4.079  17.711  0.00  0.00    +0.000 S 
ATOM      7  C   UNL     1      50.330   3.554  17.341  0.00  0.00    +0.000 A 
ATOM      8  N   UNL     1      50.078   2.318  16.834  0.00  0.00    +0.000 NA
ATOM      9  C   UNL     1      48.828   2.086  16.596  0.00  0.00    +0.000 A 
ATOM     10  N   UNL     1      47.797   2.952  16.873  0.00  0.00    +0.000 N 
ATOM     11  C   UNL     1      47.986   4.181  17.466  0.00  0.00    +0.000 A 
ATOM     12  O   UNL     1      47.033   4.856  17.850  0.00  0.00    +0.000 OA
ATOM     13  C   UNL     1      49.397   4.536  17.603  0.00  0.00    +0.000 A 
ATOM     14  H   UNL     1      46.838   2.673  16.736  0.00  0.00    +0.000 HD
ENDBRANCH   3   4
BRANCH   3  15
ATOM     15  C   UNL     1      48.571   7.650  18.688  0.00  0.00    +0.000 C 
BRANCH  15  16
ATOM     16  N   UNL     1      47.108   7.708  18.462  0.00  0.00    +0.000 NA
ATOM     17  H   UNL     1      46.641   7.157  19.186  0.00  0.00    +0.000 HD
ATOM     18  H   UNL     1      46.894   7.219  17.593  0.00  0.00    +0.000 HD
ENDBRANCH  15  16
ENDBRANCH   3  15
ENDBRANCH   1   3
BRANCH   1  19
ATOM     19  C   UNL     1      49.055   7.051  14.866  0.00  0.00    +0.000 C 
BRANCH  19  20
ATOM     20  C   UNL     1      47.933   6.553  13.924  0.00  0.00    +0.000 A 
ATOM     21  C   UNL     1      47.162   5.423  14.274  0.00  0.00    +0.000 A 
ATOM     22  C   UNL     1      46.266   4.835  13.383  0.00  0.00    +0.000 A 
ATOM     23  C   UNL     1      46.046   5.411  12.132  0.00  0.00    +0.000 A 
ATOM     24  C   UNL     1      46.747   6.577  11.793  0.00  0.00    +0.000 A 
ATOM     25  C   UNL     1      47.691   7.142  12.679  0.00  0.00    +0.000 A 
BRANCH  23  26
ATOM     26  C   UNL     1      45.022   4.796  11.206  0.00  0.00    +0.000 C 
BRANCH  26  27
ATOM     27  O   UNL     1      45.384   4.966   9.831  0.00  0.00    +0.000 OA
BRANCH  27  28
ATOM     28  C   UNL     1      44.669   4.089   8.962  0.00  0.00    +0.000 C 
BRANCH  28  29
ATOM     29  C   UNL     1      45.629   3.131   8.349  0.00  0.00    +0.000 A 
ATOM     30  C   UNL     1      45.612   1.780   8.634  0.00  0.00    +0.000 A 
ATOM     31  N   UNL     1      46.440   0.875   8.070  0.00  0.00    +0.000 NA
ATOM     32  C   UNL     1      47.321   1.379   7.191  0.00  0.00    +0.000 A 
ATOM     33  N   UNL     1      47.441   2.666   6.832  0.00  0.00    +0.000 NA
ATOM     34  C   UNL     1      46.590   3.520   7.435  0.00  0.00    +0.000 A 
ENDBRANCH  28  29
ENDBRANCH  27  28
ENDBRANCH  26  27
ENDBRANCH  23  26
ENDBRANCH  19  20
ENDBRANCH   1  19
TORSDOF 10
ENDMDL
MODEL 6
REMARK VINA RESULT:    -7.163      2.497      3.597
REMARK INTER + INTRA:         -12.387
REMARK INTER:                 -11.337
REMARK INTRA:                  -1.050
REMARK UNBOUND:                -1.247
REMARK  Name = 
REMARK  10 active torsions:
REMARK  status: ('A' for Active; 'I' for Inactive)
REMARK    1  A    between atoms: N_1  and  C_2
REMARK    2  A    between atoms: C_2  and  C_3
REMARK    3  A    between atoms: C_3  and  N_4
REMARK    4  A    between atoms: C_3  and  C_21
REMARK    5  A    between atoms: N_4  and  C_5
REMARK    6  A    between atoms: C_5  and  C_6
REMARK    7  A    between atoms: C_9  and  C_10
REMARK    8  A    between atoms: C_10  and  O_11
REMARK    9  A    between atoms: O_11  and  C_12
REMARK   10  A    between atoms: C_12  and  C_13
REMARK                            x       y       z     vdW  Elec       q    Type
REMARK                         _______ _______ _______ _____ _____    ______ ____
ROOT
ATOM      1  N   UNL     1      48.052   5.889  16.340  0.00  0.00    +0.000 NA
ATOM      2  H   UNL     1      47.896   4.938  16.001  0.00  0.00    +0.000 HD
ENDROOT
BRANCH   1   3
ATOM      3  C   UNL     1      48.758   5.726  17.617  0.00  0.00    +0.000 C 
BRANCH   3   4
ATOM      4  C   UNL     1      49.668   4.527  17.320  0.00  0.00    +0.000 A 
ATOM      5  C   UNL     1      49.223   3.233  17.118  0.00  0.00    +0.000 A 
ATOM      6  S   UNL     1      50.466   2.086  17.395  0.00  0.00    +0.000 S 
ATOM      7  C   UNL     1      51.632   3.308  17.639  0.00  0.00    +0.000 A 
ATOM      8  N   UNL     1      52.887   3.032  18.084  0.00  0.00    +0.000 NA
ATOM      9  C   UNL     1      53.640   4.072  18.230  0.00  0.00    +0.000 A 
ATOM     10  N   UNL     1      53.277   5.361  17.914  0.00  0.00    +0.000 N 
ATOM     11  C   UNL     1      52.051   5.687  17.379  0.00  0.00    +0.000 A 
ATOM     12  O   UNL     1      51.821   6.818  16.955  0.00  0.00    +0.000 OA
ATOM     13  C   UNL     1      51.124   4.557  17.349  0.00  0.00    +0.000 A 
ATOM     14  H   UNL     1      53.943   6.114  17.976  0.00  0.00    +0.000 HD
ENDBRANCH   3   4
BRANCH   3  15
ATOM     15  C   UNL     1      47.884   5.411  18.871  0.00  0.00    +0.000 C 
BRANCH  15  16
ATOM     16  N   UNL     1      46.449   5.234  18.543  0.00  0.00    +0.000 NA
ATOM     17  H   UNL     1      46.076   4.465  19.105  0.00  0.00    +0.000 HD
ATOM     18  H   UNL     1      46.376   4.902  17.581  0.00  0.00    +0.000 HD
ENDBRANCH  15  16
ENDBRANCH   3  15
ENDBRANCH   1   3
BRANCH   1  19
ATOM     19  C   UNL     1      48.655   6.485  15.152  0.00  0.00    +0.000 C 
BRANCH  19  20
ATOM     20  C   UNL     1      47.736   6.127  13.960  0.00  0.00    +0.000 A 
ATOM     21  C   UNL     1      47.759   6.912  12.787  0.00  0.00    +0.000 A 
ATOM     22  C   UNL     1      46.830   6.736  11.762  0.00  0.00    +0.000 A 
ATOM     23  C   UNL     1      45.893   5.706  11.839  0.00  0.00    +0.000 A 
ATOM     24  C   UNL     1      45.901   4.868  12.963  0.00  0.00    +0.000 A 
ATOM     25  C   UNL     1      46.812   5.080  14.021  0.00  0.00    +0.000 A 
BRANCH  23  26
ATOM     26  C   UNL     1      44.937   5.491  10.688  0.00  0.00    +0.000 C 
BRANCH  26  27
ATOM     27  O   UNL     1      44.823   4.104  10.348  0.00  0.00    +0.000 OA
BRANCH  27  28
ATOM     28  C   UNL     1      44.488   3.901   8.976  0.00  0.00    +0.000 C 
BRANCH  28  29
ATOM     29  C   UNL     1      45.519   3.026   8.354  0.00  0.00    +0.000 A 
ATOM     30  C   UNL     1      45.603   1.674   8.621  0.00  0.00    +0.000 A 
ATOM     31  N   UNL     1      46.499   0.842   8.048  0.00  0.00    +0.000 NA
ATOM     32  C   UNL     1      47.342   1.423   7.179  0.00  0.00    +0.000 A 
ATOM     33  N   UNL     1      47.366   2.720   6.839  0.00  0.00    +0.000 NA
ATOM     34  C   UNL     1      46.452   3.499   7.450  0.00  0.00    +0.000 A 
ENDBRANCH  28  29
ENDBRANCH  27  28
ENDBRANCH  26  27
ENDBRANCH  23  26
ENDBRANCH  19  20
ENDBRANCH   1  19
TORSDOF 10
ENDMDL
MODEL 7
REMARK VINA RESULT:    -6.882      3.195      7.713
REMARK INTER + INTRA:         -11.951
REMARK INTER:                 -10.452
REMARK INTRA:                  -1.498
REMARK UNBOUND:                -1.247
REMARK  Name = 
REMARK  10 active torsions:
REMARK  status: ('A' for Active; 'I' for Inactive)
REMARK    1  A    between atoms: N_1  and  C_2
REMARK    2  A    between atoms: C_2  and  C_3
REMARK    3  A    between atoms: C_3  and  N_4
REMARK    4  A    between atoms: C_3  and  C_21
REMARK    5  A    between atoms: N_4  and  C_5
REMARK    6  A    between atoms: C_5  and  C_6
REMARK    7  A    between atoms: C_9  and  C_10
REMARK    8  A    between atoms: C_10  and  O_11
REMARK    9  A    between atoms: O_11  and  C_12
REMARK   10  A    between atoms: C_12  and  C_13
REMARK                            x       y       z     vdW  Elec       q    Type
REMARK                         _______ _______ _______ _____ _____    ______ ____
ROOT
ATOM      1  N   UNL     1      47.273   7.313  11.889  0.00  0.00    +0.000 NA
ATOM      2  H   UNL     1      47.686   6.676  12.573  0.00  0.00    +0.000 HD
ENDROOT
BRANCH   1   3
ATOM      3  C   UNL     1      45.830   7.049  11.948  0.00  0.00    +0.000 C 
BRANCH   3   4
ATOM      4  C   UNL     1      45.707   5.788  11.084  0.00  0.00    +0.000 A 
ATOM      5  C   UNL     1      46.003   5.726   9.735  0.00  0.00    +0.000 A 
ATOM      6  S   UNL     1      45.226   4.401   8.976  0.00  0.00    +0.000 S 
ATOM      7  C   UNL     1      44.616   3.822  10.461  0.00  0.00    +0.000 A 
ATOM      8  N   UNL     1      43.718   2.803  10.525  0.00  0.00    +0.000 NA
ATOM      9  C   UNL     1      43.347   2.497  11.725  0.00  0.00    +0.000 A 
ATOM     10  N   UNL     1      43.834   3.075  12.874  0.00  0.00    +0.000 N 
ATOM     11  C   UNL     1      44.807   4.049  12.871  0.00  0.00    +0.000 A 
ATOM     12  O   UNL     1      45.337   4.424  13.916  0.00  0.00    +0.000 OA
ATOM     13  C   UNL     1      45.132   4.525  11.528  0.00  0.00    +0.000 A 
ATOM     14  H   UNL     1      43.559   2.731  13.781  0.00  0.00    +0.000 HD
ENDBRANCH   3   4
BRANCH   3  15
ATOM     15  C   UNL     1      44.887   8.157  11.380  0.00  0.00    +0.000 C 
BRANCH  15  16
ATOM     16  N   UNL     1      43.479   7.711  11.265  0.00  0.00    +0.000 NA
ATOM     17  H   UNL     1      43.116   7.522  12.202  0.00  0.00    +0.000 HD
ATOM     18  H   UNL     1      43.464   6.802  10.800  0.00  0.00    +0.000 HD
ENDBRANCH  15  16
ENDBRANCH   3  15
ENDBRANCH   1   3
BRANCH   1  19
ATOM     19  C   UNL     1      47.884   8.569  12.313  0.00  0.00    +0.000 C 
BRANCH  19  20
ATOM     20  C   UNL     1      48.337   8.370  13.779  0.00  0.00    +0.000 A 
ATOM     21  C   UNL     1      48.781   7.103  14.218  0.00  0.00    +0.000 A 
ATOM     22  C   UNL     1      49.031   6.832  15.562  0.00  0.00    +0.000 A 
ATOM     23  C   UNL     1      48.926   7.850  16.511  0.00  0.00    +0.000 A 
ATOM     24  C   UNL     1      48.557   9.134  16.085  0.00  0.00    +0.000 A 
ATOM     25  C   UNL     1      48.258   9.393  14.729  0.00  0.00    +0.000 A 
BRANCH  23  26
ATOM     26  C   UNL     1      49.263   7.552  17.953  0.00  0.00    +0.000 C 
BRANCH  26  27
ATOM     27  O   UNL     1      48.187   6.883  18.620  0.00  0.00    +0.000 OA
BRANCH  27  28
ATOM     28  C   UNL     1      48.586   5.642  19.200  0.00  0.00    +0.000 C 
BRANCH  28  29
ATOM     29  C   UNL     1      48.454   4.568  18.177  0.00  0.00    +0.000 A 
ATOM     30  C   UNL     1      49.511   3.759  17.812  0.00  0.00    +0.000 A 
ATOM     31  N   UNL     1      49.422   2.751  16.918  0.00  0.00    +0.000 NA
ATOM     32  C   UNL     1      48.205   2.578  16.375  0.00  0.00    +0.000 A 
ATOM     33  N   UNL     1      47.104   3.296  16.642  0.00  0.00    +0.000 NA
ATOM     34  C   UNL     1      47.261   4.291  17.537  0.00  0.00    +0.000 A 
ENDBRANCH  28  29
ENDBRANCH  27  28
ENDBRANCH  26  27
ENDBRANCH  23  26
ENDBRANCH  19  20
ENDBRANCH   1  19
TORSDOF 10
ENDMDL
MODEL 8
REMARK VINA RESULT:    -6.392      1.889      2.629
REMARK INTER + INTRA:         -11.189
REMARK INTER:                 -10.262
REMARK INTRA:                  -0.928
REMARK UNBOUND:                -1.247
REMARK  Name = 
REMARK  10 active torsions:
REMARK  status: ('A' for Active; 'I' for Inactive)
REMARK    1  A    between atoms: N_1  and  C_2
REMARK    2  A    between atoms: C_2  and  C_3
REMARK    3  A    between atoms: C_3  and  N_4
REMARK    4  A    between atoms: C_3  and  C_21
REMARK    5  A    between atoms: N_4  and  C_5
REMARK    6  A    between atoms: C_5  and  C_6
REMARK    7  A    between atoms: C_9  and  C_10
REMARK    8  A    between atoms: C_10  and  O_11
REMARK    9  A    between atoms: O_11  and  C_12
REMARK   10  A    between atoms: C_12  and  C_13
REMARK                            x       y       z     vdW  Elec       q    Type
REMARK                         _______ _______ _______ _____ _____    ______ ____
ROOT
ATOM      1  N   UNL     1      47.942   6.456  15.546  0.00  0.00    +0.000 NA
ATOM      2  H   UNL     1      47.694   6.428  16.537  0.00  0.00    +0.000 HD
ENDROOT
BRANCH   1   3
ATOM      3  C   UNL     1      49.168   7.263  15.485  0.00  0.00    +0.000 C 
BRANCH   3   4
ATOM      4  C   UNL     1      49.977   6.691  16.656  0.00  0.00    +0.000 A 
ATOM      5  C   UNL     1      51.270   6.209  16.559  0.00  0.00    +0.000 A 
ATOM      6  S   UNL     1      51.647   5.144  17.846  0.00  0.00    +0.000 S 
ATOM      7  C   UNL     1      50.152   5.435  18.615  0.00  0.00    +0.000 A 
ATOM      8  N   UNL     1      49.740   4.715  19.693  0.00  0.00    +0.000 NA
ATOM      9  C   UNL     1      48.577   5.052  20.144  0.00  0.00    +0.000 A 
ATOM     10  N   UNL     1      47.809   6.084  19.657  0.00  0.00    +0.000 N 
ATOM     11  C   UNL     1      48.215   6.901  18.626  0.00  0.00    +0.000 A 
ATOM     12  O   UNL     1      47.583   7.912  18.327  0.00  0.00    +0.000 OA
ATOM     13  C   UNL     1      49.453   6.448  17.993  0.00  0.00    +0.000 A 
ATOM     14  H   UNL     1      46.947   6.344  20.110  0.00  0.00    +0.000 HD
ENDBRANCH   3   4
BRANCH   3  15
ATOM     15  C   UNL     1      49.008   8.804  15.673  0.00  0.00    +0.000 C 
BRANCH  15  16
ATOM     16  N   UNL     1      47.592   9.240  15.674  0.00  0.00    +0.000 NA
ATOM     17  H   UNL     1      47.185   9.038  14.757  0.00  0.00    +0.000 HD
ATOM     18  H   UNL     1      47.566  10.257  15.745  0.00  0.00    +0.000 HD
ENDBRANCH  15  16
ENDBRANCH   3  15
ENDBRANCH   1   3
BRANCH   1  19
ATOM     19  C   UNL     1      47.895   5.032  15.233  0.00  0.00    +0.000 C 
BRANCH  19  20
ATOM     20  C   UNL     1      47.014   4.884  13.970  0.00  0.00    +0.000 A 
ATOM     21  C   UNL     1      46.737   6.009  13.162  0.00  0.00    +0.000 A 
ATOM     22  C   UNL     1      45.812   5.962  12.121  0.00  0.00    +0.000 A 
ATOM     23  C   UNL     1      45.188   4.757  11.795  0.00  0.00    +0.000 A 
ATOM     24  C   UNL     1      45.504   3.611  12.538  0.00  0.00    +0.000 A 
ATOM     25  C   UNL     1      46.406   3.673  13.624  0.00  0.00    +0.000 A 
BRANCH  23  26
ATOM     26  C   UNL     1      44.236   4.713  10.623  0.00  0.00    +0.000 C 
BRANCH  26  27
ATOM     27  O   UNL     1      44.907   4.345   9.412  0.00  0.00    +0.000 OA
BRANCH  27  28
ATOM     28  C   UNL     1      44.701   2.977   9.063  0.00  0.00    +0.000 C 
BRANCH  28  29
ATOM     29  C   UNL     1      45.761   2.560   8.104  0.00  0.00    +0.000 A 
ATOM     30  C   UNL     1      46.318   3.432   7.191  0.00  0.00    +0.000 A 
ATOM     31  N   UNL     1      47.306   3.101   6.332  0.00  0.00    +0.000 NA
ATOM     32  C   UNL     1      47.727   1.828   6.410  0.00  0.00    +0.000 A 
ATOM     33  N   UNL     1      47.265   0.887   7.247  0.00  0.00    +0.000 NA
ATOM     34  C   UNL     1      46.276   1.277   8.074  0.00  0.00    +0.000 A 
ENDBRANCH  28  29
ENDBRANCH  27  28
ENDBRANCH  26  27
ENDBRANCH  23  26
ENDBRANCH  19  20
ENDBRANCH   1  19
TORSDOF 10
ENDMDL
MODEL 9
REMARK VINA RESULT:    -6.263      3.359      8.000
REMARK INTER + INTRA:         -10.987
REMARK INTER:                 -10.009
REMARK INTRA:                  -0.979
REMARK UNBOUND:                -1.247
REMARK  Name = 
REMARK  10 active torsions:
REMARK  status: ('A' for Active; 'I' for Inactive)
REMARK    1  A    between atoms: N_1  and  C_2
REMARK    2  A    between atoms: C_2  and  C_3
REMARK    3  A    between atoms: C_3  and  N_4
REMARK    4  A    between atoms: C_3  and  C_21
REMARK    5  A    between atoms: N_4  and  C_5
REMARK    6  A    between atoms: C_5  and  C_6
REMARK    7  A    between atoms: C_9  and  C_10
REMARK    8  A    between atoms: C_10  and  O_11
REMARK    9  A    between atoms: O_11  and  C_12
REMARK   10  A    between atoms: C_12  and  C_13
REMARK                            x       y       z     vdW  Elec       q    Type
REMARK                         _______ _______ _______ _____ _____    ______ ____
ROOT
ATOM      1  N   UNL     1      47.276   7.312  12.041  0.00  0.00    +0.000 NA
ATOM      2  H   UNL     1      47.651   6.493  12.523  0.00  0.00    +0.000 HD
ENDROOT
BRANCH   1   3
ATOM      3  C   UNL     1      45.822   7.108  12.021  0.00  0.00    +0.000 C 
BRANCH   3   4
ATOM      4  C   UNL     1      45.693   5.858  11.141  0.00  0.00    +0.000 A 
ATOM      5  C   UNL     1      45.980   5.814   9.789  0.00  0.00    +0.000 A 
ATOM      6  S   UNL     1      45.197   4.500   9.018  0.00  0.00    +0.000 S 
ATOM      7  C   UNL     1      44.597   3.901  10.499  0.00  0.00    +0.000 A 
ATOM      8  N   UNL     1      43.699   2.881  10.556  0.00  0.00    +0.000 NA
ATOM      9  C   UNL     1      43.336   2.560  11.755  0.00  0.00    +0.000 A 
ATOM     10  N   UNL     1      43.831   3.122  12.908  0.00  0.00    +0.000 N 
ATOM     11  C   UNL     1      44.804   4.097  12.911  0.00  0.00    +0.000 A 
ATOM     12  O   UNL     1      45.341   4.457  13.957  0.00  0.00    +0.000 OA
ATOM     13  C   UNL     1      45.121   4.590  11.572  0.00  0.00    +0.000 A 
ATOM     14  H   UNL     1      43.562   2.766  13.812  0.00  0.00    +0.000 HD
ENDBRANCH   3   4
BRANCH   3  15
ATOM     15  C   UNL     1      44.958   8.258  11.413  0.00  0.00    +0.000 C 
BRANCH  15  16
ATOM     16  N   UNL     1      44.535   9.255  12.424  0.00  0.00    +0.000 NA
ATOM     17  H   UNL     1      43.525   9.395  12.346  0.00  0.00    +0.000 HD
ATOM     18  H   UNL     1      44.935  10.160  12.174  0.00  0.00    +0.000 HD
ENDBRANCH  15  16
ENDBRANCH   3  15
ENDBRANCH   1   3
BRANCH   1  19
ATOM     19  C   UNL     1      47.934   8.372  12.797  0.00  0.00    +0.000 C 
BRANCH  19  20
ATOM     20  C   UNL     1      48.293   7.776  14.178  0.00  0.00    +0.000 A 
ATOM     21  C   UNL     1      48.203   6.383  14.394  0.00  0.00    +0.000 A 
ATOM     22  C   UNL     1      48.345   5.822  15.662  0.00  0.00    +0.000 A 
ATOM     23  C   UNL     1      48.669   6.630  16.752  0.00  0.00    +0.000 A 
ATOM     24  C   UNL     1      48.835   8.007  16.545  0.00  0.00    +0.000 A 
ATOM     25  C   UNL     1      48.643   8.579  15.268  0.00  0.00    +0.000 A 
BRANCH  23  26
ATOM     26  C   UNL     1      48.882   5.993  18.106  0.00  0.00    +0.000 C 
BRANCH  26  27
ATOM     27  O   UNL     1      49.464   4.690  17.990  0.00  0.00    +0.000 OA
BRANCH  27  28
ATOM     28  C   UNL     1      50.889   4.727  17.940  0.00  0.00    +0.000 C 
BRANCH  28  29
ATOM     29  C   UNL     1      51.406   3.331  17.904  0.00  0.00    +0.000 A 
ATOM     30  C   UNL     1      50.698   2.293  17.334  0.00  0.00    +0.000 A 
ATOM     31  N   UNL     1      51.149   1.023  17.249  0.00  0.00    +0.000 NA
ATOM     32  C   UNL     1      52.366   0.815  17.778  0.00  0.00    +0.000 A 
ATOM     33  N   UNL     1      53.149   1.734  18.361  0.00  0.00    +0.000 NA
ATOM     34  C   UNL     1      52.640   2.980  18.420  0.00  0.00    +0.000 A 
ENDBRANCH  28  29
ENDBRANCH  27  28
ENDBRANCH  26  27
ENDBRANCH  23  26
ENDBRANCH  19  20
ENDBRANCH   1  19
TORSDOF 10
ENDMDL
