MODEL 1
REMARK VINA RESULT:    -8.783      0.000      0.000
REMARK INTER + INTRA:         -11.587
REMARK INTER:                 -11.864
REMARK INTRA:                   0.277
REMARK UNBOUND:                 0.277
REMARK  Name = 
REMARK  7 active torsions:
REMARK  status: ('A' for Active; 'I' for Inactive)
REMARK    1  A    between atoms: C_1  and  C_2
REMARK    2  A    between atoms: C_2  and  C_3
REMARK    3  A    between atoms: C_2  and  C_14
REMARK    4  A    between atoms: C_3  and  N_4
REMARK    5  A    between atoms: C_9  and  C_10
REMARK    6  A    between atoms: C_18  and  O_19
REMARK    7  A    between atoms: O_19  and  C_20
REMARK                            x       y       z     vdW  Elec       q    Type
REMARK                         _______ _______ _______ _____ _____    ______ ____
ROOT
ATOM      1  C   UNL     1      43.571   3.302  11.664  0.00  0.00    +0.000 C 
ENDROOT
BRANCH   1   2
ATOM      2  N   UNL     1      43.969   2.346  10.639  0.00  0.00    +0.000 N 
ATOM      3  C   UNL     1      44.738   2.721   9.556  0.00  0.00    +0.000 A 
ATOM      4  C   UNL     1      44.661   3.959   8.912  0.00  0.00    +0.000 A 
ATOM      5  N   UNL     1      45.384   4.286   7.807  0.00  0.00    +0.000 NA
ATOM      6  C   UNL     1      46.187   3.304   7.338  0.00  0.00    +0.000 A 
ATOM      7  C   UNL     1      46.268   2.069   7.960  0.00  0.00    +0.000 A 
ATOM      8  N   UNL     1      45.554   1.753   9.081  0.00  0.00    +0.000 NA
ATOM      9  H   UNL     1      44.310   1.451  10.978  0.00  0.00    +0.000 HD
BRANCH   7  10
ATOM     10  C   UNL     1      47.152   1.015   7.393  0.00  0.00    +0.000 C 
ATOM     11  N   UNL     1      46.808  -0.276   7.688  0.00  0.00    +0.000 N 
ATOM     12  O   UNL     1      48.127   1.281   6.699  0.00  0.00    +0.000 OA
ATOM     13  H   UNL     1      45.979  -0.470   8.236  0.00  0.00    +0.000 HD
ATOM     14  H   UNL     1      47.357  -1.033   7.303  0.00  0.00    +0.000 HD
ENDBRANCH   7  10
ENDBRANCH   1   2
BRANCH   1  16
ATOM     15  C   UNL     1      43.249   5.822  11.553  0.00  0.00    +0.000 C 
ATOM     16  C   UNL     1      44.253   4.670  11.414  0.00  0.00    +0.000 C 
BRANCH  16  17
ATOM     17  C   UNL     1      45.458   4.942  12.304  0.00  0.00    +0.000 A 
ATOM     18  C   UNL     1      45.996   6.235  12.373  0.00  0.00    +0.000 A 
ATOM     19  C   UNL     1      47.013   6.534  13.282  0.00  0.00    +0.000 A 
ATOM     20  C   UNL     1      47.521   5.542  14.123  0.00  0.00    +0.000 A 
ATOM     21  C   UNL     1      47.042   4.237  14.024  0.00  0.00    +0.000 A 
ATOM     22  C   UNL     1      46.008   3.946  13.126  0.00  0.00    +0.000 A 
BRANCH  21  23
ATOM     23  O   UNL     1      47.461   3.176  14.777  0.00  0.00    +0.000 OA
BRANCH  23  24
ATOM     24  C   UNL     1      47.791   3.470  16.122  0.00  0.00    +0.000 C 
ATOM     25  F   UNL     1      46.649   3.722  16.808  0.00  0.00    +0.000 F 
ATOM     26  F   UNL     1      48.328   2.346  16.660  0.00  0.00    +0.000 F 
ENDBRANCH  23  24
ENDBRANCH  21  23
ENDBRANCH  16  17
ENDBRANCH   1  16
TORSDOF 6
ENDMDL
MODEL 2
REMARK VINA RESULT:    -8.384      4.257      7.319
REMARK INTER + INTRA:         -11.048
REMARK INTER:                 -10.514
REMARK INTRA:                  -0.534
REMARK UNBOUND:                 0.277
REMARK  Name = 
REMARK  7 active torsions:
REMARK  status: ('A' for Active; 'I' for Inactive)
REMARK    1  A    between atoms: C_1  and  C_2
REMARK    2  A    between atoms: C_2  and  C_3
REMARK    3  A    between atoms: C_2  and  C_14
REMARK    4  A    between atoms: C_3  and  N_4
REMARK    5  A    between atoms: C_9  and  C_10
REMARK    6  A    between atoms: C_18  and  O_19
REMARK    7  A    between atoms: O_19  and  C_20
REMARK                            x       y       z     vdW  Elec       q    Type
REMARK                         _______ _______ _______ _____ _____    ______ ____
ROOT
ATOM      1  C   UNL     1      44.994   5.028  12.780  0.00  0.00    +0.000 C 
ENDROOT
BRANCH   1   2
ATOM      2  N   UNL     1      45.766   4.145  13.645  0.00  0.00    +0.000 N 
ATOM      3  C   UNL     1      46.701   4.635  14.534  0.00  0.00    +0.000 A 
ATOM      4  C   UNL     1      47.514   5.749  14.305  0.00  0.00    +0.000 A 
ATOM      5  N   UNL     1      48.473   6.179  15.169  0.00  0.00    +0.000 NA
ATOM      6  C   UNL     1      48.617   5.426  16.285  0.00  0.00    +0.000 A 
ATOM      7  C   UNL     1      47.825   4.315  16.522  0.00  0.00    +0.000 A 
ATOM      8  N   UNL     1      46.850   3.900  15.660  0.00  0.00    +0.000 NA
ATOM      9  H   UNL     1      45.240   3.410  14.109  0.00  0.00    +0.000 HD
BRANCH   7  10
ATOM     10  C   UNL     1      48.035   3.509  17.754  0.00  0.00    +0.000 C 
ATOM     11  N   UNL     1      47.031   2.640  18.079  0.00  0.00    +0.000 N 
ATOM     12  O   UNL     1      49.049   3.611  18.438  0.00  0.00    +0.000 OA
ATOM     13  H   UNL     1      46.219   2.552  17.480  0.00  0.00    +0.000 HD
ATOM     14  H   UNL     1      47.135   2.046  18.890  0.00  0.00    +0.000 HD
ENDBRANCH   7  10
ENDBRANCH   1   2
BRANCH   1  16
ATOM     15  C   UNL     1      42.717   4.809  11.670  0.00  0.00    +0.000 C 
ATOM     16  C   UNL     1      44.117   4.195  11.813  0.00  0.00    +0.000 C 
BRANCH  16  17
ATOM     17  C   UNL     1      44.723   3.996  10.430  0.00  0.00    +0.000 A 
ATOM     18  C   UNL     1      45.267   5.090   9.744  0.00  0.00    +0.000 A 
ATOM     19  C   UNL     1      45.945   4.906   8.536  0.00  0.00    +0.000 A 
ATOM     20  C   UNL     1      46.073   3.629   7.988  0.00  0.00    +0.000 A 
ATOM     21  C   UNL     1      45.483   2.538   8.625  0.00  0.00    +0.000 A 
ATOM     22  C   UNL     1      44.823   2.724   9.845  0.00  0.00    +0.000 A 
BRANCH  21  23
ATOM     23  O   UNL     1      45.525   1.244   8.188  0.00  0.00    +0.000 OA
BRANCH  23  24
ATOM     24  C   UNL     1      46.768   0.811   7.666  0.00  0.00    +0.000 C 
ATOM     25  F   UNL     1      46.834  -0.540   7.755  0.00  0.00    +0.000 F 
ATOM     26  F   UNL     1      46.778   1.115   6.344  0.00  0.00    +0.000 F 
ENDBRANCH  23  24
ENDBRANCH  21  23
ENDBRANCH  16  17
ENDBRANCH   1  16
TORSDOF 6
ENDMDL
MODEL 3
REMARK VINA RESULT:    -8.126      4.525      7.509
REMARK INTER + INTRA:         -10.699
REMARK INTER:                  -9.979
REMARK INTRA:                  -0.719
REMARK UNBOUND:                 0.277
REMARK  Name = 
REMARK  7 active torsions:
REMARK  status: ('A' for Active; 'I' for Inactive)
REMARK    1  A    between atoms: C_1  and  C_2
REMARK    2  A    between atoms: C_2  and  C_3
REMARK    3  A    between atoms: C_2  and  C_14
REMARK    4  A    between atoms: C_3  and  N_4
REMARK    5  A    between atoms: C_9  and  C_10
REMARK    6  A    between atoms: C_18  and  O_19
REMARK    7  A    between atoms: O_19  and  C_20
REMARK                            x       y       z     vdW  Elec       q    Type
REMARK                         _______ _______ _______ _____ _____    ______ ____
ROOT
ATOM      1  C   UNL     1      46.734   6.540  12.225  0.00  0.00    +0.000 C 
ENDROOT
BRANCH   1   2
ATOM      2  N   UNL     1      47.207   5.395  12.992  0.00  0.00    +0.000 N 
ATOM      3  C   UNL     1      47.638   5.523  14.297  0.00  0.00    +0.000 A 
ATOM      4  C   UNL     1      48.322   6.630  14.807  0.00  0.00    +0.000 A 
ATOM      5  N   UNL     1      48.794   6.711  16.080  0.00  0.00    +0.000 NA
ATOM      6  C   UNL     1      48.580   5.612  16.840  0.00  0.00    +0.000 A 
ATOM      7  C   UNL     1      47.912   4.503  16.346  0.00  0.00    +0.000 A 
ATOM      8  N   UNL     1      47.423   4.436  15.073  0.00  0.00    +0.000 NA
ATOM      9  H   UNL     1      46.641   4.554  12.925  0.00  0.00    +0.000 HD
BRANCH   7  10
ATOM     10  C   UNL     1      47.719   3.311  17.216  0.00  0.00    +0.000 C 
ATOM     11  N   UNL     1      48.859   2.666  17.607  0.00  0.00    +0.000 N 
ATOM     12  O   UNL     1      46.607   2.931  17.568  0.00  0.00    +0.000 OA
ATOM     13  H   UNL     1      49.766   3.020  17.330  0.00  0.00    +0.000 HD
ATOM     14  H   UNL     1      48.788   1.868  18.224  0.00  0.00    +0.000 HD
ENDBRANCH   7  10
ENDBRANCH   1   2
BRANCH   1  16
ATOM     15  C   UNL     1      44.700   7.553  11.084  0.00  0.00    +0.000 C 
ATOM     16  C   UNL     1      45.288   6.290  11.728  0.00  0.00    +0.000 C 
BRANCH  16  17
ATOM     17  C   UNL     1      45.150   5.121  10.762  0.00  0.00    +0.000 A 
ATOM     18  C   UNL     1      44.385   4.004  11.123  0.00  0.00    +0.000 A 
ATOM     19  C   UNL     1      44.137   2.984  10.201  0.00  0.00    +0.000 A 
ATOM     20  C   UNL     1      44.665   3.056   8.912  0.00  0.00    +0.000 A 
ATOM     21  C   UNL     1      45.481   4.129   8.555  0.00  0.00    +0.000 A 
ATOM     22  C   UNL     1      45.709   5.159   9.475  0.00  0.00    +0.000 A 
BRANCH  21  23
ATOM     23  O   UNL     1      46.067   4.311   7.334  0.00  0.00    +0.000 OA
BRANCH  23  24
ATOM     24  C   UNL     1      46.531   3.136   6.694  0.00  0.00    +0.000 C 
ATOM     25  F   UNL     1      46.848   3.432   5.409  0.00  0.00    +0.000 F 
ATOM     26  F   UNL     1      47.687   2.773   7.306  0.00  0.00    +0.000 F 
ENDBRANCH  23  24
ENDBRANCH  21  23
ENDBRANCH  16  17
ENDBRANCH   1  16
TORSDOF 6
ENDMDL
MODEL 4
REMARK VINA RESULT:    -7.962      4.570      7.042
REMARK INTER + INTRA:         -10.477
REMARK INTER:                  -9.764
REMARK INTRA:                  -0.713
REMARK UNBOUND:                 0.277
REMARK  Name = 
REMARK  7 active torsions:
REMARK  status: ('A' for Active; 'I' for Inactive)
REMARK    1  A    between atoms: C_1  and  C_2
REMARK    2  A    between atoms: C_2  and  C_3
REMARK    3  A    between atoms: C_2  and  C_14
REMARK    4  A    between atoms: C_3  and  N_4
REMARK    5  A    between atoms: C_9  and  C_10
REMARK    6  A    between atoms: C_18  and  O_19
REMARK    7  A    between atoms: O_19  and  C_20
REMARK                            x       y       z     vdW  Elec       q    Type
REMARK                         _______ _______ _______ _____ _____    ______ ____
ROOT
ATOM      1  C   UNL     1      45.617   4.231  13.128  0.00  0.00    +0.000 C 
ENDROOT
BRANCH   1   2
ATOM      2  N   UNL     1      45.352   5.629  13.438  0.00  0.00    +0.000 N 
ATOM      3  C   UNL     1      46.133   6.647  12.929  0.00  0.00    +0.000 A 
ATOM      4  C   UNL     1      47.510   6.562  12.706  0.00  0.00    +0.000 A 
ATOM      5  N   UNL     1      48.273   7.598  12.262  0.00  0.00    +0.000 NA
ATOM      6  C   UNL     1      47.604   8.758  12.068  0.00  0.00    +0.000 A 
ATOM      7  C   UNL     1      46.241   8.861  12.293  0.00  0.00    +0.000 A 
ATOM      8  N   UNL     1      45.478   7.812  12.721  0.00  0.00    +0.000 NA
ATOM      9  H   UNL     1      44.380   5.917  13.386  0.00  0.00    +0.000 HD
BRANCH   7  10
ATOM     10  C   UNL     1      45.555  10.165  12.084  0.00  0.00    +0.000 C 
ATOM     11  N   UNL     1      44.243  10.218  12.465  0.00  0.00    +0.000 N 
ATOM     12  O   UNL     1      46.129  11.137  11.605  0.00  0.00    +0.000 OA
ATOM     13  H   UNL     1      43.802   9.411  12.888  0.00  0.00    +0.000 HD
ATOM     14  H   UNL     1      43.737  11.088  12.374  0.00  0.00    +0.000 HD
ENDBRANCH   7  10
ENDBRANCH   1   2
BRANCH   1  16
ATOM     15  C   UNL     1      43.191   4.432  12.394  0.00  0.00    +0.000 C 
ATOM     16  C   UNL     1      44.510   3.671  12.201  0.00  0.00    +0.000 C 
BRANCH  16  17
ATOM     17  C   UNL     1      44.874   3.662  10.722  0.00  0.00    +0.000 A 
ATOM     18  C   UNL     1      45.189   4.865  10.075  0.00  0.00    +0.000 A 
ATOM     19  C   UNL     1      45.654   4.863   8.758  0.00  0.00    +0.000 A 
ATOM     20  C   UNL     1      45.794   3.662   8.062  0.00  0.00    +0.000 A 
ATOM     21  C   UNL     1      45.426   2.461   8.669  0.00  0.00    +0.000 A 
ATOM     22  C   UNL     1      44.981   2.466   9.995  0.00  0.00    +0.000 A 
BRANCH  21  23
ATOM     23  O   UNL     1      45.503   1.223   8.095  0.00  0.00    +0.000 OA
BRANCH  23  24
ATOM     24  C   UNL     1      46.796   0.815   7.687  0.00  0.00    +0.000 C 
ATOM     25  F   UNL     1      46.862  -0.539   7.731  0.00  0.00    +0.000 F 
ATOM     26  F   UNL     1      46.937   1.168   6.384  0.00  0.00    +0.000 F 
ENDBRANCH  23  24
ENDBRANCH  21  23
ENDBRANCH  16  17
ENDBRANCH   1  16
TORSDOF 6
ENDMDL
MODEL 5
REMARK VINA RESULT:    -7.753      1.612      2.090
REMARK INTER + INTRA:         -10.195
REMARK INTER:                  -9.922
REMARK INTRA:                  -0.273
REMARK UNBOUND:                 0.277
REMARK  Name = 
REMARK  7 active torsions:
REMARK  status: ('A' for Active; 'I' for Inactive)
REMARK    1  A    between atoms: C_1  and  C_2
REMARK    2  A    between atoms: C_2  and  C_3
REMARK    3  A    between atoms: C_2  and  C_14
REMARK    4  A    between atoms: C_3  and  N_4
REMARK    5  A    between atoms: C_9  and  C_10
REMARK    6  A    between atoms: C_18  and  O_19
REMARK    7  A    between atoms: O_19  and  C_20
REMARK                            x       y       z     vdW  Elec       q    Type
REMARK                         _______ _______ _______ _____ _____    ______ ____
ROOT
ATOM      1  C   UNL     1      43.559   4.858  10.150  0.00  0.00    +0.000 C 
ENDROOT
BRANCH   1   2
ATOM      2  N   UNL     1      44.832   4.783   9.446  0.00  0.00    +0.000 N 
ATOM      3  C   UNL     1      45.285   3.605   8.889  0.00  0.00    +0.000 A 
ATOM      4  C   UNL     1      45.074   2.333   9.429  0.00  0.00    +0.000 A 
ATOM      5  N   UNL     1      45.584   1.188   8.898  0.00  0.00    +0.000 NA
ATOM      6  C   UNL     1      46.351   1.361   7.797  0.00  0.00    +0.000 A 
ATOM      7  C   UNL     1      46.577   2.616   7.255  0.00  0.00    +0.000 A 
ATOM      8  N   UNL     1      46.047   3.759   7.782  0.00  0.00    +0.000 NA
ATOM      9  H   UNL     1      45.021   5.538   8.792  0.00  0.00    +0.000 HD
BRANCH   7  10
ATOM     10  C   UNL     1      47.444   2.754   6.054  0.00  0.00    +0.000 C 
ATOM     11  N   UNL     1      48.763   2.436   6.230  0.00  0.00    +0.000 N 
ATOM     12  O   UNL     1      47.007   3.125   4.970  0.00  0.00    +0.000 OA
ATOM     13  H   UNL     1      49.091   2.101   7.127  0.00  0.00    +0.000 HD
ATOM     14  H   UNL     1      49.392   2.483   5.439  0.00  0.00    +0.000 HD
ENDBRANCH   7  10
ENDBRANCH   1   2
BRANCH   1  16
ATOM     15  C   UNL     1      42.783   5.331  12.525  0.00  0.00    +0.000 C 
ATOM     16  C   UNL     1      43.679   5.804  11.371  0.00  0.00    +0.000 C 
BRANCH  16  17
ATOM     17  C   UNL     1      45.101   5.991  11.882  0.00  0.00    +0.000 A 
ATOM     18  C   UNL     1      45.986   6.828  11.189  0.00  0.00    +0.000 A 
ATOM     19  C   UNL     1      47.248   7.117  11.713  0.00  0.00    +0.000 A 
ATOM     20  C   UNL     1      47.652   6.561  12.927  0.00  0.00    +0.000 A 
ATOM     21  C   UNL     1      46.808   5.678  13.600  0.00  0.00    +0.000 A 
ATOM     22  C   UNL     1      45.537   5.407  13.081  0.00  0.00    +0.000 A 
BRANCH  21  23
ATOM     23  O   UNL     1      47.087   5.059  14.786  0.00  0.00    +0.000 OA
BRANCH  23  24
ATOM     24  C   UNL     1      46.985   3.646  14.780  0.00  0.00    +0.000 C 
ATOM     25  F   UNL     1      47.403   3.182  13.577  0.00  0.00    +0.000 F 
ATOM     26  F   UNL     1      47.862   3.176  15.704  0.00  0.00    +0.000 F 
ENDBRANCH  23  24
ENDBRANCH  21  23
ENDBRANCH  16  17
ENDBRANCH   1  16
TORSDOF 6
ENDMDL
MODEL 6
REMARK VINA RESULT:    -7.742      4.624      7.602
REMARK INTER + INTRA:         -10.181
REMARK INTER:                  -9.452
REMARK INTRA:                  -0.729
REMARK UNBOUND:                 0.277
REMARK  Name = 
REMARK  7 active torsions:
REMARK  status: ('A' for Active; 'I' for Inactive)
REMARK    1  A    between atoms: C_1  and  C_2
REMARK    2  A    between atoms: C_2  and  C_3
REMARK    3  A    between atoms: C_2  and  C_14
REMARK    4  A    between atoms: C_3  and  N_4
REMARK    5  A    between atoms: C_9  and  C_10
REMARK    6  A    between atoms: C_18  and  O_19
REMARK    7  A    between atoms: O_19  and  C_20
REMARK                            x       y       z     vdW  Elec       q    Type
REMARK                         _______ _______ _______ _____ _____    ______ ____
ROOT
ATOM      1  C   UNL     1      46.979   6.375  12.590  0.00  0.00    +0.000 C 
ENDROOT
BRANCH   1   2
ATOM      2  N   UNL     1      47.097   6.383  14.042  0.00  0.00    +0.000 N 
ATOM      3  C   UNL     1      47.514   5.269  14.743  0.00  0.00    +0.000 A 
ATOM      4  C   UNL     1      47.219   3.948  14.392  0.00  0.00    +0.000 A 
ATOM      5  N   UNL     1      47.587   2.867  15.131  0.00  0.00    +0.000 NA
ATOM      6  C   UNL     1      48.252   3.155  16.274  0.00  0.00    +0.000 A 
ATOM      7  C   UNL     1      48.543   4.459  16.640  0.00  0.00    +0.000 A 
ATOM      8  N   UNL     1      48.188   5.539  15.883  0.00  0.00    +0.000 NA
ATOM      9  H   UNL     1      47.547   7.199  14.445  0.00  0.00    +0.000 HD
BRANCH   7  10
ATOM     10  C   UNL     1      49.260   4.723  17.916  0.00  0.00    +0.000 C 
ATOM     11  N   UNL     1      49.407   3.651  18.752  0.00  0.00    +0.000 N 
ATOM     12  O   UNL     1      49.700   5.832  18.203  0.00  0.00    +0.000 OA
ATOM     13  H   UNL     1      49.064   2.739  18.477  0.00  0.00    +0.000 HD
ATOM     14  H   UNL     1      49.914   3.767  19.620  0.00  0.00    +0.000 HD
ENDBRANCH   7  10
ENDBRANCH   1   2
BRANCH   1  16
ATOM     15  C   UNL     1      45.065   7.590  11.438  0.00  0.00    +0.000 C 
ATOM     16  C   UNL     1      45.489   6.311  12.174  0.00  0.00    +0.000 C 
BRANCH  16  17
ATOM     17  C   UNL     1      45.125   5.099  11.327  0.00  0.00    +0.000 A 
ATOM     18  C   UNL     1      44.489   4.000  11.920  0.00  0.00    +0.000 A 
ATOM     19  C   UNL     1      44.029   2.938  11.138  0.00  0.00    +0.000 A 
ATOM     20  C   UNL     1      44.212   2.950   9.754  0.00  0.00    +0.000 A 
ATOM     21  C   UNL     1      44.897   4.007   9.155  0.00  0.00    +0.000 A 
ATOM     22  C   UNL     1      45.339   5.078   9.940  0.00  0.00    +0.000 A 
BRANCH  21  23
ATOM     23  O   UNL     1      45.152   4.133   7.818  0.00  0.00    +0.000 OA
BRANCH  23  24
ATOM     24  C   UNL     1      46.349   3.529   7.362  0.00  0.00    +0.000 C 
ATOM     25  F   UNL     1      46.182   3.145   6.073  0.00  0.00    +0.000 F 
ATOM     26  F   UNL     1      47.310   4.488   7.361  0.00  0.00    +0.000 F 
ENDBRANCH  23  24
ENDBRANCH  21  23
ENDBRANCH  16  17
ENDBRANCH   1  16
TORSDOF 6
ENDMDL
MODEL 7
REMARK VINA RESULT:    -7.693      2.439      3.086
REMARK INTER + INTRA:         -10.114
REMARK INTER:                  -9.430
REMARK INTRA:                  -0.684
REMARK UNBOUND:                 0.277
REMARK  Name = 
REMARK  7 active torsions:
REMARK  status: ('A' for Active; 'I' for Inactive)
REMARK    1  A    between atoms: C_1  and  C_2
REMARK    2  A    between atoms: C_2  and  C_3
REMARK    3  A    between atoms: C_2  and  C_14
REMARK    4  A    between atoms: C_3  and  N_4
REMARK    5  A    between atoms: C_9  and  C_10
REMARK    6  A    between atoms: C_18  and  O_19
REMARK    7  A    between atoms: O_19  and  C_20
REMARK                            x       y       z     vdW  Elec       q    Type
REMARK                         _______ _______ _______ _____ _____    ______ ____
ROOT
ATOM      1  C   UNL     1      43.554   4.795  10.133  0.00  0.00    +0.000 C 
ENDROOT
BRANCH   1   2
ATOM      2  N   UNL     1      44.830   4.722   9.434  0.00  0.00    +0.000 N 
ATOM      3  C   UNL     1      45.281   3.548   8.865  0.00  0.00    +0.000 A 
ATOM      4  C   UNL     1      45.061   2.272   9.389  0.00  0.00    +0.000 A 
ATOM      5  N   UNL     1      45.568   1.131   8.847  0.00  0.00    +0.000 NA
ATOM      6  C   UNL     1      46.342   1.313   7.752  0.00  0.00    +0.000 A 
ATOM      7  C   UNL     1      46.576   2.573   7.226  0.00  0.00    +0.000 A 
ATOM      8  N   UNL     1      46.049   3.712   7.764  0.00  0.00    +0.000 NA
ATOM      9  H   UNL     1      45.026   5.484   8.791  0.00  0.00    +0.000 HD
BRANCH   7  10
ATOM     10  C   UNL     1      47.450   2.722   6.032  0.00  0.00    +0.000 C 
ATOM     11  N   UNL     1      48.779   2.462   6.228  0.00  0.00    +0.000 N 
ATOM     12  O   UNL     1      47.011   3.051   4.935  0.00  0.00    +0.000 OA
ATOM     13  H   UNL     1      49.111   2.160   7.135  0.00  0.00    +0.000 HD
ATOM     14  H   UNL     1      49.414   2.518   5.443  0.00  0.00    +0.000 HD
ENDBRANCH   7  10
ENDBRANCH   1   2
BRANCH   1  16
ATOM     15  C   UNL     1      42.455   5.636  12.266  0.00  0.00    +0.000 C 
ATOM     16  C   UNL     1      43.647   5.795  11.312  0.00  0.00    +0.000 C 
BRANCH  16  17
ATOM     17  C   UNL     1      44.943   5.709  12.107  0.00  0.00    +0.000 A 
ATOM     18  C   UNL     1      45.104   4.704  13.070  0.00  0.00    +0.000 A 
ATOM     19  C   UNL     1      46.331   4.526  13.713  0.00  0.00    +0.000 A 
ATOM     20  C   UNL     1      47.409   5.361  13.418  0.00  0.00    +0.000 A 
ATOM     21  C   UNL     1      47.249   6.405  12.509  0.00  0.00    +0.000 A 
ATOM     22  C   UNL     1      46.024   6.567  11.851  0.00  0.00    +0.000 A 
BRANCH  21  23
ATOM     23  O   UNL     1      48.217   7.297  12.142  0.00  0.00    +0.000 OA
BRANCH  23  24
ATOM     24  C   UNL     1      48.580   8.248  13.126  0.00  0.00    +0.000 C 
ATOM     25  F   UNL     1      47.554   8.387  14.002  0.00  0.00    +0.000 F 
ATOM     26  F   UNL     1      49.621   7.727  13.825  0.00  0.00    +0.000 F 
ENDBRANCH  23  24
ENDBRANCH  21  23
ENDBRANCH  16  17
ENDBRANCH   1  16
TORSDOF 6
ENDMDL
MODEL 8
REMARK VINA RESULT:    -7.374      3.625      5.838
REMARK INTER + INTRA:          -9.683
REMARK INTER:                  -9.083
REMARK INTRA:                  -0.601
REMARK UNBOUND:                 0.277
REMARK  Name = 
REMARK  7 active torsions:
REMARK  status: ('A' for Active; 'I' for Inactive)
REMARK    1  A    between atoms: C_1  and  C_2
REMARK    2  A    between atoms: C_2  and  C_3
REMARK    3  A    between atoms: C_2  and  C_14
REMARK    4  A    between atoms: C_3  and  N_4
REMARK    5  A    between atoms: C_9  and  C_10
REMARK    6  A    between atoms: C_18  and  O_19
REMARK    7  A    between atoms: O_19  and  C_20
REMARK                            x       y       z     vdW  Elec       q    Type
REMARK                         _______ _______ _______ _____ _____    ______ ____
ROOT
ATOM      1  C   UNL     1      47.673   4.970  15.599  0.00  0.00    +0.000 C 
ENDROOT
BRANCH   1   2
ATOM      2  N   UNL     1      46.447   4.405  15.052  0.00  0.00    +0.000 N 
ATOM      3  C   UNL     1      46.033   4.677  13.764  0.00  0.00    +0.000 A 
ATOM      4  C   UNL     1      46.213   5.898  13.108  0.00  0.00    +0.000 A 
ATOM      5  N   UNL     1      45.742   6.166  11.860  0.00  0.00    +0.000 NA
ATOM      6  C   UNL     1      45.044   5.160  11.284  0.00  0.00    +0.000 A 
ATOM      7  C   UNL     1      44.849   3.947  11.925  0.00  0.00    +0.000 A 
ATOM      8  N   UNL     1      45.341   3.678  13.170  0.00  0.00    +0.000 NA
ATOM      9  H   UNL     1      46.296   3.417  15.233  0.00  0.00    +0.000 HD
BRANCH   7  10
ATOM     10  C   UNL     1      44.057   2.880  11.256  0.00  0.00    +0.000 C 
ATOM     11  N   UNL     1      44.598   2.364  10.111  0.00  0.00    +0.000 N 
ATOM     12  O   UNL     1      42.989   2.479  11.704  0.00  0.00    +0.000 OA
ATOM     13  H   UNL     1      45.497   2.689   9.780  0.00  0.00    +0.000 HD
ATOM     14  H   UNL     1      44.117   1.614   9.632  0.00  0.00    +0.000 HD
ENDBRANCH   7  10
ENDBRANCH   1   2
BRANCH   1  16
ATOM     15  C   UNL     1      47.096   3.115  17.239  0.00  0.00    +0.000 C 
ATOM     16  C   UNL     1      47.983   4.341  16.979  0.00  0.00    +0.000 C 
BRANCH  16  17
ATOM     17  C   UNL     1      49.443   3.957  17.181  0.00  0.00    +0.000 A 
ATOM     18  C   UNL     1      50.397   4.952  17.431  0.00  0.00    +0.000 A 
ATOM     19  C   UNL     1      51.713   4.610  17.750  0.00  0.00    +0.000 A 
ATOM     20  C   UNL     1      52.100   3.271  17.805  0.00  0.00    +0.000 A 
ATOM     21  C   UNL     1      51.180   2.270  17.498  0.00  0.00    +0.000 A 
ATOM     22  C   UNL     1      49.857   2.616  17.199  0.00  0.00    +0.000 A 
BRANCH  21  23
ATOM     23  O   UNL     1      51.433   0.927  17.503  0.00  0.00    +0.000 OA
BRANCH  23  24
ATOM     24  C   UNL     1      52.767   0.555  17.798  0.00  0.00    +0.000 C 
ATOM     25  F   UNL     1      52.753  -0.595  18.517  0.00  0.00    +0.000 F 
ATOM     26  F   UNL     1      53.376   0.269  16.620  0.00  0.00    +0.000 F 
ENDBRANCH  23  24
ENDBRANCH  21  23
ENDBRANCH  16  17
ENDBRANCH   1  16
TORSDOF 6
ENDMDL
MODEL 9
REMARK VINA RESULT:    -6.953      2.811      4.554
REMARK INTER + INTRA:          -9.114
REMARK INTER:                  -8.188
REMARK INTRA:                  -0.927
REMARK UNBOUND:                 0.277
REMARK  Name = 
REMARK  7 active torsions:
REMARK  status: ('A' for Active; 'I' for Inactive)
REMARK    1  A    between atoms: C_1  and  C_2
REMARK    2  A    between atoms: C_2  and  C_3
REMARK    3  A    between atoms: C_2  and  C_14
REMARK    4  A    between atoms: C_3  and  N_4
REMARK    5  A    between atoms: C_9  and  C_10
REMARK    6  A    between atoms: C_18  and  O_19
REMARK    7  A    between atoms: O_19  and  C_20
REMARK                            x       y       z     vdW  Elec       q    Type
REMARK                         _______ _______ _______ _____ _____    ______ ____
ROOT
ATOM      1  C   UNL     1      46.502   8.202  12.926  0.00  0.00    +0.000 C 
ENDROOT
BRANCH   1   2
ATOM      2  N   UNL     1      46.487   7.203  11.866  0.00  0.00    +0.000 N 
ATOM      3  C   UNL     1      45.897   5.968  12.040  0.00  0.00    +0.000 A 
ATOM      4  C   UNL     1      45.886   5.250  13.239  0.00  0.00    +0.000 A 
ATOM      5  N   UNL     1      45.353   4.005  13.374  0.00  0.00    +0.000 NA
ATOM      6  C   UNL     1      44.841   3.476  12.239  0.00  0.00    +0.000 A 
ATOM      7  C   UNL     1      44.852   4.172  11.041  0.00  0.00    +0.000 A 
ATOM      8  N   UNL     1      45.371   5.429  10.917  0.00  0.00    +0.000 NA
ATOM      9  H   UNL     1      46.245   7.544  10.940  0.00  0.00    +0.000 HD
BRANCH   7  10
ATOM     10  C   UNL     1      44.293   3.539   9.816  0.00  0.00    +0.000 C 
ATOM     11  N   UNL     1      44.150   4.359   8.731  0.00  0.00    +0.000 N 
ATOM     12  O   UNL     1      43.985   2.353   9.774  0.00  0.00    +0.000 OA
ATOM     13  H   UNL     1      44.443   5.327   8.782  0.00  0.00    +0.000 HD
ATOM     14  H   UNL     1      43.804   3.974   7.863  0.00  0.00    +0.000 HD
ENDBRANCH   7  10
ENDBRANCH   1   2
BRANCH   1  16
ATOM     15  C   UNL     1      48.240  10.036  13.210  0.00  0.00    +0.000 C 
ATOM     16  C   UNL     1      47.961   8.531  13.330  0.00  0.00    +0.000 C 
BRANCH  16  17
ATOM     17  C   UNL     1      48.348   8.057  14.724  0.00  0.00    +0.000 A 
ATOM     18  C   UNL     1      48.370   8.967  15.789  0.00  0.00    +0.000 A 
ATOM     19  C   UNL     1      48.593   8.527  17.096  0.00  0.00    +0.000 A 
ATOM     20  C   UNL     1      48.814   7.174  17.356  0.00  0.00    +0.000 A 
ATOM     21  C   UNL     1      48.857   6.263  16.301  0.00  0.00    +0.000 A 
ATOM     22  C   UNL     1      48.614   6.706  14.996  0.00  0.00    +0.000 A 
BRANCH  21  23
ATOM     23  O   UNL     1      49.076   4.919  16.419  0.00  0.00    +0.000 OA
BRANCH  23  24
ATOM     24  C   UNL     1      48.073   4.191  17.103  0.00  0.00    +0.000 C 
ATOM     25  F   UNL     1      46.980   4.097  16.306  0.00  0.00    +0.000 F 
ATOM     26  F   UNL     1      48.538   2.928  17.276  0.00  0.00    +0.000 F 
ENDBRANCH  23  24
ENDBRANCH  21  23
ENDBRANCH  16  17
ENDBRANCH   1  16
TORSDOF 6
ENDMDL
