MODEL 1
REMARK VINA RESULT:    -8.641      0.000      0.000
REMARK INTER + INTRA:         -13.283
REMARK INTER:                 -11.924
REMARK INTRA:                  -1.359
REMARK UNBOUND:                -1.359
REMARK  Name = 
REMARK  10 active torsions:
REMARK  status: ('A' for Active; 'I' for Inactive)
REMARK    1  A    between atoms: C_1  and  C_2
REMARK    2  A    between atoms: C_5  and  C_6
REMARK    3  A    between atoms: C_10  and  C_11
REMARK    4  A    between atoms: C_11  and  C_12
REMARK    5  A    between atoms: C_11  and  C_13
REMARK    6  A    between atoms: C_11  and  C_14
REMARK    7  A    between atoms: C_14  and  N_15
REMARK    8  A    between atoms: N_15  and  C_16
REMARK    9  A    between atoms: C_19  and  C_20
REMARK   10  A    between atoms: C_26  and  O_27
REMARK                            x       y       z     vdW  Elec       q    Type
REMARK                         _______ _______ _______ _____ _____    ______ ____
ROOT
ATOM      1  C   UNL     1      47.102   5.673  13.858  0.00  0.00    +0.000 A 
ATOM      2  N   UNL     1      47.737   6.552  13.066  0.00  0.00    +0.000 NA
ATOM      3  C   UNL     1      47.197   6.765  11.861  0.00  0.00    +0.000 A 
ATOM      4  C   UNL     1      46.051   6.144  11.426  0.00  0.00    +0.000 A 
ATOM      5  C   UNL     1      45.383   5.337  12.333  0.00  0.00    +0.000 A 
ATOM      6  N   UNL     1      45.928   5.075  13.547  0.00  0.00    +0.000 NA
ENDROOT
BRANCH   1  11
ATOM      7  C   UNL     1      49.851   4.218  18.619  0.00  0.00    +0.000 C 
ATOM      8  C   UNL     1      49.106   4.597  17.379  0.00  0.00    +0.000 A 
ATOM      9  N   UNL     1      49.002   5.902  17.084  0.00  0.00    +0.000 NA
ATOM     10  C   UNL     1      48.333   6.203  15.949  0.00  0.00    +0.000 A 
ATOM     11  C   UNL     1      47.762   5.274  15.093  0.00  0.00    +0.000 A 
ATOM     12  C   UNL     1      47.934   3.969  15.520  0.00  0.00    +0.000 A 
ATOM     13  N   UNL     1      48.590   3.607  16.637  0.00  0.00    +0.000 NA
BRANCH  12  14
ATOM     14  O   UNL     1      47.449   2.896  14.819  0.00  0.00    +0.000 OA
ATOM     15  H   UNL     1      46.931   2.351  15.443  0.00  0.00    +0.000 HD
ENDBRANCH  12  14
ENDBRANCH   1  11
BRANCH   5  16
ATOM     16  C   UNL     1      44.003   4.723  12.054  0.00  0.00    +0.000 C 
ATOM     17  C   UNL     1      43.965   3.296  12.647  0.00  0.00    +0.000 C 
ATOM     18  C   UNL     1      42.910   5.562  12.755  0.00  0.00    +0.000 C 
BRANCH  16  19
ATOM     19  C   UNL     1      43.640   4.603  10.545  0.00  0.00    +0.000 C 
BRANCH  19  20
ATOM     20  N   UNL     1      43.743   3.227  10.029  0.00  0.00    +0.000 N 
ATOM     21  H   UNL     1      42.858   2.797   9.771  0.00  0.00    +0.000 HD
BRANCH  20  22
ATOM     22  C   UNL     1      44.773   2.952   9.123  0.00  0.00    +0.000 A 
ATOM     23  C   UNL     1      45.322   3.992   8.364  0.00  0.00    +0.000 A 
ATOM     24  C   UNL     1      46.320   3.741   7.416  0.00  0.00    +0.000 A 
ATOM     25  C   UNL     1      46.764   2.426   7.191  0.00  0.00    +0.000 A 
ATOM     26  C   UNL     1      46.200   1.386   7.924  0.00  0.00    +0.000 A 
ATOM     27 CL   UNL     1      46.663  -0.264   7.690  0.00  0.00    +0.000 Cl
ATOM     28  C   UNL     1      45.215   1.651   8.881  0.00  0.00    +0.000 A 
BRANCH  25  29
ATOM     29  C   UNL     1      47.776   2.199   6.208  0.00  0.00    +0.000 C 
ATOM     30  N   UNL     1      48.606   1.990   5.422  0.00  0.00    +0.000 NA
ENDBRANCH  25  29
ENDBRANCH  20  22
ENDBRANCH  19  20
ENDBRANCH  16  19
ENDBRANCH   5  16
TORSDOF 7
ENDMDL
MODEL 2
REMARK VINA RESULT:    -8.384      1.700      2.059
REMARK INTER + INTRA:         -12.928
REMARK INTER:                 -11.916
REMARK INTRA:                  -1.012
REMARK UNBOUND:                -1.359
REMARK  Name = 
REMARK  10 active torsions:
REMARK  status: ('A' for Active; 'I' for Inactive)
REMARK    1  A    between atoms: C_1  and  C_2
REMARK    2  A    between atoms: C_5  and  C_6
REMARK    3  A    between atoms: C_10  and  C_11
REMARK    4  A    between atoms: C_11  and  C_12
REMARK    5  A    between atoms: C_11  and  C_13
REMARK    6  A    between atoms: C_11  and  C_14
REMARK    7  A    between atoms: C_14  and  N_15
REMARK    8  A    between atoms: N_15  and  C_16
REMARK    9  A    between atoms: C_19  and  C_20
REMARK   10  A    between atoms: C_26  and  O_27
REMARK                            x       y       z     vdW  Elec       q    Type
REMARK                         _______ _______ _______ _____ _____    ______ ____
ROOT
ATOM      1  C   UNL     1      46.757   7.495  13.190  0.00  0.00    +0.000 A 
ATOM      2  N   UNL     1      46.357   8.691  12.730  0.00  0.00    +0.000 NA
ATOM      3  C   UNL     1      45.286   8.693  11.929  0.00  0.00    +0.000 A 
ATOM      4  C   UNL     1      44.601   7.553  11.580  0.00  0.00    +0.000 A 
ATOM      5  C   UNL     1      44.995   6.368  12.179  0.00  0.00    +0.000 A 
ATOM      6  N   UNL     1      46.099   6.332  12.966  0.00  0.00    +0.000 NA
ENDROOT
BRANCH   1  11
ATOM      7  C   UNL     1      51.805   7.237  15.796  0.00  0.00    +0.000 C 
ATOM      8  C   UNL     1      50.467   7.316  15.131  0.00  0.00    +0.000 A 
ATOM      9  N   UNL     1      50.270   8.291  14.231  0.00  0.00    +0.000 NA
ATOM     10  C   UNL     1      49.054   8.321  13.644  0.00  0.00    +0.000 A 
ATOM     11  C   UNL     1      48.023   7.432  13.905  0.00  0.00    +0.000 A 
ATOM     12  C   UNL     1      48.355   6.485  14.858  0.00  0.00    +0.000 A 
ATOM     13  N   UNL     1      49.547   6.402  15.476  0.00  0.00    +0.000 NA
BRANCH  12  14
ATOM     14  O   UNL     1      47.481   5.510  15.261  0.00  0.00    +0.000 OA
ATOM     15  H   UNL     1      46.688   5.578  14.694  0.00  0.00    +0.000 HD
ENDBRANCH  12  14
ENDBRANCH   1  11
BRANCH   5  16
ATOM     16  C   UNL     1      44.218   5.052  12.029  0.00  0.00    +0.000 C 
ATOM     17  C   UNL     1      45.132   3.882  12.458  0.00  0.00    +0.000 C 
ATOM     18  C   UNL     1      42.987   5.066  12.966  0.00  0.00    +0.000 C 
BRANCH  16  19
ATOM     19  C   UNL     1      43.731   4.748  10.582  0.00  0.00    +0.000 C 
BRANCH  19  20
ATOM     20  N   UNL     1      43.898   3.335  10.198  0.00  0.00    +0.000 N 
ATOM     21  H   UNL     1      43.032   2.821  10.059  0.00  0.00    +0.000 HD
BRANCH  20  22
ATOM     22  C   UNL     1      44.872   3.037   9.238  0.00  0.00    +0.000 A 
ATOM     23  C   UNL     1      45.396   4.064   8.444  0.00  0.00    +0.000 A 
ATOM     24  C   UNL     1      46.336   3.791   7.443  0.00  0.00    +0.000 A 
ATOM     25  C   UNL     1      46.745   2.468   7.203  0.00  0.00    +0.000 A 
ATOM     26  C   UNL     1      46.205   1.442   7.973  0.00  0.00    +0.000 A 
ATOM     27 CL   UNL     1      46.627  -0.217   7.724  0.00  0.00    +0.000 Cl
ATOM     28  C   UNL     1      45.278   1.728   8.980  0.00  0.00    +0.000 A 
BRANCH  25  29
ATOM     29  C   UNL     1      47.697   2.219   6.167  0.00  0.00    +0.000 C 
ATOM     30  N   UNL     1      48.489   2.003   5.344  0.00  0.00    +0.000 NA
ENDBRANCH  25  29
ENDBRANCH  20  22
ENDBRANCH  19  20
ENDBRANCH  16  19
ENDBRANCH   5  16
TORSDOF 7
ENDMDL
MODEL 3
REMARK VINA RESULT:    -8.237      2.237      3.870
REMARK INTER + INTRA:         -12.725
REMARK INTER:                 -11.512
REMARK INTRA:                  -1.214
REMARK UNBOUND:                -1.359
REMARK  Name = 
REMARK  10 active torsions:
REMARK  status: ('A' for Active; 'I' for Inactive)
REMARK    1  A    between atoms: C_1  and  C_2
REMARK    2  A    between atoms: C_5  and  C_6
REMARK    3  A    between atoms: C_10  and  C_11
REMARK    4  A    between atoms: C_11  and  C_12
REMARK    5  A    between atoms: C_11  and  C_13
REMARK    6  A    between atoms: C_11  and  C_14
REMARK    7  A    between atoms: C_14  and  N_15
REMARK    8  A    between atoms: N_15  and  C_16
REMARK    9  A    between atoms: C_19  and  C_20
REMARK   10  A    between atoms: C_26  and  O_27
REMARK                            x       y       z     vdW  Elec       q    Type
REMARK                         _______ _______ _______ _____ _____    ______ ____
ROOT
ATOM      1  C   UNL     1      47.446   6.413  12.845  0.00  0.00    +0.000 A 
ATOM      2  N   UNL     1      47.996   5.769  13.887  0.00  0.00    +0.000 NA
ATOM      3  C   UNL     1      47.239   4.836  14.476  0.00  0.00    +0.000 A 
ATOM      4  C   UNL     1      45.968   4.520  14.060  0.00  0.00    +0.000 A 
ATOM      5  C   UNL     1      45.505   5.139  12.910  0.00  0.00    +0.000 A 
ATOM      6  N   UNL     1      46.235   6.114  12.316  0.00  0.00    +0.000 NA
ENDROOT
BRANCH   1  11
ATOM      7  C   UNL     1      50.379  10.873  10.885  0.00  0.00    +0.000 C 
ATOM      8  C   UNL     1      49.598   9.697  11.377  0.00  0.00    +0.000 A 
ATOM      9  N   UNL     1      50.245   8.530  11.522  0.00  0.00    +0.000 NA
ATOM     10  C   UNL     1      49.507   7.495  11.981  0.00  0.00    +0.000 A 
ATOM     11  C   UNL     1      48.161   7.559  12.303  0.00  0.00    +0.000 A 
ATOM     12  C   UNL     1      47.616   8.815  12.099  0.00  0.00    +0.000 A 
ATOM     13  N   UNL     1      48.297   9.883  11.646  0.00  0.00    +0.000 NA
BRANCH  12  14
ATOM     14  O   UNL     1      46.300   9.097  12.357  0.00  0.00    +0.000 OA
ATOM     15  H   UNL     1      45.848   9.187  11.494  0.00  0.00    +0.000 HD
ENDBRANCH  12  14
ENDBRANCH   1  11
BRANCH   5  16
ATOM     16  C   UNL     1      44.184   4.758  12.225  0.00  0.00    +0.000 C 
ATOM     17  C   UNL     1      43.064   4.717  13.290  0.00  0.00    +0.000 C 
ATOM     18  C   UNL     1      43.812   5.836  11.181  0.00  0.00    +0.000 C 
BRANCH  16  19
ATOM     19  C   UNL     1      44.196   3.372  11.518  0.00  0.00    +0.000 C 
BRANCH  19  20
ATOM     20  N   UNL     1      43.862   3.448  10.085  0.00  0.00    +0.000 N 
ATOM     21  H   UNL     1      43.334   4.271   9.809  0.00  0.00    +0.000 HD
BRANCH  20  22
ATOM     22  C   UNL     1      44.863   3.105   9.169  0.00  0.00    +0.000 A 
ATOM     23  C   UNL     1      45.443   4.102   8.375  0.00  0.00    +0.000 A 
ATOM     24  C   UNL     1      46.413   3.784   7.416  0.00  0.00    +0.000 A 
ATOM     25  C   UNL     1      46.796   2.447   7.218  0.00  0.00    +0.000 A 
ATOM     26  C   UNL     1      46.201   1.451   7.987  0.00  0.00    +0.000 A 
ATOM     27 CL   UNL     1      46.589  -0.223   7.787  0.00  0.00    +0.000 Cl
ATOM     28  C   UNL     1      45.245   1.781   8.952  0.00  0.00    +0.000 A 
BRANCH  25  29
ATOM     29  C   UNL     1      47.779   2.152   6.224  0.00  0.00    +0.000 C 
ATOM     30  N   UNL     1      48.597   1.903   5.437  0.00  0.00    +0.000 NA
ENDBRANCH  25  29
ENDBRANCH  20  22
ENDBRANCH  19  20
ENDBRANCH  16  19
ENDBRANCH   5  16
TORSDOF 7
ENDMDL
MODEL 4
REMARK VINA RESULT:    -7.803      1.718      2.388
REMARK INTER + INTRA:         -12.127
REMARK INTER:                 -10.938
REMARK INTRA:                  -1.189
REMARK UNBOUND:                -1.359
REMARK  Name = 
REMARK  10 active torsions:
REMARK  status: ('A' for Active; 'I' for Inactive)
REMARK    1  A    between atoms: C_1  and  C_2
REMARK    2  A    between atoms: C_5  and  C_6
REMARK    3  A    between atoms: C_10  and  C_11
REMARK    4  A    between atoms: C_11  and  C_12
REMARK    5  A    between atoms: C_11  and  C_13
REMARK    6  A    between atoms: C_11  and  C_14
REMARK    7  A    between atoms: C_14  and  N_15
REMARK    8  A    between atoms: N_15  and  C_16
REMARK    9  A    between atoms: C_19  and  C_20
REMARK   10  A    between atoms: C_26  and  O_27
REMARK                            x       y       z     vdW  Elec       q    Type
REMARK                         _______ _______ _______ _____ _____    ______ ____
ROOT
ATOM      1  C   UNL     1      47.125   4.601  14.663  0.00  0.00    +0.000 A 
ATOM      2  N   UNL     1      47.156   3.285  14.399  0.00  0.00    +0.000 NA
ATOM      3  C   UNL     1      46.456   2.876  13.335  0.00  0.00    +0.000 A 
ATOM      4  C   UNL     1      45.740   3.727  12.528  0.00  0.00    +0.000 A 
ATOM      5  C   UNL     1      45.843   5.084  12.787  0.00  0.00    +0.000 A 
ATOM      6  N   UNL     1      46.515   5.523  13.880  0.00  0.00    +0.000 NA
ENDROOT
BRANCH   1  11
ATOM      7  C   UNL     1      49.617   6.345  19.469  0.00  0.00    +0.000 C 
ATOM      8  C   UNL     1      48.940   5.899  18.212  0.00  0.00    +0.000 A 
ATOM      9  N   UNL     1      49.248   6.539  17.073  0.00  0.00    +0.000 NA
ATOM     10  C   UNL     1      48.625   6.098  15.957  0.00  0.00    +0.000 A 
ATOM     11  C   UNL     1      47.714   5.056  15.915  0.00  0.00    +0.000 A 
ATOM     12  C   UNL     1      47.480   4.491  17.157  0.00  0.00    +0.000 A 
ATOM     13  N   UNL     1      48.068   4.884  18.301  0.00  0.00    +0.000 NA
BRANCH  12  14
ATOM     14  O   UNL     1      46.614   3.445  17.339  0.00  0.00    +0.000 OA
ATOM     15  H   UNL     1      46.938   2.930  18.103  0.00  0.00    +0.000 HD
ENDBRANCH  12  14
ENDBRANCH   1  11
BRANCH   5  16
ATOM     16  C   UNL     1      45.249   6.162  11.869  0.00  0.00    +0.000 C 
ATOM     17  C   UNL     1      43.712   6.004  11.843  0.00  0.00    +0.000 C 
ATOM     18  C   UNL     1      45.576   7.563  12.435  0.00  0.00    +0.000 C 
BRANCH  16  19
ATOM     19  C   UNL     1      45.742   6.101  10.393  0.00  0.00    +0.000 C 
BRANCH  19  20
ATOM     20  N   UNL     1      44.814   5.388   9.499  0.00  0.00    +0.000 N 
ATOM     21  H   UNL     1      44.368   5.966   8.792  0.00  0.00    +0.000 HD
BRANCH  20  22
ATOM     22  C   UNL     1      45.215   4.139   9.014  0.00  0.00    +0.000 A 
ATOM     23  C   UNL     1      44.599   2.979   9.499  0.00  0.00    +0.000 A 
ATOM     24  C   UNL     1      45.010   1.712   9.068  0.00  0.00    +0.000 A 
ATOM     25  C   UNL     1      46.075   1.588   8.160  0.00  0.00    +0.000 A 
ATOM     26  C   UNL     1      46.708   2.738   7.697  0.00  0.00    +0.000 A 
ATOM     27 CL   UNL     1      48.046   2.677   6.603  0.00  0.00    +0.000 Cl
ATOM     28  C   UNL     1      46.278   3.999   8.121  0.00  0.00    +0.000 A 
BRANCH  25  29
ATOM     29  C   UNL     1      46.480   0.282   7.747  0.00  0.00    +0.000 C 
ATOM     30  N   UNL     1      46.790  -0.793   7.429  0.00  0.00    +0.000 NA
ENDBRANCH  25  29
ENDBRANCH  20  22
ENDBRANCH  19  20
ENDBRANCH  16  19
ENDBRANCH   5  16
TORSDOF 7
ENDMDL
MODEL 5
REMARK VINA RESULT:    -7.295      2.046      2.909
REMARK INTER + INTRA:         -11.426
REMARK INTER:                 -10.055
REMARK INTRA:                  -1.370
REMARK UNBOUND:                -1.359
REMARK  Name = 
REMARK  10 active torsions:
REMARK  status: ('A' for Active; 'I' for Inactive)
REMARK    1  A    between atoms: C_1  and  C_2
REMARK    2  A    between atoms: C_5  and  C_6
REMARK    3  A    between atoms: C_10  and  C_11
REMARK    4  A    between atoms: C_11  and  C_12
REMARK    5  A    between atoms: C_11  and  C_13
REMARK    6  A    between atoms: C_11  and  C_14
REMARK    7  A    between atoms: C_14  and  N_15
REMARK    8  A    between atoms: N_15  and  C_16
REMARK    9  A    between atoms: C_19  and  C_20
REMARK   10  A    between atoms: C_26  and  O_27
REMARK                            x       y       z     vdW  Elec       q    Type
REMARK                         _______ _______ _______ _____ _____    ______ ____
ROOT
ATOM      1  C   UNL     1      47.308   5.587  13.452  0.00  0.00    +0.000 A 
ATOM      2  N   UNL     1      47.523   4.277  13.651  0.00  0.00    +0.000 NA
ATOM      3  C   UNL     1      46.510   3.456  13.350  0.00  0.00    +0.000 A 
ATOM      4  C   UNL     1      45.304   3.892  12.855  0.00  0.00    +0.000 A 
ATOM      5  C   UNL     1      45.188   5.242  12.566  0.00  0.00    +0.000 A 
ATOM      6  N   UNL     1      46.185   6.101  12.895  0.00  0.00    +0.000 NA
ENDROOT
BRANCH   1  11
ATOM      7  C   UNL     1      51.367   9.142  15.247  0.00  0.00    +0.000 C 
ATOM      8  C   UNL     1      50.282   8.224  14.782  0.00  0.00    +0.000 A 
ATOM      9  N   UNL     1      50.025   8.172  13.466  0.00  0.00    +0.000 NA
ATOM     10  C   UNL     1      49.047   7.321  13.085  0.00  0.00    +0.000 A 
ATOM     11  C   UNL     1      48.310   6.521  13.944  0.00  0.00    +0.000 A 
ATOM     12  C   UNL     1      48.669   6.680  15.271  0.00  0.00    +0.000 A 
ATOM     13  N   UNL     1      49.634   7.508  15.712  0.00  0.00    +0.000 NA
BRANCH  12  14
ATOM     14  O   UNL     1      48.067   5.981  16.285  0.00  0.00    +0.000 OA
ATOM     15  H   UNL     1      47.135   5.840  16.027  0.00  0.00    +0.000 HD
ENDBRANCH  12  14
ENDBRANCH   1  11
BRANCH   5  16
ATOM     16  C   UNL     1      43.974   5.845  11.845  0.00  0.00    +0.000 C 
ATOM     17  C   UNL     1      42.764   5.827  12.808  0.00  0.00    +0.000 C 
ATOM     18  C   UNL     1      44.269   7.317  11.475  0.00  0.00    +0.000 C 
BRANCH  16  19
ATOM     19  C   UNL     1      43.545   5.090  10.554  0.00  0.00    +0.000 C 
BRANCH  19  20
ATOM     20  N   UNL     1      44.561   5.136   9.489  0.00  0.00    +0.000 N 
ATOM     21  H   UNL     1      45.296   5.825   9.624  0.00  0.00    +0.000 HD
BRANCH  20  22
ATOM     22  C   UNL     1      45.037   3.916   8.996  0.00  0.00    +0.000 A 
ATOM     23  C   UNL     1      44.490   2.718   9.471  0.00  0.00    +0.000 A 
ATOM     24  C   UNL     1      44.977   1.481   9.034  0.00  0.00    +0.000 A 
ATOM     25  C   UNL     1      46.050   1.427   8.128  0.00  0.00    +0.000 A 
ATOM     26  C   UNL     1      46.615   2.615   7.675  0.00  0.00    +0.000 A 
ATOM     27 CL   UNL     1      47.958   2.642   6.586  0.00  0.00    +0.000 Cl
ATOM     28  C   UNL     1      46.110   3.846   8.107  0.00  0.00    +0.000 A 
BRANCH  25  29
ATOM     29  C   UNL     1      46.534   0.149   7.708  0.00  0.00    +0.000 C 
ATOM     30  N   UNL     1      46.908  -0.903   7.384  0.00  0.00    +0.000 NA
ENDBRANCH  25  29
ENDBRANCH  20  22
ENDBRANCH  19  20
ENDBRANCH  16  19
ENDBRANCH   5  16
TORSDOF 7
ENDMDL
MODEL 6
REMARK VINA RESULT:    -7.091      3.609      5.969
REMARK INTER + INTRA:         -11.145
REMARK INTER:                 -10.120
REMARK INTRA:                  -1.024
REMARK UNBOUND:                -1.359
REMARK  Name = 
REMARK  10 active torsions:
REMARK  status: ('A' for Active; 'I' for Inactive)
REMARK    1  A    between atoms: C_1  and  C_2
REMARK    2  A    between atoms: C_5  and  C_6
REMARK    3  A    between atoms: C_10  and  C_11
REMARK    4  A    between atoms: C_11  and  C_12
REMARK    5  A    between atoms: C_11  and  C_13
REMARK    6  A    between atoms: C_11  and  C_14
REMARK    7  A    between atoms: C_14  and  N_15
REMARK    8  A    between atoms: N_15  and  C_16
REMARK    9  A    between atoms: C_19  and  C_20
REMARK   10  A    between atoms: C_26  and  O_27
REMARK                            x       y       z     vdW  Elec       q    Type
REMARK                         _______ _______ _______ _____ _____    ______ ____
ROOT
ATOM      1  C   UNL     1      49.692   4.416  17.513  0.00  0.00    +0.000 A 
ATOM      2  N   UNL     1      48.768   4.523  18.481  0.00  0.00    +0.000 NA
ATOM      3  C   UNL     1      48.014   5.628  18.464  0.00  0.00    +0.000 A 
ATOM      4  C   UNL     1      48.142   6.616  17.517  0.00  0.00    +0.000 A 
ATOM      5  C   UNL     1      49.034   6.390  16.482  0.00  0.00    +0.000 A 
ATOM      6  N   UNL     1      49.837   5.297  16.495  0.00  0.00    +0.000 NA
ENDROOT
BRANCH   1  11
ATOM      7  C   UNL     1      53.596   0.292  17.820  0.00  0.00    +0.000 C 
ATOM      8  C   UNL     1      52.555   1.364  17.756  0.00  0.00    +0.000 A 
ATOM      9  N   UNL     1      52.795   2.511  18.411  0.00  0.00    +0.000 NA
ATOM     10  C   UNL     1      51.837   3.459  18.319  0.00  0.00    +0.000 A 
ATOM     11  C   UNL     1      50.653   3.327  17.611  0.00  0.00    +0.000 A 
ATOM     12  C   UNL     1      50.528   2.095  16.992  0.00  0.00    +0.000 A 
ATOM     13  N   UNL     1      51.446   1.113  17.046  0.00  0.00    +0.000 NA
BRANCH  12  14
ATOM     14  O   UNL     1      49.435   1.758  16.239  0.00  0.00    +0.000 OA
ATOM     15  H   UNL     1      48.774   1.369  16.845  0.00  0.00    +0.000 HD
ENDBRANCH  12  14
ENDBRANCH   1  11
BRANCH   5  16
ATOM     16  C   UNL     1      49.156   7.315  15.261  0.00  0.00    +0.000 C 
ATOM     17  C   UNL     1      48.435   8.647  15.572  0.00  0.00    +0.000 C 
ATOM     18  C   UNL     1      50.646   7.629  14.996  0.00  0.00    +0.000 C 
BRANCH  16  19
ATOM     19  C   UNL     1      48.531   6.749  13.953  0.00  0.00    +0.000 C 
BRANCH  19  20
ATOM     20  N   UNL     1      47.119   7.127  13.772  0.00  0.00    +0.000 N 
ATOM     21  H   UNL     1      46.968   8.020  13.310  0.00  0.00    +0.000 HD
BRANCH  20  22
ATOM     22  C   UNL     1      46.233   6.132  13.345  0.00  0.00    +0.000 A 
ATOM     23  C   UNL     1      46.630   4.791  13.381  0.00  0.00    +0.000 A 
ATOM     24  C   UNL     1      45.785   3.776  12.917  0.00  0.00    +0.000 A 
ATOM     25  C   UNL     1      44.529   4.099  12.376  0.00  0.00    +0.000 A 
ATOM     26  C   UNL     1      44.141   5.435  12.313  0.00  0.00    +0.000 A 
ATOM     27 CL   UNL     1      42.628   5.925  11.634  0.00  0.00    +0.000 Cl
ATOM     28  C   UNL     1      44.988   6.438  12.794  0.00  0.00    +0.000 A 
BRANCH  25  29
ATOM     29  C   UNL     1      43.692   3.044  11.899  0.00  0.00    +0.000 C 
ATOM     30  N   UNL     1      43.022   2.168  11.531  0.00  0.00    +0.000 NA
ENDBRANCH  25  29
ENDBRANCH  20  22
ENDBRANCH  19  20
ENDBRANCH  16  19
ENDBRANCH   5  16
TORSDOF 7
ENDMDL
MODEL 7
REMARK VINA RESULT:    -6.602      2.833      8.424
REMARK INTER + INTRA:         -10.470
REMARK INTER:                  -9.355
REMARK INTRA:                  -1.115
REMARK UNBOUND:                -1.359
REMARK  Name = 
REMARK  10 active torsions:
REMARK  status: ('A' for Active; 'I' for Inactive)
REMARK    1  A    between atoms: C_1  and  C_2
REMARK    2  A    between atoms: C_5  and  C_6
REMARK    3  A    between atoms: C_10  and  C_11
REMARK    4  A    between atoms: C_11  and  C_12
REMARK    5  A    between atoms: C_11  and  C_13
REMARK    6  A    between atoms: C_11  and  C_14
REMARK    7  A    between atoms: C_14  and  N_15
REMARK    8  A    between atoms: N_15  and  C_16
REMARK    9  A    between atoms: C_19  and  C_20
REMARK   10  A    between atoms: C_26  and  O_27
REMARK                            x       y       z     vdW  Elec       q    Type
REMARK                         _______ _______ _______ _____ _____    ______ ____
ROOT
ATOM      1  C   UNL     1      45.154   5.100  10.556  0.00  0.00    +0.000 A 
ATOM      2  N   UNL     1      43.985   4.798  11.143  0.00  0.00    +0.000 NA
ATOM      3  C   UNL     1      43.735   5.399  12.312  0.00  0.00    +0.000 A 
ATOM      4  C   UNL     1      44.598   6.289  12.905  0.00  0.00    +0.000 A 
ATOM      5  C   UNL     1      45.731   6.644  12.192  0.00  0.00    +0.000 A 
ATOM      6  N   UNL     1      46.028   6.023  11.024  0.00  0.00    +0.000 NA
ENDROOT
BRANCH   1  11
ATOM      7  C   UNL     1      46.565   2.210   5.866  0.00  0.00    +0.000 C 
ATOM      8  C   UNL     1      46.215   2.961   7.111  0.00  0.00    +0.000 A 
ATOM      9  N   UNL     1      46.503   4.270   7.156  0.00  0.00    +0.000 NA
ATOM     10  C   UNL     1      46.159   4.915   8.293  0.00  0.00    +0.000 A 
ATOM     11  C   UNL     1      45.544   4.327   9.386  0.00  0.00    +0.000 A 
ATOM     12  C   UNL     1      45.313   2.973   9.211  0.00  0.00    +0.000 A 
ATOM     13  N   UNL     1      45.630   2.276   8.105  0.00  0.00    +0.000 NA
BRANCH  12  14
ATOM     14  O   UNL     1      44.712   2.200  10.170  0.00  0.00    +0.000 OA
ATOM     15  H   UNL     1      45.268   2.250  10.973  0.00  0.00    +0.000 HD
ENDBRANCH  12  14
ENDBRANCH   1  11
BRANCH   5  16
ATOM     16  C   UNL     1      46.692   7.755  12.641  0.00  0.00    +0.000 C 
ATOM     17  C   UNL     1      47.921   7.759  11.704  0.00  0.00    +0.000 C 
ATOM     18  C   UNL     1      45.992   9.128  12.518  0.00  0.00    +0.000 C 
BRANCH  16  19
ATOM     19  C   UNL     1      47.225   7.603  14.096  0.00  0.00    +0.000 C 
BRANCH  19  20
ATOM     20  N   UNL     1      47.969   6.351  14.315  0.00  0.00    +0.000 N 
ATOM     21  H   UNL     1      48.827   6.259  13.776  0.00  0.00    +0.000 HD
BRANCH  20  22
ATOM     22  C   UNL     1      48.098   5.897  15.633  0.00  0.00    +0.000 A 
ATOM     23  C   UNL     1      48.808   6.667  16.562  0.00  0.00    +0.000 A 
ATOM     24  C   UNL     1      48.995   6.218  17.875  0.00  0.00    +0.000 A 
ATOM     25  C   UNL     1      48.495   4.966  18.269  0.00  0.00    +0.000 A 
ATOM     26  C   UNL     1      47.813   4.186  17.339  0.00  0.00    +0.000 A 
ATOM     27 CL   UNL     1      47.193   2.619  17.729  0.00  0.00    +0.000 Cl
ATOM     28  C   UNL     1      47.618   4.651  16.035  0.00  0.00    +0.000 A 
BRANCH  25  29
ATOM     29  C   UNL     1      48.712   4.529  19.612  0.00  0.00    +0.000 C 
ATOM     30  N   UNL     1      48.860   4.166  20.706  0.00  0.00    +0.000 NA
ENDBRANCH  25  29
ENDBRANCH  20  22
ENDBRANCH  19  20
ENDBRANCH  16  19
ENDBRANCH   5  16
TORSDOF 7
ENDMDL
MODEL 8
REMARK VINA RESULT:    -6.531      2.687      4.750
REMARK INTER + INTRA:         -10.372
REMARK INTER:                  -8.813
REMARK INTRA:                  -1.559
REMARK UNBOUND:                -1.359
REMARK  Name = 
REMARK  10 active torsions:
REMARK  status: ('A' for Active; 'I' for Inactive)
REMARK    1  A    between atoms: C_1  and  C_2
REMARK    2  A    between atoms: C_5  and  C_6
REMARK    3  A    between atoms: C_10  and  C_11
REMARK    4  A    between atoms: C_11  and  C_12
REMARK    5  A    between atoms: C_11  and  C_13
REMARK    6  A    between atoms: C_11  and  C_14
REMARK    7  A    between atoms: C_14  and  N_15
REMARK    8  A    between atoms: N_15  and  C_16
REMARK    9  A    between atoms: C_19  and  C_20
REMARK   10  A    between atoms: C_26  and  O_27
REMARK                            x       y       z     vdW  Elec       q    Type
REMARK                         _______ _______ _______ _____ _____    ______ ____
ROOT
ATOM      1  C   UNL     1      48.866   7.363  16.031  0.00  0.00    +0.000 A 
ATOM      2  N   UNL     1      48.965   8.332  16.954  0.00  0.00    +0.000 NA
ATOM      3  C   UNL     1      48.825   9.588  16.515  0.00  0.00    +0.000 A 
ATOM      4  C   UNL     1      48.584   9.907  15.200  0.00  0.00    +0.000 A 
ATOM      5  C   UNL     1      48.380   8.857  14.320  0.00  0.00    +0.000 A 
ATOM      6  N   UNL     1      48.552   7.576  14.730  0.00  0.00    +0.000 NA
ENDROOT
BRANCH   1  11
ATOM      7  C   UNL     1      50.339   2.064  17.478  0.00  0.00    +0.000 C 
ATOM      8  C   UNL     1      49.939   3.459  17.120  0.00  0.00    +0.000 A 
ATOM      9  N   UNL     1      50.846   4.434  17.284  0.00  0.00    +0.000 NA
ATOM     10  C   UNL     1      50.451   5.679  16.936  0.00  0.00    +0.000 A 
ATOM     11  C   UNL     1      49.201   6.004  16.435  0.00  0.00    +0.000 A 
ATOM     12  C   UNL     1      48.361   4.910  16.325  0.00  0.00    +0.000 A 
ATOM     13  N   UNL     1      48.696   3.649  16.652  0.00  0.00    +0.000 NA
BRANCH  12  14
ATOM     14  O   UNL     1      47.080   5.011  15.848  0.00  0.00    +0.000 OA
ATOM     15  H   UNL     1      46.540   5.420  16.553  0.00  0.00    +0.000 HD
ENDBRANCH  12  14
ENDBRANCH   1  11
BRANCH   5  16
ATOM     16  C   UNL     1      47.926   9.056  12.866  0.00  0.00    +0.000 C 
ATOM     17  C   UNL     1      48.182  10.525  12.462  0.00  0.00    +0.000 C 
ATOM     18  C   UNL     1      48.764   8.150  11.934  0.00  0.00    +0.000 C 
BRANCH  16  19
ATOM     19  C   UNL     1      46.419   8.764  12.611  0.00  0.00    +0.000 C 
BRANCH  19  20
ATOM     20  N   UNL     1      45.927   7.576  13.330  0.00  0.00    +0.000 N 
ATOM     21  H   UNL     1      45.310   7.772  14.115  0.00  0.00    +0.000 HD
BRANCH  20  22
ATOM     22  C   UNL     1      45.509   6.483  12.563  0.00  0.00    +0.000 A 
ATOM     23  C   UNL     1      44.821   5.430  13.178  0.00  0.00    +0.000 A 
ATOM     24  C   UNL     1      44.431   4.302  12.448  0.00  0.00    +0.000 A 
ATOM     25  C   UNL     1      44.756   4.198  11.084  0.00  0.00    +0.000 A 
ATOM     26  C   UNL     1      45.464   5.231  10.476  0.00  0.00    +0.000 A 
ATOM     27 CL   UNL     1      45.933   5.173   8.813  0.00  0.00    +0.000 Cl
ATOM     28  C   UNL     1      45.834   6.361  11.212  0.00  0.00    +0.000 A 
BRANCH  25  29
ATOM     29  C   UNL     1      44.355   3.029  10.367  0.00  0.00    +0.000 C 
ATOM     30  N   UNL     1      44.033   2.092   9.759  0.00  0.00    +0.000 NA
ENDBRANCH  25  29
ENDBRANCH  20  22
ENDBRANCH  19  20
ENDBRANCH  16  19
ENDBRANCH   5  16
TORSDOF 7
ENDMDL
MODEL 9
REMARK VINA RESULT:    -6.498      4.173      7.797
REMARK INTER + INTRA:         -10.325
REMARK INTER:                  -9.086
REMARK INTRA:                  -1.240
REMARK UNBOUND:                -1.359
REMARK  Name = 
REMARK  10 active torsions:
REMARK  status: ('A' for Active; 'I' for Inactive)
REMARK    1  A    between atoms: C_1  and  C_2
REMARK    2  A    between atoms: C_5  and  C_6
REMARK    3  A    between atoms: C_10  and  C_11
REMARK    4  A    between atoms: C_11  and  C_12
REMARK    5  A    between atoms: C_11  and  C_13
REMARK    6  A    between atoms: C_11  and  C_14
REMARK    7  A    between atoms: C_14  and  N_15
REMARK    8  A    between atoms: N_15  and  C_16
REMARK    9  A    between atoms: C_19  and  C_20
REMARK   10  A    between atoms: C_26  and  O_27
REMARK                            x       y       z     vdW  Elec       q    Type
REMARK                         _______ _______ _______ _____ _____    ______ ____
ROOT
ATOM      1  C   UNL     1      45.289   7.898  11.694  0.00  0.00    +0.000 A 
ATOM      2  N   UNL     1      44.452   8.903  11.387  0.00  0.00    +0.000 NA
ATOM      3  C   UNL     1      44.928  10.143  11.549  0.00  0.00    +0.000 A 
ATOM      4  C   UNL     1      46.201  10.413  11.992  0.00  0.00    +0.000 A 
ATOM      5  C   UNL     1      47.049   9.334  12.180  0.00  0.00    +0.000 A 
ATOM      6  N   UNL     1      46.582   8.066  12.060  0.00  0.00    +0.000 NA
ENDROOT
BRANCH   1  11
ATOM      7  C   UNL     1      43.315   2.565  11.626  0.00  0.00    +0.000 C 
ATOM      8  C   UNL     1      43.824   3.971  11.667  0.00  0.00    +0.000 A 
ATOM      9  N   UNL     1      45.124   4.160  11.942  0.00  0.00    +0.000 NA
ATOM     10  C   UNL     1      45.547   5.443  11.957  0.00  0.00    +0.000 A 
ATOM     11  C   UNL     1      44.747   6.547  11.714  0.00  0.00    +0.000 A 
ATOM     12  C   UNL     1      43.429   6.213  11.454  0.00  0.00    +0.000 A 
ATOM     13  N   UNL     1      42.948   4.957  11.423  0.00  0.00    +0.000 NA
BRANCH  12  14
ATOM     14  O   UNL     1      42.470   7.154  11.185  0.00  0.00    +0.000 OA
ATOM     15  H   UNL     1      42.879   7.828  10.607  0.00  0.00    +0.000 HD
ENDBRANCH  12  14
ENDBRANCH   1  11
BRANCH   5  16
ATOM     16  C   UNL     1      48.544   9.486  12.498  0.00  0.00    +0.000 C 
ATOM     17  C   UNL     1      49.241  10.165  11.297  0.00  0.00    +0.000 C 
ATOM     18  C   UNL     1      48.720  10.399  13.733  0.00  0.00    +0.000 C 
BRANCH  16  19
ATOM     19  C   UNL     1      49.290   8.147  12.765  0.00  0.00    +0.000 C 
BRANCH  19  20
ATOM     20  N   UNL     1      49.694   7.977  14.172  0.00  0.00    +0.000 N 
ATOM     21  H   UNL     1      49.734   8.836  14.715  0.00  0.00    +0.000 HD
BRANCH  20  22
ATOM     22  C   UNL     1      49.137   6.906  14.880  0.00  0.00    +0.000 A 
ATOM     23  C   UNL     1      48.092   6.169  14.310  0.00  0.00    +0.000 A 
ATOM     24  C   UNL     1      47.483   5.123  15.012  0.00  0.00    +0.000 A 
ATOM     25  C   UNL     1      47.895   4.818  16.320  0.00  0.00    +0.000 A 
ATOM     26  C   UNL     1      48.915   5.567  16.900  0.00  0.00    +0.000 A 
ATOM     27 CL   UNL     1      49.463   5.282  18.516  0.00  0.00    +0.000 Cl
ATOM     28  C   UNL     1      49.528   6.600  16.184  0.00  0.00    +0.000 A 
BRANCH  25  29
ATOM     29  C   UNL     1      47.247   3.752  17.016  0.00  0.00    +0.000 C 
ATOM     30  N   UNL     1      46.741   2.884  17.601  0.00  0.00    +0.000 NA
ENDBRANCH  25  29
ENDBRANCH  20  22
ENDBRANCH  19  20
ENDBRANCH  16  19
ENDBRANCH   5  16
TORSDOF 7
ENDMDL
