MODEL 1
REMARK VINA RESULT:    -8.722      0.000      0.000
REMARK INTER + INTRA:         -11.956
REMARK INTER:                 -11.272
REMARK INTRA:                  -0.685
REMARK UNBOUND:                -0.685
REMARK  Name = 
REMARK  6 active torsions:
REMARK  status: ('A' for Active; 'I' for Inactive)
REMARK    1  A    between atoms: C_1  and  C_2
REMARK    2  A    between atoms: C_4  and  C_5
REMARK    3  A    between atoms: C_10  and  C_11
REMARK    4  A    between atoms: C_11  and  N_12
REMARK    5  A    between atoms: N_12  and  C_13
REMARK    6  A    between atoms: C_16  and  C_17
REMARK                            x       y       z     vdW  Elec       q    Type
REMARK                         _______ _______ _______ _____ _____    ______ ____
ROOT
ATOM      1  C   UNL     1      44.386   6.163  10.780  0.00  0.00    +0.000 C 
ENDROOT
BRANCH   1   8
ATOM      2  C   UNL     1      43.048   4.601  13.026  0.00  0.00    +0.000 C 
ATOM      3  C   UNL     1      44.520   4.896  13.011  0.00  0.00    +0.000 A 
ATOM      4  N   UNL     1      45.205   4.402  14.075  0.00  0.00    +0.000 NA
ATOM      5  C   UNL     1      46.547   4.621  14.120  0.00  0.00    +0.000 A 
ATOM      6  C   UNL     1      47.246   5.312  13.148  0.00  0.00    +0.000 A 
ATOM      7  C   UNL     1      46.528   5.810  12.065  0.00  0.00    +0.000 A 
ATOM      8  C   UNL     1      45.137   5.617  11.978  0.00  0.00    +0.000 A 
BRANCH   5   9
ATOM      9  C   UNL     1      47.266   4.061  15.310  0.00  0.00    +0.000 C 
ATOM     10  N   UNL     1      47.212   4.836  16.439  0.00  0.00    +0.000 N 
ATOM     11  O   UNL     1      47.860   2.992  15.286  0.00  0.00    +0.000 OA
ATOM     12  H   UNL     1      46.702   5.712  16.415  0.00  0.00    +0.000 HD
ATOM     13  H   UNL     1      47.668   4.527  17.285  0.00  0.00    +0.000 HD
ENDBRANCH   5   9
ENDBRANCH   1   8
BRANCH   1  14
ATOM     14  N   UNL     1      43.796   5.059  10.029  0.00  0.00    +0.000 N 
ATOM     15  H   UNL     1      43.074   4.587  10.574  0.00  0.00    +0.000 HD
BRANCH  14  16
ATOM     16  C   UNL     1      44.610   4.095   9.423  0.00  0.00    +0.000 A 
ATOM     17  C   UNL     1      44.537   2.722   9.672  0.00  0.00    +0.000 A 
ATOM     18  C   UNL     1      45.320   1.814   8.943  0.00  0.00    +0.000 A 
ATOM     19  C   UNL     1      46.200   2.258   7.948  0.00  0.00    +0.000 A 
ATOM     20  C   UNL     1      46.282   3.634   7.699  0.00  0.00    +0.000 A 
ATOM     21  C   UNL     1      45.488   4.531   8.421  0.00  0.00    +0.000 A 
BRANCH  19  22
ATOM     22  C   UNL     1      47.037   1.293   7.143  0.00  0.00    +0.000 C 
ATOM     23  F   UNL     1      48.378   1.500   7.265  0.00  0.00    +0.000 F 
ATOM     24  F   UNL     1      46.827  -0.003   7.505  0.00  0.00    +0.000 F 
ATOM     25  F   UNL     1      46.771   1.355   5.809  0.00  0.00    +0.000 F 
ENDBRANCH  19  22
ENDBRANCH  14  16
ENDBRANCH   1  14
TORSDOF 5
ENDMDL
MODEL 2
REMARK VINA RESULT:    -8.306      1.845      2.260
REMARK INTER + INTRA:         -11.419
REMARK INTER:                 -10.390
REMARK INTRA:                  -1.028
REMARK UNBOUND:                -0.685
REMARK  Name = 
REMARK  6 active torsions:
REMARK  status: ('A' for Active; 'I' for Inactive)
REMARK    1  A    between atoms: C_1  and  C_2
REMARK    2  A    between atoms: C_4  and  C_5
REMARK    3  A    between atoms: C_10  and  C_11
REMARK    4  A    between atoms: C_11  and  N_12
REMARK    5  A    between atoms: N_12  and  C_13
REMARK    6  A    between atoms: C_16  and  C_17
REMARK                            x       y       z     vdW  Elec       q    Type
REMARK                         _______ _______ _______ _____ _____    ______ ____
ROOT
ATOM      1  C   UNL     1      43.798   5.045  11.480  0.00  0.00    +0.000 C 
ENDROOT
BRANCH   1   8
ATOM      2  C   UNL     1      45.799   3.308  12.981  0.00  0.00    +0.000 C 
ATOM      3  C   UNL     1      46.066   4.748  12.652  0.00  0.00    +0.000 A 
ATOM      4  N   UNL     1      47.273   5.208  13.071  0.00  0.00    +0.000 NA
ATOM      5  C   UNL     1      47.586   6.503  12.795  0.00  0.00    +0.000 A 
ATOM      6  C   UNL     1      46.749   7.369  12.114  0.00  0.00    +0.000 A 
ATOM      7  C   UNL     1      45.517   6.879  11.693  0.00  0.00    +0.000 A 
ATOM      8  C   UNL     1      45.144   5.550  11.962  0.00  0.00    +0.000 A 
BRANCH   5   9
ATOM      9  C   UNL     1      48.926   6.973  13.273  0.00  0.00    +0.000 C 
ATOM     10  N   UNL     1      49.872   7.128  12.294  0.00  0.00    +0.000 N 
ATOM     11  O   UNL     1      49.169   7.205  14.450  0.00  0.00    +0.000 OA
ATOM     12  H   UNL     1      49.624   6.931  11.331  0.00  0.00    +0.000 HD
ATOM     13  H   UNL     1      50.800   7.446  12.533  0.00  0.00    +0.000 HD
ENDBRANCH   5   9
ENDBRANCH   1   8
BRANCH   1  14
ATOM     14  N   UNL     1      43.806   4.952  10.023  0.00  0.00    +0.000 N 
ATOM     15  H   UNL     1      42.858   4.869   9.655  0.00  0.00    +0.000 HD
BRANCH  14  16
ATOM     16  C   UNL     1      44.630   4.028   9.372  0.00  0.00    +0.000 A 
ATOM     17  C   UNL     1      44.570   2.643   9.553  0.00  0.00    +0.000 A 
ATOM     18  C   UNL     1      45.363   1.779   8.783  0.00  0.00    +0.000 A 
ATOM     19  C   UNL     1      46.241   2.281   7.813  0.00  0.00    +0.000 A 
ATOM     20  C   UNL     1      46.309   3.668   7.632  0.00  0.00    +0.000 A 
ATOM     21  C   UNL     1      45.505   4.521   8.396  0.00  0.00    +0.000 A 
BRANCH  19  22
ATOM     22  C   UNL     1      47.088   1.364   6.964  0.00  0.00    +0.000 C 
ATOM     23  F   UNL     1      46.948   1.576   5.626  0.00  0.00    +0.000 F 
ATOM     24  F   UNL     1      48.419   1.499   7.223  0.00  0.00    +0.000 F 
ATOM     25  F   UNL     1      46.801   0.049   7.165  0.00  0.00    +0.000 F 
ENDBRANCH  19  22
ENDBRANCH  14  16
ENDBRANCH   1  14
TORSDOF 5
ENDMDL
MODEL 3
REMARK VINA RESULT:    -8.154      1.526      2.234
REMARK INTER + INTRA:         -11.222
REMARK INTER:                 -10.523
REMARK INTRA:                  -0.699
REMARK UNBOUND:                -0.685
REMARK  Name = 
REMARK  6 active torsions:
REMARK  status: ('A' for Active; 'I' for Inactive)
REMARK    1  A    between atoms: C_1  and  C_2
REMARK    2  A    between atoms: C_4  and  C_5
REMARK    3  A    between atoms: C_10  and  C_11
REMARK    4  A    between atoms: C_11  and  N_12
REMARK    5  A    between atoms: N_12  and  C_13
REMARK    6  A    between atoms: C_16  and  C_17
REMARK                            x       y       z     vdW  Elec       q    Type
REMARK                         _______ _______ _______ _____ _____    ______ ____
ROOT
ATOM      1  C   UNL     1      43.591   5.130  11.134  0.00  0.00    +0.000 C 
ENDROOT
BRANCH   1   8
ATOM      2  C   UNL     1      44.864   7.877  11.458  0.00  0.00    +0.000 C 
ATOM      3  C   UNL     1      45.376   6.660  12.172  0.00  0.00    +0.000 A 
ATOM      4  N   UNL     1      46.445   6.887  12.978  0.00  0.00    +0.000 NA
ATOM      5  C   UNL     1      46.953   5.828  13.667  0.00  0.00    +0.000 A 
ATOM      6  C   UNL     1      46.442   4.546  13.593  0.00  0.00    +0.000 A 
ATOM      7  C   UNL     1      45.346   4.333  12.762  0.00  0.00    +0.000 A 
ATOM      8  C   UNL     1      44.791   5.393  12.022  0.00  0.00    +0.000 A 
BRANCH   5   9
ATOM      9  C   UNL     1      48.132   6.119  14.545  0.00  0.00    +0.000 C 
ATOM     10  N   UNL     1      47.959   5.815  15.870  0.00  0.00    +0.000 N 
ATOM     11  O   UNL     1      49.177   6.593  14.121  0.00  0.00    +0.000 OA
ATOM     12  H   UNL     1      47.079   5.417  16.176  0.00  0.00    +0.000 HD
ATOM     13  H   UNL     1      48.709   5.977  16.527  0.00  0.00    +0.000 HD
ENDBRANCH   5   9
ENDBRANCH   1   8
BRANCH   1  14
ATOM     14  N   UNL     1      43.650   3.762  10.628  0.00  0.00    +0.000 N 
ATOM     15  H   UNL     1      43.814   3.096  11.383  0.00  0.00    +0.000 HD
BRANCH  14  16
ATOM     16  C   UNL     1      44.480   3.437   9.549  0.00  0.00    +0.000 A 
ATOM     17  C   UNL     1      45.020   4.365   8.652  0.00  0.00    +0.000 A 
ATOM     18  C   UNL     1      45.927   3.966   7.660  0.00  0.00    +0.000 A 
ATOM     19  C   UNL     1      46.315   2.625   7.536  0.00  0.00    +0.000 A 
ATOM     20  C   UNL     1      45.773   1.691   8.427  0.00  0.00    +0.000 A 
ATOM     21  C   UNL     1      44.878   2.100   9.422  0.00  0.00    +0.000 A 
BRANCH  19  22
ATOM     22  C   UNL     1      47.303   2.182   6.484  0.00  0.00    +0.000 C 
ATOM     23  F   UNL     1      47.353   0.831   6.317  0.00  0.00    +0.000 F 
ATOM     24  F   UNL     1      47.021   2.698   5.255  0.00  0.00    +0.000 F 
ATOM     25  F   UNL     1      48.578   2.569   6.766  0.00  0.00    +0.000 F 
ENDBRANCH  19  22
ENDBRANCH  14  16
ENDBRANCH   1  14
TORSDOF 5
ENDMDL
MODEL 4
REMARK VINA RESULT:    -6.764      2.438      3.431
REMARK INTER + INTRA:          -9.425
REMARK INTER:                  -9.421
REMARK INTRA:                  -0.004
REMARK UNBOUND:                -0.685
REMARK  Name = 
REMARK  6 active torsions:
REMARK  status: ('A' for Active; 'I' for Inactive)
REMARK    1  A    between atoms: C_1  and  C_2
REMARK    2  A    between atoms: C_4  and  C_5
REMARK    3  A    between atoms: C_10  and  C_11
REMARK    4  A    between atoms: C_11  and  N_12
REMARK    5  A    between atoms: N_12  and  C_13
REMARK    6  A    between atoms: C_16  and  C_17
REMARK                            x       y       z     vdW  Elec       q    Type
REMARK                         _______ _______ _______ _____ _____    ______ ____
ROOT
ATOM      1  C   UNL     1      43.348   3.741  11.484  0.00  0.00    +0.000 C 
ENDROOT
BRANCH   1   8
ATOM      2  C   UNL     1      45.692   4.108  13.393  0.00  0.00    +0.000 C 
ATOM      3  C   UNL     1      45.026   5.261  12.700  0.00  0.00    +0.000 A 
ATOM      4  N   UNL     1      45.559   6.476  12.987  0.00  0.00    +0.000 NA
ATOM      5  C   UNL     1      45.011   7.566  12.383  0.00  0.00    +0.000 A 
ATOM      6  C   UNL     1      43.952   7.502  11.497  0.00  0.00    +0.000 A 
ATOM      7  C   UNL     1      43.418   6.248  11.215  0.00  0.00    +0.000 A 
ATOM      8  C   UNL     1      43.945   5.093  11.822  0.00  0.00    +0.000 A 
BRANCH   5   9
ATOM      9  C   UNL     1      45.627   8.888  12.726  0.00  0.00    +0.000 C 
ATOM     10  N   UNL     1      44.787   9.966  12.618  0.00  0.00    +0.000 N 
ATOM     11  O   UNL     1      46.792   9.009  13.079  0.00  0.00    +0.000 OA
ATOM     12  H   UNL     1      43.827   9.818  12.328  0.00  0.00    +0.000 HD
ATOM     13  H   UNL     1      45.124  10.892  12.835  0.00  0.00    +0.000 HD
ENDBRANCH   5   9
ENDBRANCH   1   8
BRANCH   1  14
ATOM     14  N   UNL     1      44.406   2.839  11.037  0.00  0.00    +0.000 N 
ATOM     15  H   UNL     1      45.171   2.807  11.710  0.00  0.00    +0.000 HD
BRANCH  14  16
ATOM     16  C   UNL     1      44.938   2.950   9.748  0.00  0.00    +0.000 A 
ATOM     17  C   UNL     1      45.205   4.159   9.098  0.00  0.00    +0.000 A 
ATOM     18  C   UNL     1      45.836   4.181   7.845  0.00  0.00    +0.000 A 
ATOM     19  C   UNL     1      46.213   2.992   7.208  0.00  0.00    +0.000 A 
ATOM     20  C   UNL     1      45.942   1.778   7.851  0.00  0.00    +0.000 A 
ATOM     21  C   UNL     1      45.324   1.766   9.106  0.00  0.00    +0.000 A 
BRANCH  19  22
ATOM     22  C   UNL     1      46.908   2.999   5.868  0.00  0.00    +0.000 C 
ATOM     23  F   UNL     1      46.299   2.219   4.933  0.00  0.00    +0.000 F 
ATOM     24  F   UNL     1      46.975   4.246   5.324  0.00  0.00    +0.000 F 
ATOM     25  F   UNL     1      48.193   2.556   5.942  0.00  0.00    +0.000 F 
ENDBRANCH  19  22
ENDBRANCH  14  16
ENDBRANCH   1  14
TORSDOF 5
ENDMDL
MODEL 5
REMARK VINA RESULT:    -6.500      4.702      7.005
REMARK INTER + INTRA:          -9.084
REMARK INTER:                  -8.548
REMARK INTRA:                  -0.536
REMARK UNBOUND:                -0.685
REMARK  Name = 
REMARK  6 active torsions:
REMARK  status: ('A' for Active; 'I' for Inactive)
REMARK    1  A    between atoms: C_1  and  C_2
REMARK    2  A    between atoms: C_4  and  C_5
REMARK    3  A    between atoms: C_10  and  C_11
REMARK    4  A    between atoms: C_11  and  N_12
REMARK    5  A    between atoms: N_12  and  C_13
REMARK    6  A    between atoms: C_16  and  C_17
REMARK                            x       y       z     vdW  Elec       q    Type
REMARK                         _______ _______ _______ _____ _____    ______ ____
ROOT
ATOM      1  C   UNL     1      44.090   5.266  10.623  0.00  0.00    +0.000 C 
ENDROOT
BRANCH   1   8
ATOM      2  C   UNL     1      43.825   2.254  10.982  0.00  0.00    +0.000 C 
ATOM      3  C   UNL     1      44.672   2.869   9.905  0.00  0.00    +0.000 A 
ATOM      4  N   UNL     1      45.301   1.972   9.102  0.00  0.00    +0.000 NA
ATOM      5  C   UNL     1      46.076   2.461   8.096  0.00  0.00    +0.000 A 
ATOM      6  C   UNL     1      46.253   3.809   7.847  0.00  0.00    +0.000 A 
ATOM      7  C   UNL     1      45.601   4.713   8.681  0.00  0.00    +0.000 A 
ATOM      8  C   UNL     1      44.796   4.256   9.740  0.00  0.00    +0.000 A 
BRANCH   5   9
ATOM      9  C   UNL     1      46.753   1.441   7.232  0.00  0.00    +0.000 C 
ATOM     10  N   UNL     1      46.735   0.160   7.721  0.00  0.00    +0.000 N 
ATOM     11  O   UNL     1      47.287   1.719   6.167  0.00  0.00    +0.000 OA
ATOM     12  H   UNL     1      46.275  -0.025   8.605  0.00  0.00    +0.000 HD
ATOM     13  H   UNL     1      47.166  -0.587   7.196  0.00  0.00    +0.000 HD
ENDBRANCH   5   9
ENDBRANCH   1   8
BRANCH   1  14
ATOM     14  N   UNL     1      44.857   6.508  10.653  0.00  0.00    +0.000 N 
ATOM     15  H   UNL     1      45.267   6.709   9.741  0.00  0.00    +0.000 HD
BRANCH  14  16
ATOM     16  C   UNL     1      45.820   6.727  11.643  0.00  0.00    +0.000 A 
ATOM     17  C   UNL     1      46.195   7.985  12.126  0.00  0.00    +0.000 A 
ATOM     18  C   UNL     1      47.095   8.109  13.194  0.00  0.00    +0.000 A 
ATOM     19  C   UNL     1      47.648   6.976  13.806  0.00  0.00    +0.000 A 
ATOM     20  C   UNL     1      47.282   5.715  13.322  0.00  0.00    +0.000 A 
ATOM     21  C   UNL     1      46.373   5.599  12.265  0.00  0.00    +0.000 A 
BRANCH  19  22
ATOM     22  C   UNL     1      48.605   7.093  14.968  0.00  0.00    +0.000 C 
ATOM     23  F   UNL     1      49.913   6.964  14.612  0.00  0.00    +0.000 F 
ATOM     24  F   UNL     1      48.510   8.295  15.601  0.00  0.00    +0.000 F 
ATOM     25  F   UNL     1      48.385   6.149  15.924  0.00  0.00    +0.000 F 
ENDBRANCH  19  22
ENDBRANCH  14  16
ENDBRANCH   1  14
TORSDOF 5
ENDMDL
MODEL 6
REMARK VINA RESULT:    -6.134      3.611      5.786
REMARK INTER + INTRA:          -8.612
REMARK INTER:                  -8.058
REMARK INTRA:                  -0.554
REMARK UNBOUND:                -0.685
REMARK  Name = 
REMARK  6 active torsions:
REMARK  status: ('A' for Active; 'I' for Inactive)
REMARK    1  A    between atoms: C_1  and  C_2
REMARK    2  A    between atoms: C_4  and  C_5
REMARK    3  A    between atoms: C_10  and  C_11
REMARK    4  A    between atoms: C_11  and  N_12
REMARK    5  A    between atoms: N_12  and  C_13
REMARK    6  A    between atoms: C_16  and  C_17
REMARK                            x       y       z     vdW  Elec       q    Type
REMARK                         _______ _______ _______ _____ _____    ______ ____
ROOT
ATOM      1  C   UNL     1      47.109   4.413  16.265  0.00  0.00    +0.000 C 
ENDROOT
BRANCH   1   8
ATOM      2  C   UNL     1      49.329   5.820  17.804  0.00  0.00    +0.000 C 
ATOM      3  C   UNL     1      49.430   4.387  17.369  0.00  0.00    +0.000 A 
ATOM      4  N   UNL     1      50.585   3.769  17.725  0.00  0.00    +0.000 NA
ATOM      5  C   UNL     1      50.738   2.463  17.374  0.00  0.00    +0.000 A 
ATOM      6  C   UNL     1      49.787   1.736  16.682  0.00  0.00    +0.000 A 
ATOM      7  C   UNL     1      48.609   2.386  16.326  0.00  0.00    +0.000 A 
ATOM      8  C   UNL     1      48.408   3.738  16.659  0.00  0.00    +0.000 A 
BRANCH   5   9
ATOM      9  C   UNL     1      52.027   1.818  17.784  0.00  0.00    +0.000 C 
ATOM     10  N   UNL     1      52.164   0.505  17.413  0.00  0.00    +0.000 N 
ATOM     11  O   UNL     1      52.900   2.409  18.404  0.00  0.00    +0.000 OA
ATOM     12  H   UNL     1      51.417   0.057  16.893  0.00  0.00    +0.000 HD
ATOM     13  H   UNL     1      53.005  -0.000  17.648  0.00  0.00    +0.000 HD
ENDBRANCH   5   9
ENDBRANCH   1   8
BRANCH   1  14
ATOM     14  N   UNL     1      47.344   5.298  15.128  0.00  0.00    +0.000 N 
ATOM     15  H   UNL     1      47.301   6.278  15.408  0.00  0.00    +0.000 HD
BRANCH  14  16
ATOM     16  C   UNL     1      46.628   5.134  13.937  0.00  0.00    +0.000 A 
ATOM     17  C   UNL     1      46.418   6.140  12.990  0.00  0.00    +0.000 A 
ATOM     18  C   UNL     1      45.776   5.863  11.773  0.00  0.00    +0.000 A 
ATOM     19  C   UNL     1      45.324   4.571  11.475  0.00  0.00    +0.000 A 
ATOM     20  C   UNL     1      45.526   3.561  12.424  0.00  0.00    +0.000 A 
ATOM     21  C   UNL     1      46.178   3.843  13.629  0.00  0.00    +0.000 A 
BRANCH  19  22
ATOM     22  C   UNL     1      44.647   4.252  10.164  0.00  0.00    +0.000 C 
ATOM     23  F   UNL     1      44.549   2.918   9.911  0.00  0.00    +0.000 F 
ATOM     24  F   UNL     1      43.375   4.736  10.104  0.00  0.00    +0.000 F 
ATOM     25  F   UNL     1      45.299   4.787   9.095  0.00  0.00    +0.000 F 
ENDBRANCH  19  22
ENDBRANCH  14  16
ENDBRANCH   1  14
TORSDOF 5
ENDMDL
MODEL 7
REMARK VINA RESULT:    -6.115      4.915      7.632
REMARK INTER + INTRA:          -8.588
REMARK INTER:                  -7.930
REMARK INTRA:                  -0.658
REMARK UNBOUND:                -0.685
REMARK  Name = 
REMARK  6 active torsions:
REMARK  status: ('A' for Active; 'I' for Inactive)
REMARK    1  A    between atoms: C_1  and  C_2
REMARK    2  A    between atoms: C_4  and  C_5
REMARK    3  A    between atoms: C_10  and  C_11
REMARK    4  A    between atoms: C_11  and  N_12
REMARK    5  A    between atoms: N_12  and  C_13
REMARK    6  A    between atoms: C_16  and  C_17
REMARK                            x       y       z     vdW  Elec       q    Type
REMARK                         _______ _______ _______ _____ _____    ______ ____
ROOT
ATOM      1  C   UNL     1      45.255   5.583  13.345  0.00  0.00    +0.000 C 
ENDROOT
BRANCH   1   8
ATOM      2  C   UNL     1      43.963   3.001  12.377  0.00  0.00    +0.000 C 
ATOM      3  C   UNL     1      44.685   3.939  11.454  0.00  0.00    +0.000 A 
ATOM      4  N   UNL     1      44.707   3.546  10.155  0.00  0.00    +0.000 NA
ATOM      5  C   UNL     1      45.335   4.356   9.260  0.00  0.00    +0.000 A 
ATOM      6  C   UNL     1      45.945   5.550   9.599  0.00  0.00    +0.000 A 
ATOM      7  C   UNL     1      45.912   5.936  10.935  0.00  0.00    +0.000 A 
ATOM      8  C   UNL     1      45.283   5.128  11.899  0.00  0.00    +0.000 A 
BRANCH   5   9
ATOM      9  C   UNL     1      45.339   3.887   7.837  0.00  0.00    +0.000 C 
ATOM     10  N   UNL     1      44.215   3.206   7.446  0.00  0.00    +0.000 N 
ATOM     11  O   UNL     1      46.270   4.092   7.070  0.00  0.00    +0.000 OA
ATOM     12  H   UNL     1      43.464   3.066   8.113  0.00  0.00    +0.000 HD
ATOM     13  H   UNL     1      44.137   2.861   6.501  0.00  0.00    +0.000 HD
ENDBRANCH   5   9
ENDBRANCH   1   8
BRANCH   1  14
ATOM     14  N   UNL     1      46.563   6.118  13.713  0.00  0.00    +0.000 N 
ATOM     15  H   UNL     1      47.156   6.237  12.892  0.00  0.00    +0.000 HD
BRANCH  14  16
ATOM     16  C   UNL     1      47.313   5.526  14.734  0.00  0.00    +0.000 A 
ATOM     17  C   UNL     1      48.305   6.178  15.474  0.00  0.00    +0.000 A 
ATOM     18  C   UNL     1      48.938   5.540  16.552  0.00  0.00    +0.000 A 
ATOM     19  C   UNL     1      48.597   4.231  16.915  0.00  0.00    +0.000 A 
ATOM     20  C   UNL     1      47.609   3.571  16.174  0.00  0.00    +0.000 A 
ATOM     21  C   UNL     1      46.974   4.219  15.108  0.00  0.00    +0.000 A 
BRANCH  19  22
ATOM     22  C   UNL     1      49.256   3.537  18.083  0.00  0.00    +0.000 C 
ATOM     23  F   UNL     1      50.224   4.283  18.685  0.00  0.00    +0.000 F 
ATOM     24  F   UNL     1      48.368   3.217  19.065  0.00  0.00    +0.000 F 
ATOM     25  F   UNL     1      49.855   2.368  17.727  0.00  0.00    +0.000 F 
ENDBRANCH  19  22
ENDBRANCH  14  16
ENDBRANCH   1  14
TORSDOF 5
ENDMDL
MODEL 8
REMARK VINA RESULT:    -5.912      3.405      5.127
REMARK INTER + INTRA:          -8.324
REMARK INTER:                  -7.718
REMARK INTRA:                  -0.606
REMARK UNBOUND:                -0.685
REMARK  Name = 
REMARK  6 active torsions:
REMARK  status: ('A' for Active; 'I' for Inactive)
REMARK    1  A    between atoms: C_1  and  C_2
REMARK    2  A    between atoms: C_4  and  C_5
REMARK    3  A    between atoms: C_10  and  C_11
REMARK    4  A    between atoms: C_11  and  N_12
REMARK    5  A    between atoms: N_12  and  C_13
REMARK    6  A    between atoms: C_16  and  C_17
REMARK                            x       y       z     vdW  Elec       q    Type
REMARK                         _______ _______ _______ _____ _____    ______ ____
ROOT
ATOM      1  C   UNL     1      48.449   6.642  14.443  0.00  0.00    +0.000 C 
ENDROOT
BRANCH   1   8
ATOM      2  C   UNL     1      49.495   8.423  16.680  0.00  0.00    +0.000 C 
ATOM      3  C   UNL     1      48.988   7.031  16.925  0.00  0.00    +0.000 A 
ATOM      4  N   UNL     1      49.027   6.637  18.224  0.00  0.00    +0.000 NA
ATOM      5  C   UNL     1      48.570   5.390  18.520  0.00  0.00    +0.000 A 
ATOM      6  C   UNL     1      48.070   4.510  17.577  0.00  0.00    +0.000 A 
ATOM      7  C   UNL     1      48.038   4.932  16.251  0.00  0.00    +0.000 A 
ATOM      8  C   UNL     1      48.508   6.209  15.895  0.00  0.00    +0.000 A 
BRANCH   5   9
ATOM      9  C   UNL     1      48.630   4.992  19.963  0.00  0.00    +0.000 C 
ATOM     10  N   UNL     1      48.487   3.650  20.203  0.00  0.00    +0.000 N 
ATOM     11  O   UNL     1      48.796   5.797  20.869  0.00  0.00    +0.000 OA
ATOM     12  H   UNL     1      48.359   3.018  19.420  0.00  0.00    +0.000 HD
ATOM     13  H   UNL     1      48.520   3.300  21.149  0.00  0.00    +0.000 HD
ENDBRANCH   5   9
ENDBRANCH   1   8
BRANCH   1  14
ATOM     14  N   UNL     1      47.055   6.815  14.042  0.00  0.00    +0.000 N 
ATOM     15  H   UNL     1      46.444   6.886  14.855  0.00  0.00    +0.000 HD
BRANCH  14  16
ATOM     16  C   UNL     1      46.470   5.952  13.109  0.00  0.00    +0.000 A 
ATOM     17  C   UNL     1      45.929   4.699  13.413  0.00  0.00    +0.000 A 
ATOM     18  C   UNL     1      45.268   3.942  12.434  0.00  0.00    +0.000 A 
ATOM     19  C   UNL     1      45.134   4.418  11.124  0.00  0.00    +0.000 A 
ATOM     20  C   UNL     1      45.679   5.669  10.812  0.00  0.00    +0.000 A 
ATOM     21  C   UNL     1      46.326   6.423  11.797  0.00  0.00    +0.000 A 
BRANCH  19  22
ATOM     22  C   UNL     1      44.410   3.623  10.064  0.00  0.00    +0.000 C 
ATOM     23  F   UNL     1      45.225   2.801   9.346  0.00  0.00    +0.000 F 
ATOM     24  F   UNL     1      43.441   2.820  10.587  0.00  0.00    +0.000 F 
ATOM     25  F   UNL     1      43.784   4.416   9.151  0.00  0.00    +0.000 F 
ENDBRANCH  19  22
ENDBRANCH  14  16
ENDBRANCH   1  14
TORSDOF 5
ENDMDL
MODEL 9
REMARK VINA RESULT:    -5.804      5.126      7.056
REMARK INTER + INTRA:          -8.184
REMARK INTER:                  -7.559
REMARK INTRA:                  -0.626
REMARK UNBOUND:                -0.685
REMARK  Name = 
REMARK  6 active torsions:
REMARK  status: ('A' for Active; 'I' for Inactive)
REMARK    1  A    between atoms: C_1  and  C_2
REMARK    2  A    between atoms: C_4  and  C_5
REMARK    3  A    between atoms: C_10  and  C_11
REMARK    4  A    between atoms: C_11  and  N_12
REMARK    5  A    between atoms: N_12  and  C_13
REMARK    6  A    between atoms: C_16  and  C_17
REMARK                            x       y       z     vdW  Elec       q    Type
REMARK                         _______ _______ _______ _____ _____    ______ ____
ROOT
ATOM      1  C   UNL     1      47.186   7.043  13.268  0.00  0.00    +0.000 C 
ENDROOT
BRANCH   1   8
ATOM      2  C   UNL     1      46.850   4.348  14.645  0.00  0.00    +0.000 C 
ATOM      3  C   UNL     1      46.198   4.672  13.333  0.00  0.00    +0.000 A 
ATOM      4  N   UNL     1      45.440   3.670  12.817  0.00  0.00    +0.000 NA
ATOM      5  C   UNL     1      44.808   3.901  11.634  0.00  0.00    +0.000 A 
ATOM      6  C   UNL     1      44.893   5.091  10.936  0.00  0.00    +0.000 A 
ATOM      7  C   UNL     1      45.673   6.107  11.480  0.00  0.00    +0.000 A 
ATOM      8  C   UNL     1      46.353   5.913  12.697  0.00  0.00    +0.000 A 
BRANCH   5   9
ATOM      9  C   UNL     1      43.983   2.771  11.097  0.00  0.00    +0.000 C 
ATOM     10  N   UNL     1      44.460   2.199   9.946  0.00  0.00    +0.000 N 
ATOM     11  O   UNL     1      42.958   2.379  11.638  0.00  0.00    +0.000 OA
ATOM     12  H   UNL     1      45.317   2.551   9.536  0.00  0.00    +0.000 HD
ATOM     13  H   UNL     1      43.964   1.428   9.523  0.00  0.00    +0.000 HD
ENDBRANCH   5   9
ENDBRANCH   1   8
BRANCH   1  14
ATOM     14  N   UNL     1      47.272   8.127  12.294  0.00  0.00    +0.000 N 
ATOM     15  H   UNL     1      46.649   7.962  11.504  0.00  0.00    +0.000 HD
BRANCH  14  16
ATOM     16  C   UNL     1      48.514   8.554  11.811  0.00  0.00    +0.000 A 
ATOM     17  C   UNL     1      48.860   9.887  11.571  0.00  0.00    +0.000 A 
ATOM     18  C   UNL     1      50.162  10.237  11.185  0.00  0.00    +0.000 A 
ATOM     19  C   UNL     1      51.153   9.260  11.026  0.00  0.00    +0.000 A 
ATOM     20  C   UNL     1      50.811   7.922  11.258  0.00  0.00    +0.000 A 
ATOM     21  C   UNL     1      49.513   7.583  11.655  0.00  0.00    +0.000 A 
BRANCH  19  22
ATOM     22  C   UNL     1      52.564   9.621  10.628  0.00  0.00    +0.000 C 
ATOM     23  F   UNL     1      53.076   8.824   9.650  0.00  0.00    +0.000 F 
ATOM     24  F   UNL     1      52.660  10.896  10.156  0.00  0.00    +0.000 F 
ATOM     25  F   UNL     1      53.438   9.543  11.668  0.00  0.00    +0.000 F 
ENDBRANCH  19  22
ENDBRANCH  14  16
ENDBRANCH   1  14
TORSDOF 5
ENDMDL
