MODEL 1
REMARK VINA RESULT:    -8.493      0.000      0.000
REMARK INTER + INTRA:         -11.735
REMARK INTER:                 -10.975
REMARK INTRA:                  -0.760
REMARK UNBOUND:                -0.760
REMARK  Name = 
REMARK  7 active torsions:
REMARK  status: ('A' for Active; 'I' for Inactive)
REMARK    1  A    between atoms: C_1  and  O_2
REMARK    2  A    between atoms: O_2  and  C_3
REMARK    3  A    between atoms: C_6  and  C_7
REMARK    4  A    between atoms: C_7  and  C_8
REMARK    5  A    between atoms: C_7  and  N_9
REMARK    6  A    between atoms: N_9  and  C_10
REMARK    7  A    between atoms: C_13  and  C_14
REMARK                            x       y       z     vdW  Elec       q    Type
REMARK                         _______ _______ _______ _____ _____    ______ ____
ROOT
ATOM      1  N   UNL     1      43.584   4.030  10.468  0.00  0.00    +0.000 N 
ATOM      2  H   UNL     1      43.230   3.265  11.044  0.00  0.00    +0.000 HD
ENDROOT
BRANCH   1   3
ATOM      3  C   UNL     1      44.575   3.600   9.587  0.00  0.00    +0.000 A 
ATOM      4  C   UNL     1      45.264   4.439   8.709  0.00  0.00    +0.000 A 
ATOM      5  C   UNL     1      46.157   3.928   7.753  0.00  0.00    +0.000 A 
ATOM      6  C   UNL     1      46.358   2.550   7.631  0.00  0.00    +0.000 A 
ATOM      7  C   UNL     1      45.674   1.698   8.505  0.00  0.00    +0.000 A 
ATOM      8  C   UNL     1      44.795   2.219   9.463  0.00  0.00    +0.000 A 
BRANCH   6   9
ATOM      9  C   UNL     1      47.261   1.989   6.561  0.00  0.00    +0.000 C 
ATOM     10  F   UNL     1      47.009   2.492   5.319  0.00  0.00    +0.000 F 
ATOM     11  F   UNL     1      48.578   2.232   6.802  0.00  0.00    +0.000 F 
ATOM     12  F   UNL     1      47.146   0.637   6.442  0.00  0.00    +0.000 F 
ENDBRANCH   6   9
ENDBRANCH   1   3
BRANCH   1  13
ATOM     13  C   UNL     1      43.680   5.282  11.230  0.00  0.00    +0.000 C 
ATOM     14  C   UNL     1      42.337   5.535  11.917  0.00  0.00    +0.000 C 
BRANCH  13  18
ATOM     15  C   UNL     1      46.815   4.949  14.048  0.00  0.00    +0.000 A 
ATOM     16  C   UNL     1      46.866   6.007  13.164  0.00  0.00    +0.000 A 
ATOM     17  C   UNL     1      45.833   6.149  12.246  0.00  0.00    +0.000 A 
ATOM     18  C   UNL     1      44.798   5.220  12.255  0.00  0.00    +0.000 A 
ATOM     19  N   UNL     1      44.773   4.208  13.157  0.00  0.00    +0.000 NA
ATOM     20  N   UNL     1      45.786   4.076  14.064  0.00  0.00    +0.000 NA
BRANCH  15  22
ATOM     21  C   UNL     1      47.517   4.188  16.142  0.00  0.00    +0.000 C 
ATOM     22  O   UNL     1      47.882   4.802  14.909  0.00  0.00    +0.000 OA
ENDBRANCH  15  22
ENDBRANCH  13  18
ENDBRANCH   1  13
TORSDOF 5
ENDMDL
MODEL 2
REMARK VINA RESULT:    -8.311      0.633      1.240
REMARK INTER + INTRA:         -11.500
REMARK INTER:                 -10.753
REMARK INTRA:                  -0.747
REMARK UNBOUND:                -0.760
REMARK  Name = 
REMARK  7 active torsions:
REMARK  status: ('A' for Active; 'I' for Inactive)
REMARK    1  A    between atoms: C_1  and  O_2
REMARK    2  A    between atoms: O_2  and  C_3
REMARK    3  A    between atoms: C_6  and  C_7
REMARK    4  A    between atoms: C_7  and  C_8
REMARK    5  A    between atoms: C_7  and  N_9
REMARK    6  A    between atoms: N_9  and  C_10
REMARK    7  A    between atoms: C_13  and  C_14
REMARK                            x       y       z     vdW  Elec       q    Type
REMARK                         _______ _______ _______ _____ _____    ______ ____
ROOT
ATOM      1  N   UNL     1      43.695   3.740  10.654  0.00  0.00    +0.000 N 
ATOM      2  H   UNL     1      43.634   3.033  11.388  0.00  0.00    +0.000 HD
ENDROOT
BRANCH   1   3
ATOM      3  C   UNL     1      44.473   3.309   9.581  0.00  0.00    +0.000 A 
ATOM      4  C   UNL     1      44.910   1.994   9.404  0.00  0.00    +0.000 A 
ATOM      5  C   UNL     1      45.801   1.650   8.375  0.00  0.00    +0.000 A 
ATOM      6  C   UNL     1      46.307   2.627   7.512  0.00  0.00    +0.000 A 
ATOM      7  C   UNL     1      45.877   3.948   7.679  0.00  0.00    +0.000 A 
ATOM      8  C   UNL     1      44.978   4.279   8.700  0.00  0.00    +0.000 A 
BRANCH   6   9
ATOM      9  C   UNL     1      47.318   2.275   6.450  0.00  0.00    +0.000 C 
ATOM     10  F   UNL     1      47.023   2.797   5.225  0.00  0.00    +0.000 F 
ATOM     11  F   UNL     1      48.571   2.713   6.749  0.00  0.00    +0.000 F 
ATOM     12  F   UNL     1      47.426   0.930   6.262  0.00  0.00    +0.000 F 
ENDBRANCH   6   9
ENDBRANCH   1   3
BRANCH   1  13
ATOM     13  C   UNL     1      43.783   5.095  11.213  0.00  0.00    +0.000 C 
ATOM     14  C   UNL     1      42.440   5.440  11.859  0.00  0.00    +0.000 C 
BRANCH  13  18
ATOM     15  C   UNL     1      46.946   5.228  14.016  0.00  0.00    +0.000 A 
ATOM     16  C   UNL     1      46.870   6.254  13.096  0.00  0.00    +0.000 A 
ATOM     17  C   UNL     1      45.823   6.242  12.182  0.00  0.00    +0.000 A 
ATOM     18  C   UNL     1      44.905   5.199  12.231  0.00  0.00    +0.000 A 
ATOM     19  N   UNL     1      45.002   4.222  13.167  0.00  0.00    +0.000 NA
ATOM     20  N   UNL     1      46.027   4.241  14.069  0.00  0.00    +0.000 NA
BRANCH  15  22
ATOM     21  C   UNL     1      48.600   6.530  15.031  0.00  0.00    +0.000 C 
ATOM     22  O   UNL     1      48.027   5.235  14.873  0.00  0.00    +0.000 OA
ENDBRANCH  15  22
ENDBRANCH  13  18
ENDBRANCH   1  13
TORSDOF 5
ENDMDL
MODEL 3
REMARK VINA RESULT:    -7.325      2.034      2.903
REMARK INTER + INTRA:         -10.226
REMARK INTER:                  -9.649
REMARK INTRA:                  -0.577
REMARK UNBOUND:                -0.760
REMARK  Name = 
REMARK  7 active torsions:
REMARK  status: ('A' for Active; 'I' for Inactive)
REMARK    1  A    between atoms: C_1  and  O_2
REMARK    2  A    between atoms: O_2  and  C_3
REMARK    3  A    between atoms: C_6  and  C_7
REMARK    4  A    between atoms: C_7  and  C_8
REMARK    5  A    between atoms: C_7  and  N_9
REMARK    6  A    between atoms: N_9  and  C_10
REMARK    7  A    between atoms: C_13  and  C_14
REMARK                            x       y       z     vdW  Elec       q    Type
REMARK                         _______ _______ _______ _____ _____    ______ ____
ROOT
ATOM      1  N   UNL     1      43.788   3.912  10.675  0.00  0.00    +0.000 N 
ATOM      2  H   UNL     1      42.969   3.302  10.652  0.00  0.00    +0.000 HD
ENDROOT
BRANCH   1   3
ATOM      3  C   UNL     1      44.724   3.560   9.704  0.00  0.00    +0.000 A 
ATOM      4  C   UNL     1      45.389   4.474   8.885  0.00  0.00    +0.000 A 
ATOM      5  C   UNL     1      46.222   4.050   7.837  0.00  0.00    +0.000 A 
ATOM      6  C   UNL     1      46.386   2.689   7.562  0.00  0.00    +0.000 A 
ATOM      7  C   UNL     1      45.726   1.762   8.377  0.00  0.00    +0.000 A 
ATOM      8  C   UNL     1      44.907   2.196   9.426  0.00  0.00    +0.000 A 
BRANCH   6   9
ATOM      9  C   UNL     1      47.223   2.228   6.395  0.00  0.00    +0.000 C 
ATOM     10  F   UNL     1      48.555   2.475   6.550  0.00  0.00    +0.000 F 
ATOM     11  F   UNL     1      47.116   0.891   6.165  0.00  0.00    +0.000 F 
ATOM     12  F   UNL     1      46.868   2.838   5.229  0.00  0.00    +0.000 F 
ENDBRANCH   6   9
ENDBRANCH   1   3
BRANCH   1  13
ATOM     13  C   UNL     1      44.158   4.271  12.050  0.00  0.00    +0.000 C 
ATOM     14  C   UNL     1      45.284   3.343  12.507  0.00  0.00    +0.000 C 
BRANCH  13  18
ATOM     15  C   UNL     1      45.530   8.264  12.284  0.00  0.00    +0.000 A 
ATOM     16  C   UNL     1      44.470   8.006  11.439  0.00  0.00    +0.000 A 
ATOM     17  C   UNL     1      43.988   6.705  11.366  0.00  0.00    +0.000 A 
ATOM     18  C   UNL     1      44.594   5.722  12.142  0.00  0.00    +0.000 A 
ATOM     19  N   UNL     1      45.618   6.023  12.979  0.00  0.00    +0.000 NA
ATOM     20  N   UNL     1      46.084   7.305  13.055  0.00  0.00    +0.000 NA
BRANCH  15  22
ATOM     21  C   UNL     1      45.080  10.510  11.824  0.00  0.00    +0.000 C 
ATOM     22  O   UNL     1      46.023   9.552  12.294  0.00  0.00    +0.000 OA
ENDBRANCH  15  22
ENDBRANCH  13  18
ENDBRANCH   1  13
TORSDOF 5
ENDMDL
MODEL 4
REMARK VINA RESULT:    -6.468      4.917      7.336
REMARK INTER + INTRA:          -9.118
REMARK INTER:                  -8.503
REMARK INTRA:                  -0.615
REMARK UNBOUND:                -0.760
REMARK  Name = 
REMARK  7 active torsions:
REMARK  status: ('A' for Active; 'I' for Inactive)
REMARK    1  A    between atoms: C_1  and  O_2
REMARK    2  A    between atoms: O_2  and  C_3
REMARK    3  A    between atoms: C_6  and  C_7
REMARK    4  A    between atoms: C_7  and  C_8
REMARK    5  A    between atoms: C_7  and  N_9
REMARK    6  A    between atoms: N_9  and  C_10
REMARK    7  A    between atoms: C_13  and  C_14
REMARK                            x       y       z     vdW  Elec       q    Type
REMARK                         _______ _______ _______ _____ _____    ______ ____
ROOT
ATOM      1  N   UNL     1      44.718   6.255  10.992  0.00  0.00    +0.000 N 
ATOM      2  H   UNL     1      44.665   6.641  10.049  0.00  0.00    +0.000 HD
ENDROOT
BRANCH   1   3
ATOM      3  C   UNL     1      45.697   6.887  11.757  0.00  0.00    +0.000 A 
ATOM      4  C   UNL     1      46.946   6.333  12.049  0.00  0.00    +0.000 A 
ATOM      5  C   UNL     1      47.838   6.960  12.933  0.00  0.00    +0.000 A 
ATOM      6  C   UNL     1      47.486   8.151  13.576  0.00  0.00    +0.000 A 
ATOM      7  C   UNL     1      46.238   8.717  13.292  0.00  0.00    +0.000 A 
ATOM      8  C   UNL     1      45.361   8.089  12.399  0.00  0.00    +0.000 A 
BRANCH   6   9
ATOM      9  C   UNL     1      48.410   8.793  14.580  0.00  0.00    +0.000 C 
ATOM     10  F   UNL     1      47.772   9.239  15.699  0.00  0.00    +0.000 F 
ATOM     11  F   UNL     1      49.384   7.949  15.017  0.00  0.00    +0.000 F 
ATOM     12  F   UNL     1      49.058   9.878  14.069  0.00  0.00    +0.000 F 
ENDBRANCH   6   9
ENDBRANCH   1   3
BRANCH   1  13
ATOM     13  C   UNL     1      44.517   4.800  10.995  0.00  0.00    +0.000 C 
ATOM     14  C   UNL     1      43.022   4.519  11.155  0.00  0.00    +0.000 C 
BRANCH  13  18
ATOM     15  C   UNL     1      46.124   3.123   7.462  0.00  0.00    +0.000 A 
ATOM     16  C   UNL     1      45.536   2.260   8.364  0.00  0.00    +0.000 A 
ATOM     17  C   UNL     1      44.979   2.793   9.520  0.00  0.00    +0.000 A 
ATOM     18  C   UNL     1      45.043   4.168   9.719  0.00  0.00    +0.000 A 
ATOM     19  N   UNL     1      45.609   4.985   8.796  0.00  0.00    +0.000 NA
ATOM     20  N   UNL     1      46.148   4.458   7.656  0.00  0.00    +0.000 NA
BRANCH  15  22
ATOM     21  C   UNL     1      47.973   1.952   6.643  0.00  0.00    +0.000 C 
ATOM     22  O   UNL     1      46.717   2.559   6.352  0.00  0.00    +0.000 OA
ENDBRANCH  15  22
ENDBRANCH  13  18
ENDBRANCH   1  13
TORSDOF 5
ENDMDL
MODEL 5
REMARK VINA RESULT:    -6.380      4.830      7.355
REMARK INTER + INTRA:          -9.005
REMARK INTER:                  -8.385
REMARK INTRA:                  -0.620
REMARK UNBOUND:                -0.760
REMARK  Name = 
REMARK  7 active torsions:
REMARK  status: ('A' for Active; 'I' for Inactive)
REMARK    1  A    between atoms: C_1  and  O_2
REMARK    2  A    between atoms: O_2  and  C_3
REMARK    3  A    between atoms: C_6  and  C_7
REMARK    4  A    between atoms: C_7  and  C_8
REMARK    5  A    between atoms: C_7  and  N_9
REMARK    6  A    between atoms: N_9  and  C_10
REMARK    7  A    between atoms: C_13  and  C_14
REMARK                            x       y       z     vdW  Elec       q    Type
REMARK                         _______ _______ _______ _____ _____    ______ ____
ROOT
ATOM      1  N   UNL     1      45.820   5.654  11.584  0.00  0.00    +0.000 N 
ATOM      2  H   UNL     1      46.500   5.878  10.857  0.00  0.00    +0.000 HD
ENDROOT
BRANCH   1   3
ATOM      3  C   UNL     1      46.400   5.635  12.851  0.00  0.00    +0.000 A 
ATOM      4  C   UNL     1      47.305   6.592  13.316  0.00  0.00    +0.000 A 
ATOM      5  C   UNL     1      47.957   6.447  14.551  0.00  0.00    +0.000 A 
ATOM      6  C   UNL     1      47.741   5.315  15.343  0.00  0.00    +0.000 A 
ATOM      7  C   UNL     1      46.836   4.349  14.889  0.00  0.00    +0.000 A 
ATOM      8  C   UNL     1      46.183   4.509  13.661  0.00  0.00    +0.000 A 
BRANCH   6   9
ATOM      9  C   UNL     1      48.490   5.119  16.637  0.00  0.00    +0.000 C 
ATOM     10  F   UNL     1      48.013   5.880  17.662  0.00  0.00    +0.000 F 
ATOM     11  F   UNL     1      48.452   3.832  17.079  0.00  0.00    +0.000 F 
ATOM     12  F   UNL     1      49.811   5.436  16.525  0.00  0.00    +0.000 F 
ENDBRANCH   6   9
ENDBRANCH   1   3
BRANCH   1  13
ATOM     13  C   UNL     1      44.856   4.642  11.131  0.00  0.00    +0.000 C 
ATOM     14  C   UNL     1      43.477   5.296  11.034  0.00  0.00    +0.000 C 
BRANCH  13  18
ATOM     15  C   UNL     1      46.126   3.098   7.405  0.00  0.00    +0.000 A 
ATOM     16  C   UNL     1      45.687   2.194   8.350  0.00  0.00    +0.000 A 
ATOM     17  C   UNL     1      45.242   2.683   9.572  0.00  0.00    +0.000 A 
ATOM     18  C   UNL     1      45.262   4.056   9.791  0.00  0.00    +0.000 A 
ATOM     19  N   UNL     1      45.678   4.913   8.826  0.00  0.00    +0.000 NA
ATOM     20  N   UNL     1      46.108   4.430   7.622  0.00  0.00    +0.000 NA
BRANCH  15  22
ATOM     21  C   UNL     1      47.914   2.015   6.362  0.00  0.00    +0.000 C 
ATOM     22  O   UNL     1      46.614   2.581   6.223  0.00  0.00    +0.000 OA
ENDBRANCH  15  22
ENDBRANCH  13  18
ENDBRANCH   1  13
TORSDOF 5
ENDMDL
MODEL 6
REMARK VINA RESULT:    -6.359      3.783      6.170
REMARK INTER + INTRA:          -8.978
REMARK INTER:                  -8.601
REMARK INTRA:                  -0.377
REMARK UNBOUND:                -0.760
REMARK  Name = 
REMARK  7 active torsions:
REMARK  status: ('A' for Active; 'I' for Inactive)
REMARK    1  A    between atoms: C_1  and  O_2
REMARK    2  A    between atoms: O_2  and  C_3
REMARK    3  A    between atoms: C_6  and  C_7
REMARK    4  A    between atoms: C_7  and  C_8
REMARK    5  A    between atoms: C_7  and  N_9
REMARK    6  A    between atoms: N_9  and  C_10
REMARK    7  A    between atoms: C_13  and  C_14
REMARK                            x       y       z     vdW  Elec       q    Type
REMARK                         _______ _______ _______ _____ _____    ______ ____
ROOT
ATOM      1  N   UNL     1      44.014   4.256  13.021  0.00  0.00    +0.000 N 
ATOM      2  H   UNL     1      43.515   4.246  13.912  0.00  0.00    +0.000 HD
ENDROOT
BRANCH   1   3
ATOM      3  C   UNL     1      45.084   5.149  13.036  0.00  0.00    +0.000 A 
ATOM      4  C   UNL     1      44.979   6.508  12.731  0.00  0.00    +0.000 A 
ATOM      5  C   UNL     1      46.114   7.328  12.634  0.00  0.00    +0.000 A 
ATOM      6  C   UNL     1      47.395   6.797  12.811  0.00  0.00    +0.000 A 
ATOM      7  C   UNL     1      47.514   5.438  13.120  0.00  0.00    +0.000 A 
ATOM      8  C   UNL     1      46.375   4.631  13.225  0.00  0.00    +0.000 A 
BRANCH   6   9
ATOM      9  C   UNL     1      48.622   7.657  12.640  0.00  0.00    +0.000 C 
ATOM     10  F   UNL     1      49.040   8.245  13.798  0.00  0.00    +0.000 F 
ATOM     11  F   UNL     1      49.692   6.961  12.168  0.00  0.00    +0.000 F 
ATOM     12  F   UNL     1      48.422   8.678  11.760  0.00  0.00    +0.000 F 
ENDBRANCH   6   9
ENDBRANCH   1   3
BRANCH   1  13
ATOM     13  C   UNL     1      43.095   4.129  11.883  0.00  0.00    +0.000 C 
ATOM     14  C   UNL     1      42.350   5.454  11.712  0.00  0.00    +0.000 C 
BRANCH  13  18
ATOM     15  C   UNL     1      45.273   3.254   8.366  0.00  0.00    +0.000 A 
ATOM     16  C   UNL     1      45.015   2.209   9.229  0.00  0.00    +0.000 A 
ATOM     17  C   UNL     1      44.280   2.470  10.379  0.00  0.00    +0.000 A 
ATOM     18  C   UNL     1      43.840   3.769  10.610  0.00  0.00    +0.000 A 
ATOM     19  N   UNL     1      44.093   4.764   9.724  0.00  0.00    +0.000 NA
ATOM     20  N   UNL     1      44.810   4.502   8.590  0.00  0.00    +0.000 NA
BRANCH  15  22
ATOM     21  C   UNL     1      46.916   1.861   7.460  0.00  0.00    +0.000 C 
ATOM     22  O   UNL     1      46.053   2.977   7.262  0.00  0.00    +0.000 OA
ENDBRANCH  15  22
ENDBRANCH  13  18
ENDBRANCH   1  13
TORSDOF 5
ENDMDL
MODEL 7
REMARK VINA RESULT:    -6.279      2.466      4.063
REMARK INTER + INTRA:          -8.874
REMARK INTER:                  -8.285
REMARK INTRA:                  -0.589
REMARK UNBOUND:                -0.760
REMARK  Name = 
REMARK  7 active torsions:
REMARK  status: ('A' for Active; 'I' for Inactive)
REMARK    1  A    between atoms: C_1  and  O_2
REMARK    2  A    between atoms: O_2  and  C_3
REMARK    3  A    between atoms: C_6  and  C_7
REMARK    4  A    between atoms: C_7  and  C_8
REMARK    5  A    between atoms: C_7  and  N_9
REMARK    6  A    between atoms: N_9  and  C_10
REMARK    7  A    between atoms: C_13  and  C_14
REMARK                            x       y       z     vdW  Elec       q    Type
REMARK                         _______ _______ _______ _____ _____    ______ ____
ROOT
ATOM      1  N   UNL     1      46.034   6.177  13.298  0.00  0.00    +0.000 N 
ATOM      2  H   UNL     1      45.477   5.996  14.134  0.00  0.00    +0.000 HD
ENDROOT
BRANCH   1   3
ATOM      3  C   UNL     1      45.633   5.383  12.225  0.00  0.00    +0.000 A 
ATOM      4  C   UNL     1      45.213   4.056  12.343  0.00  0.00    +0.000 A 
ATOM      5  C   UNL     1      44.948   3.267  11.212  0.00  0.00    +0.000 A 
ATOM      6  C   UNL     1      45.130   3.782   9.925  0.00  0.00    +0.000 A 
ATOM      7  C   UNL     1      45.550   5.110   9.793  0.00  0.00    +0.000 A 
ATOM      8  C   UNL     1      45.800   5.892  10.927  0.00  0.00    +0.000 A 
BRANCH   6   9
ATOM      9  C   UNL     1      44.915   2.919   8.707  0.00  0.00    +0.000 C 
ATOM     10  F   UNL     1      44.020   1.910   8.906  0.00  0.00    +0.000 F 
ATOM     11  F   UNL     1      44.452   3.622   7.637  0.00  0.00    +0.000 F 
ATOM     12  F   UNL     1      46.064   2.316   8.289  0.00  0.00    +0.000 F 
ENDBRANCH   6   9
ENDBRANCH   1   3
BRANCH   1  13
ATOM     13  C   UNL     1      47.443   6.422  13.629  0.00  0.00    +0.000 C 
ATOM     14  C   UNL     1      47.628   7.919  13.882  0.00  0.00    +0.000 C 
BRANCH  13  18
ATOM     15  C   UNL     1      48.650   4.330  17.099  0.00  0.00    +0.000 A 
ATOM     16  C   UNL     1      47.525   3.875  16.443  0.00  0.00    +0.000 A 
ATOM     17  C   UNL     1      47.125   4.534  15.287  0.00  0.00    +0.000 A 
ATOM     18  C   UNL     1      47.872   5.620  14.845  0.00  0.00    +0.000 A 
ATOM     19  N   UNL     1      48.987   6.021  15.505  0.00  0.00    +0.000 NA
ATOM     20  N   UNL     1      49.381   5.366  16.637  0.00  0.00    +0.000 NA
BRANCH  15  22
ATOM     21  C   UNL     1      48.702   4.473  19.431  0.00  0.00    +0.000 C 
ATOM     22  O   UNL     1      48.990   3.693  18.275  0.00  0.00    +0.000 OA
ENDBRANCH  15  22
ENDBRANCH  13  18
ENDBRANCH   1  13
TORSDOF 5
ENDMDL
MODEL 8
REMARK VINA RESULT:    -5.966      5.086      7.713
REMARK INTER + INTRA:          -8.469
REMARK INTER:                  -7.838
REMARK INTRA:                  -0.631
REMARK UNBOUND:                -0.760
REMARK  Name = 
REMARK  7 active torsions:
REMARK  status: ('A' for Active; 'I' for Inactive)
REMARK    1  A    between atoms: C_1  and  O_2
REMARK    2  A    between atoms: O_2  and  C_3
REMARK    3  A    between atoms: C_6  and  C_7
REMARK    4  A    between atoms: C_7  and  C_8
REMARK    5  A    between atoms: C_7  and  N_9
REMARK    6  A    between atoms: N_9  and  C_10
REMARK    7  A    between atoms: C_13  and  C_14
REMARK                            x       y       z     vdW  Elec       q    Type
REMARK                         _______ _______ _______ _____ _____    ______ ____
ROOT
ATOM      1  N   UNL     1      46.828   6.197  12.423  0.00  0.00    +0.000 N 
ATOM      2  H   UNL     1      47.490   5.993  11.673  0.00  0.00    +0.000 HD
ENDROOT
BRANCH   1   3
ATOM      3  C   UNL     1      47.249   5.673  13.644  0.00  0.00    +0.000 A 
ATOM      4  C   UNL     1      46.764   4.487  14.199  0.00  0.00    +0.000 A 
ATOM      5  C   UNL     1      47.129   4.079  15.492  0.00  0.00    +0.000 A 
ATOM      6  C   UNL     1      47.970   4.872  16.279  0.00  0.00    +0.000 A 
ATOM      7  C   UNL     1      48.464   6.062  15.734  0.00  0.00    +0.000 A 
ATOM      8  C   UNL     1      48.103   6.454  14.439  0.00  0.00    +0.000 A 
BRANCH   6   9
ATOM      9  C   UNL     1      48.310   4.475  17.694  0.00  0.00    +0.000 C 
ATOM     10  F   UNL     1      48.349   3.126  17.885  0.00  0.00    +0.000 F 
ATOM     11  F   UNL     1      49.523   4.944  18.097  0.00  0.00    +0.000 F 
ATOM     12  F   UNL     1      47.407   4.950  18.597  0.00  0.00    +0.000 F 
ENDBRANCH   6   9
ENDBRANCH   1   3
BRANCH   1  13
ATOM     13  C   UNL     1      45.438   6.119  11.956  0.00  0.00    +0.000 C 
ATOM     14  C   UNL     1      44.917   7.541  11.743  0.00  0.00    +0.000 C 
BRANCH  13  18
ATOM     15  C   UNL     1      45.309   3.884   8.368  0.00  0.00    +0.000 A 
ATOM     16  C   UNL     1      44.558   3.424   9.430  0.00  0.00    +0.000 A 
ATOM     17  C   UNL     1      44.567   4.157  10.610  0.00  0.00    +0.000 A 
ATOM     18  C   UNL     1      45.333   5.316  10.671  0.00  0.00    +0.000 A 
ATOM     19  N   UNL     1      46.038   5.748   9.597  0.00  0.00    +0.000 NA
ATOM     20  N   UNL     1      46.021   5.029   8.435  0.00  0.00    +0.000 NA
BRANCH  15  22
ATOM     21  C   UNL     1      46.554   3.199   6.513  0.00  0.00    +0.000 C 
ATOM     22  O   UNL     1      45.326   3.106   7.229  0.00  0.00    +0.000 OA
ENDBRANCH  15  22
ENDBRANCH  13  18
ENDBRANCH   1  13
TORSDOF 5
ENDMDL
MODEL 9
REMARK VINA RESULT:    -5.523      3.988      5.500
REMARK INTER + INTRA:          -7.897
REMARK INTER:                  -7.298
REMARK INTRA:                  -0.599
REMARK UNBOUND:                -0.760
REMARK  Name = 
REMARK  7 active torsions:
REMARK  status: ('A' for Active; 'I' for Inactive)
REMARK    1  A    between atoms: C_1  and  O_2
REMARK    2  A    between atoms: O_2  and  C_3
REMARK    3  A    between atoms: C_6  and  C_7
REMARK    4  A    between atoms: C_7  and  C_8
REMARK    5  A    between atoms: C_7  and  N_9
REMARK    6  A    between atoms: N_9  and  C_10
REMARK    7  A    between atoms: C_13  and  C_14
REMARK                            x       y       z     vdW  Elec       q    Type
REMARK                         _______ _______ _______ _____ _____    ______ ____
ROOT
ATOM      1  N   UNL     1      47.292   6.413  14.353  0.00  0.00    +0.000 N 
ATOM      2  H   UNL     1      47.459   5.808  15.159  0.00  0.00    +0.000 HD
ENDROOT
BRANCH   1   3
ATOM      3  C   UNL     1      46.677   5.727  13.307  0.00  0.00    +0.000 A 
ATOM      4  C   UNL     1      46.324   6.306  12.087  0.00  0.00    +0.000 A 
ATOM      5  C   UNL     1      45.588   5.598  11.124  0.00  0.00    +0.000 A 
ATOM      6  C   UNL     1      45.157   4.291  11.374  0.00  0.00    +0.000 A 
ATOM      7  C   UNL     1      45.506   3.699  12.593  0.00  0.00    +0.000 A 
ATOM      8  C   UNL     1      46.249   4.410  13.542  0.00  0.00    +0.000 A 
BRANCH   6   9
ATOM      9  C   UNL     1      44.308   3.549  10.373  0.00  0.00    +0.000 C 
ATOM     10  F   UNL     1      44.994   2.599   9.676  0.00  0.00    +0.000 F 
ATOM     11  F   UNL     1      43.257   2.903  10.949  0.00  0.00    +0.000 F 
ATOM     12  F   UNL     1      43.769   4.377   9.435  0.00  0.00    +0.000 F 
ENDBRANCH   6   9
ENDBRANCH   1   3
BRANCH   1  13
ATOM     13  C   UNL     1      48.395   7.360  14.149  0.00  0.00    +0.000 C 
ATOM     14  C   UNL     1      47.883   8.771  14.442  0.00  0.00    +0.000 C 
BRANCH  13  18
ATOM     15  C   UNL     1      51.675   6.278  16.588  0.00  0.00    +0.000 A 
ATOM     16  C   UNL     1      51.848   7.343  15.728  0.00  0.00    +0.000 A 
ATOM     17  C   UNL     1      50.775   7.731  14.935  0.00  0.00    +0.000 A 
ATOM     18  C   UNL     1      49.579   7.028  15.040  0.00  0.00    +0.000 A 
ATOM     19  N   UNL     1      49.442   6.003  15.916  0.00  0.00    +0.000 NA
ATOM     20  N   UNL     1      50.498   5.629  16.700  0.00  0.00    +0.000 NA
BRANCH  15  22
ATOM     21  C   UNL     1      53.980   5.895  16.562  0.00  0.00    +0.000 C 
ATOM     22  O   UNL     1      52.775   5.880  17.320  0.00  0.00    +0.000 OA
ENDBRANCH  15  22
ENDBRANCH  13  18
ENDBRANCH   1  13
TORSDOF 5
ENDMDL
