MODEL 1
REMARK VINA RESULT:    -8.508      0.000      0.000
REMARK INTER + INTRA:         -11.354
REMARK INTER:                 -10.994
REMARK INTRA:                  -0.359
REMARK UNBOUND:                -0.359
REMARK  Name = 
REMARK  7 active torsions:
REMARK  status: ('A' for Active; 'I' for Inactive)
REMARK    1  A    between atoms: C_1  and  C_2
REMARK    2  A    between atoms: C_5  and  C_6
REMARK    3  A    between atoms: C_9  and  C_10
REMARK    4  A    between atoms: C_11  and  C_12
REMARK    5  A    between atoms: C_12  and  N_13
REMARK    6  A    between atoms: N_13  and  C_14
REMARK    7  A    between atoms: C_17  and  C_18
REMARK                            x       y       z     vdW  Elec       q    Type
REMARK                         _______ _______ _______ _____ _____    ______ ____
ROOT
ATOM      1  C   UNL     1      44.435   7.979  11.138  0.00  0.00    +0.000 C 
ATOM      2  C   UNL     1      45.043   6.924  12.019  0.00  0.00    +0.000 A 
ATOM      3  C   UNL     1      46.081   7.291  12.870  0.00  0.00    +0.000 A 
ATOM      4  N   UNL     1      46.727   6.447  13.691  0.00  0.00    +0.000 NA
ATOM      5  C   UNL     1      46.358   5.132  13.656  0.00  0.00    +0.000 A 
ATOM      6  C   UNL     1      45.347   4.633  12.814  0.00  0.00    +0.000 A 
ATOM      7  C   UNL     1      44.984   3.172  12.763  0.00  0.00    +0.000 C 
ATOM      8  C   UNL     1      44.629   5.572  12.019  0.00  0.00    +0.000 A 
ENDROOT
BRANCH   5   9
ATOM      9  C   UNL     1      47.135   4.292  14.652  0.00  0.00    +0.000 C 
ATOM     10  N   UNL     1      47.404   4.914  15.846  0.00  0.00    +0.000 N 
ATOM     11  O   UNL     1      47.497   3.137  14.471  0.00  0.00    +0.000 OA
ATOM     12  H   UNL     1      47.002   5.827  16.022  0.00  0.00    +0.000 HD
ATOM     13  H   UNL     1      47.859   4.398  16.583  0.00  0.00    +0.000 HD
ENDBRANCH   5   9
BRANCH   8  14
ATOM     14  C   UNL     1      43.402   5.151  11.213  0.00  0.00    +0.000 C 
BRANCH  14  15
ATOM     15  N   UNL     1      43.710   5.072   9.789  0.00  0.00    +0.000 N 
ATOM     16  H   UNL     1      43.928   5.990   9.406  0.00  0.00    +0.000 HD
BRANCH  15  17
ATOM     17  C   UNL     1      44.588   4.093   9.309  0.00  0.00    +0.000 A 
ATOM     18  C   UNL     1      44.414   2.726   9.524  0.00  0.00    +0.000 A 
ATOM     19  C   UNL     1      45.230   1.786   8.885  0.00  0.00    +0.000 A 
ATOM     20  C   UNL     1      46.221   2.216   8.005  0.00  0.00    +0.000 A 
ATOM     21  N   UNL     1      46.424   3.542   7.774  0.00  0.00    +0.000 NA
ATOM     22  C   UNL     1      45.605   4.424   8.407  0.00  0.00    +0.000 A 
BRANCH  20  23
ATOM     23  C   UNL     1      47.061   1.188   7.254  0.00  0.00    +0.000 C 
ATOM     24  F   UNL     1      46.931  -0.080   7.756  0.00  0.00    +0.000 F 
ATOM     25  F   UNL     1      46.727   1.082   5.935  0.00  0.00    +0.000 F 
ATOM     26  F   UNL     1      48.397   1.452   7.288  0.00  0.00    +0.000 F 
ENDBRANCH  20  23
ENDBRANCH  15  17
ENDBRANCH  14  15
ENDBRANCH   8  14
TORSDOF 5
ENDMDL
MODEL 2
REMARK VINA RESULT:    -8.090      1.374      2.646
REMARK INTER + INTRA:         -10.815
REMARK INTER:                 -10.095
REMARK INTRA:                  -0.719
REMARK UNBOUND:                -0.359
REMARK  Name = 
REMARK  7 active torsions:
REMARK  status: ('A' for Active; 'I' for Inactive)
REMARK    1  A    between atoms: C_1  and  C_2
REMARK    2  A    between atoms: C_5  and  C_6
REMARK    3  A    between atoms: C_9  and  C_10
REMARK    4  A    between atoms: C_11  and  C_12
REMARK    5  A    between atoms: C_12  and  N_13
REMARK    6  A    between atoms: N_13  and  C_14
REMARK    7  A    between atoms: C_17  and  C_18
REMARK                            x       y       z     vdW  Elec       q    Type
REMARK                         _______ _______ _______ _____ _____    ______ ____
ROOT
ATOM      1  C   UNL     1      44.447   2.943  12.881  0.00  0.00    +0.000 C 
ATOM      2  C   UNL     1      45.036   4.324  12.800  0.00  0.00    +0.000 A 
ATOM      3  C   UNL     1      46.196   4.591  13.520  0.00  0.00    +0.000 A 
ATOM      4  N   UNL     1      46.812   5.785  13.555  0.00  0.00    +0.000 NA
ATOM      5  C   UNL     1      46.234   6.810  12.862  0.00  0.00    +0.000 A 
ATOM      6  C   UNL     1      45.043   6.672  12.124  0.00  0.00    +0.000 A 
ATOM      7  C   UNL     1      44.402   7.827  11.400  0.00  0.00    +0.000 C 
ATOM      8  C   UNL     1      44.464   5.373  12.044  0.00  0.00    +0.000 A 
ENDROOT
BRANCH   5   9
ATOM      9  C   UNL     1      47.043   8.090  12.951  0.00  0.00    +0.000 C 
ATOM     10  N   UNL     1      46.681   8.933  13.971  0.00  0.00    +0.000 N 
ATOM     11  O   UNL     1      47.975   8.389  12.215  0.00  0.00    +0.000 OA
ATOM     12  H   UNL     1      45.983   8.622  14.638  0.00  0.00    +0.000 HD
ATOM     13  H   UNL     1      47.214   9.772  14.136  0.00  0.00    +0.000 HD
ENDBRANCH   5   9
BRANCH   8  14
ATOM     14  C   UNL     1      43.279   5.091  11.124  0.00  0.00    +0.000 C 
BRANCH  14  15
ATOM     15  N   UNL     1      43.692   5.077   9.724  0.00  0.00    +0.000 N 
ATOM     16  H   UNL     1      43.972   6.004   9.410  0.00  0.00    +0.000 HD
BRANCH  15  17
ATOM     17  C   UNL     1      44.570   4.091   9.257  0.00  0.00    +0.000 A 
ATOM     18  C   UNL     1      44.389   2.726   9.480  0.00  0.00    +0.000 A 
ATOM     19  C   UNL     1      45.205   1.778   8.854  0.00  0.00    +0.000 A 
ATOM     20  C   UNL     1      46.204   2.197   7.977  0.00  0.00    +0.000 A 
ATOM     21  N   UNL     1      46.414   3.522   7.738  0.00  0.00    +0.000 NA
ATOM     22  C   UNL     1      45.594   4.411   8.360  0.00  0.00    +0.000 A 
BRANCH  20  23
ATOM     23  C   UNL     1      47.044   1.161   7.239  0.00  0.00    +0.000 C 
ATOM     24  F   UNL     1      46.753   1.089   5.902  0.00  0.00    +0.000 F 
ATOM     25  F   UNL     1      48.383   1.415   7.297  0.00  0.00    +0.000 F 
ATOM     26  F   UNL     1      46.877  -0.107   7.710  0.00  0.00    +0.000 F 
ENDBRANCH  20  23
ENDBRANCH  15  17
ENDBRANCH  14  15
ENDBRANCH   8  14
TORSDOF 5
ENDMDL
MODEL 3
REMARK VINA RESULT:    -8.034      2.140      3.230
REMARK INTER + INTRA:         -10.741
REMARK INTER:                 -10.223
REMARK INTRA:                  -0.519
REMARK UNBOUND:                -0.359
REMARK  Name = 
REMARK  7 active torsions:
REMARK  status: ('A' for Active; 'I' for Inactive)
REMARK    1  A    between atoms: C_1  and  C_2
REMARK    2  A    between atoms: C_5  and  C_6
REMARK    3  A    between atoms: C_9  and  C_10
REMARK    4  A    between atoms: C_11  and  C_12
REMARK    5  A    between atoms: C_12  and  N_13
REMARK    6  A    between atoms: N_13  and  C_14
REMARK    7  A    between atoms: C_17  and  C_18
REMARK                            x       y       z     vdW  Elec       q    Type
REMARK                         _______ _______ _______ _____ _____    ______ ____
ROOT
ATOM      1  C   UNL     1      46.483   3.438  13.263  0.00  0.00    +0.000 C 
ATOM      2  C   UNL     1      45.919   4.762  12.831  0.00  0.00    +0.000 A 
ATOM      3  C   UNL     1      46.708   5.898  12.983  0.00  0.00    +0.000 A 
ATOM      4  N   UNL     1      46.320   7.143  12.659  0.00  0.00    +0.000 NA
ATOM      5  C   UNL     1      45.049   7.301  12.183  0.00  0.00    +0.000 A 
ATOM      6  C   UNL     1      44.146   6.234  12.017  0.00  0.00    +0.000 A 
ATOM      7  C   UNL     1      42.736   6.437  11.527  0.00  0.00    +0.000 C 
ATOM      8  C   UNL     1      44.621   4.920  12.292  0.00  0.00    +0.000 A 
ENDROOT
BRANCH   5   9
ATOM      9  C   UNL     1      44.748   8.743  11.822  0.00  0.00    +0.000 C 
ATOM     10  N   UNL     1      44.873   9.635  12.857  0.00  0.00    +0.000 N 
ATOM     11  O   UNL     1      44.439   9.142  10.707  0.00  0.00    +0.000 OA
ATOM     12  H   UNL     1      45.237   9.307  13.745  0.00  0.00    +0.000 HD
ATOM     13  H   UNL     1      44.753  10.621  12.681  0.00  0.00    +0.000 HD
ENDBRANCH   5   9
BRANCH   8  14
ATOM     14  C   UNL     1      43.775   3.690  11.970  0.00  0.00    +0.000 C 
BRANCH  14  15
ATOM     15  N   UNL     1      43.497   3.604  10.540  0.00  0.00    +0.000 N 
ATOM     16  H   UNL     1      42.940   4.395  10.221  0.00  0.00    +0.000 HD
BRANCH  15  17
ATOM     17  C   UNL     1      44.524   3.302   9.637  0.00  0.00    +0.000 A 
ATOM     18  C   UNL     1      44.990   2.010   9.400  0.00  0.00    +0.000 A 
ATOM     19  C   UNL     1      45.902   1.750   8.372  0.00  0.00    +0.000 A 
ATOM     20  C   UNL     1      46.342   2.791   7.557  0.00  0.00    +0.000 A 
ATOM     21  N   UNL     1      45.913   4.068   7.762  0.00  0.00    +0.000 NA
ATOM     22  C   UNL     1      45.020   4.278   8.766  0.00  0.00    +0.000 A 
BRANCH  20  23
ATOM     23  C   UNL     1      47.279   2.494   6.391  0.00  0.00    +0.000 C 
ATOM     24  F   UNL     1      46.943   3.171   5.249  0.00  0.00    +0.000 F 
ATOM     25  F   UNL     1      48.574   2.842   6.642  0.00  0.00    +0.000 F 
ATOM     26  F   UNL     1      47.300   1.179   6.035  0.00  0.00    +0.000 F 
ENDBRANCH  20  23
ENDBRANCH  15  17
ENDBRANCH  14  15
ENDBRANCH   8  14
TORSDOF 5
ENDMDL
MODEL 4
REMARK VINA RESULT:    -6.504      3.121      4.588
REMARK INTER + INTRA:          -8.764
REMARK INTER:                  -8.275
REMARK INTRA:                  -0.490
REMARK UNBOUND:                -0.359
REMARK  Name = 
REMARK  7 active torsions:
REMARK  status: ('A' for Active; 'I' for Inactive)
REMARK    1  A    between atoms: C_1  and  C_2
REMARK    2  A    between atoms: C_5  and  C_6
REMARK    3  A    between atoms: C_9  and  C_10
REMARK    4  A    between atoms: C_11  and  C_12
REMARK    5  A    between atoms: C_12  and  N_13
REMARK    6  A    between atoms: N_13  and  C_14
REMARK    7  A    between atoms: C_17  and  C_18
REMARK                            x       y       z     vdW  Elec       q    Type
REMARK                         _______ _______ _______ _____ _____    ______ ____
ROOT
ATOM      1  C   UNL     1      48.672   6.887  14.182  0.00  0.00    +0.000 C 
ATOM      2  C   UNL     1      48.459   6.332  15.563  0.00  0.00    +0.000 A 
ATOM      3  C   UNL     1      48.904   7.078  16.650  0.00  0.00    +0.000 A 
ATOM      4  N   UNL     1      48.798   6.691  17.932  0.00  0.00    +0.000 NA
ATOM      5  C   UNL     1      48.247   5.464  18.175  0.00  0.00    +0.000 A 
ATOM      6  C   UNL     1      47.792   4.605  17.157  0.00  0.00    +0.000 A 
ATOM      7  C   UNL     1      47.225   3.239  17.445  0.00  0.00    +0.000 C 
ATOM      8  C   UNL     1      47.845   5.084  15.817  0.00  0.00    +0.000 A 
ENDROOT
BRANCH   5   9
ATOM      9  C   UNL     1      48.152   5.162  19.658  0.00  0.00    +0.000 C 
ATOM     10  N   UNL     1      47.034   5.662  20.278  0.00  0.00    +0.000 N 
ATOM     11  O   UNL     1      48.963   4.506  20.299  0.00  0.00    +0.000 OA
ATOM     12  H   UNL     1      46.319   6.106  19.713  0.00  0.00    +0.000 HD
ATOM     13  H   UNL     1      46.866   5.447  21.249  0.00  0.00    +0.000 HD
ENDBRANCH   5   9
BRANCH   8  14
ATOM     14  C   UNL     1      47.211   4.299  14.671  0.00  0.00    +0.000 C 
BRANCH  14  15
ATOM     15  N   UNL     1      46.042   4.995  14.142  0.00  0.00    +0.000 N 
ATOM     16  H   UNL     1      46.058   5.984  14.383  0.00  0.00    +0.000 HD
BRANCH  15  17
ATOM     17  C   UNL     1      45.642   4.796  12.815  0.00  0.00    +0.000 A 
ATOM     18  C   UNL     1      45.849   5.728  11.798  0.00  0.00    +0.000 A 
ATOM     19  C   UNL     1      45.577   5.411  10.463  0.00  0.00    +0.000 A 
ATOM     20  C   UNL     1      45.109   4.139  10.136  0.00  0.00    +0.000 A 
ATOM     21  N   UNL     1      44.889   3.205  11.102  0.00  0.00    +0.000 NA
ATOM     22  C   UNL     1      45.174   3.550  12.387  0.00  0.00    +0.000 A 
BRANCH  20  23
ATOM     23  C   UNL     1      44.882   3.771   8.673  0.00  0.00    +0.000 C 
ATOM     24  F   UNL     1      44.708   2.426   8.481  0.00  0.00    +0.000 F 
ATOM     25  F   UNL     1      43.770   4.353   8.140  0.00  0.00    +0.000 F 
ATOM     26  F   UNL     1      45.919   4.118   7.861  0.00  0.00    +0.000 F 
ENDBRANCH  20  23
ENDBRANCH  15  17
ENDBRANCH  14  15
ENDBRANCH   8  14
TORSDOF 5
ENDMDL
MODEL 5
REMARK VINA RESULT:    -6.296      5.074      7.722
REMARK INTER + INTRA:          -8.496
REMARK INTER:                  -7.763
REMARK INTRA:                  -0.733
REMARK UNBOUND:                -0.359
REMARK  Name = 
REMARK  7 active torsions:
REMARK  status: ('A' for Active; 'I' for Inactive)
REMARK    1  A    between atoms: C_1  and  C_2
REMARK    2  A    between atoms: C_5  and  C_6
REMARK    3  A    between atoms: C_9  and  C_10
REMARK    4  A    between atoms: C_11  and  C_12
REMARK    5  A    between atoms: C_12  and  N_13
REMARK    6  A    between atoms: N_13  and  C_14
REMARK    7  A    between atoms: C_17  and  C_18
REMARK                            x       y       z     vdW  Elec       q    Type
REMARK                         _______ _______ _______ _____ _____    ______ ____
ROOT
ATOM      1  C   UNL     1      46.088   8.718  12.418  0.00  0.00    +0.000 C 
ATOM      2  C   UNL     1      45.758   7.253  12.381  0.00  0.00    +0.000 A 
ATOM      3  C   UNL     1      44.571   6.858  11.772  0.00  0.00    +0.000 A 
ATOM      4  N   UNL     1      44.145   5.586  11.690  0.00  0.00    +0.000 NA
ATOM      5  C   UNL     1      44.917   4.625  12.278  0.00  0.00    +0.000 A 
ATOM      6  C   UNL     1      46.121   4.904  12.952  0.00  0.00    +0.000 A 
ATOM      7  C   UNL     1      46.936   3.834  13.628  0.00  0.00    +0.000 C 
ATOM      8  C   UNL     1      46.582   6.252  12.947  0.00  0.00    +0.000 A 
ENDROOT
BRANCH   5   9
ATOM      9  C   UNL     1      44.347   3.233  12.083  0.00  0.00    +0.000 C 
ATOM     10  N   UNL     1      44.697   2.625  10.904  0.00  0.00    +0.000 N 
ATOM     11  O   UNL     1      43.646   2.638  12.892  0.00  0.00    +0.000 OA
ATOM     12  H   UNL     1      45.367   3.085  10.297  0.00  0.00    +0.000 HD
ATOM     13  H   UNL     1      44.412   1.674  10.731  0.00  0.00    +0.000 HD
ENDBRANCH   5   9
BRANCH   8  14
ATOM     14  C   UNL     1      47.959   6.618  13.495  0.00  0.00    +0.000 C 
BRANCH  14  15
ATOM     15  N   UNL     1      47.886   6.962  14.911  0.00  0.00    +0.000 N 
ATOM     16  H   UNL     1      46.923   6.978  15.241  0.00  0.00    +0.000 HD
BRANCH  15  17
ATOM     17  C   UNL     1      48.734   6.338  15.835  0.00  0.00    +0.000 A 
ATOM     18  C   UNL     1      48.346   5.266  16.638  0.00  0.00    +0.000 A 
ATOM     19  C   UNL     1      49.278   4.579  17.422  0.00  0.00    +0.000 A 
ATOM     20  C   UNL     1      50.619   4.955  17.392  0.00  0.00    +0.000 A 
ATOM     21  N   UNL     1      51.034   6.002  16.625  0.00  0.00    +0.000 NA
ATOM     22  C   UNL     1      50.099   6.638  15.870  0.00  0.00    +0.000 A 
BRANCH  20  23
ATOM     23  C   UNL     1      51.646   4.160  18.191  0.00  0.00    +0.000 C 
ATOM     24  F   UNL     1      52.937   4.530  17.923  0.00  0.00    +0.000 F 
ATOM     25  F   UNL     1      51.508   4.307  19.540  0.00  0.00    +0.000 F 
ATOM     26  F   UNL     1      51.600   2.819  17.948  0.00  0.00    +0.000 F 
ENDBRANCH  20  23
ENDBRANCH  15  17
ENDBRANCH  14  15
ENDBRANCH   8  14
TORSDOF 5
ENDMDL
MODEL 6
REMARK VINA RESULT:    -6.063      3.602      5.259
REMARK INTER + INTRA:          -8.194
REMARK INTER:                  -7.556
REMARK INTRA:                  -0.638
REMARK UNBOUND:                -0.359
REMARK  Name = 
REMARK  7 active torsions:
REMARK  status: ('A' for Active; 'I' for Inactive)
REMARK    1  A    between atoms: C_1  and  C_2
REMARK    2  A    between atoms: C_5  and  C_6
REMARK    3  A    between atoms: C_9  and  C_10
REMARK    4  A    between atoms: C_11  and  C_12
REMARK    5  A    between atoms: C_12  and  N_13
REMARK    6  A    between atoms: N_13  and  C_14
REMARK    7  A    between atoms: C_17  and  C_18
REMARK                            x       y       z     vdW  Elec       q    Type
REMARK                         _______ _______ _______ _____ _____    ______ ____
ROOT
ATOM      1  C   UNL     1      49.620   9.022  15.155  0.00  0.00    +0.000 C 
ATOM      2  C   UNL     1      49.233   7.993  16.181  0.00  0.00    +0.000 A 
ATOM      3  C   UNL     1      49.393   8.310  17.527  0.00  0.00    +0.000 A 
ATOM      4  N   UNL     1      49.109   7.478  18.543  0.00  0.00    +0.000 NA
ATOM      5  C   UNL     1      48.667   6.225  18.224  0.00  0.00    +0.000 A 
ATOM      6  C   UNL     1      48.497   5.777  16.901  0.00  0.00    +0.000 A 
ATOM      7  C   UNL     1      48.047   4.378  16.572  0.00  0.00    +0.000 C 
ATOM      8  C   UNL     1      48.729   6.713  15.853  0.00  0.00    +0.000 A 
ENDROOT
BRANCH   5   9
ATOM      9  C   UNL     1      48.348   5.399  19.456  0.00  0.00    +0.000 C 
ATOM     10  N   UNL     1      47.088   5.586  19.966  0.00  0.00    +0.000 N 
ATOM     11  O   UNL     1      49.105   4.593  19.981  0.00  0.00    +0.000 OA
ATOM     12  H   UNL     1      46.436   6.172  19.456  0.00  0.00    +0.000 HD
ATOM     13  H   UNL     1      46.778   5.025  20.744  0.00  0.00    +0.000 HD
ENDBRANCH   5   9
BRANCH   8  14
ATOM     14  C   UNL     1      48.398   6.374  14.401  0.00  0.00    +0.000 C 
BRANCH  14  15
ATOM     15  N   UNL     1      47.018   6.724  14.082  0.00  0.00    +0.000 N 
ATOM     16  H   UNL     1      46.928   7.714  13.862  0.00  0.00    +0.000 HD
BRANCH  15  17
ATOM     17  C   UNL     1      46.275   5.932  13.197  0.00  0.00    +0.000 A 
ATOM     18  C   UNL     1      45.955   6.319  11.896  0.00  0.00    +0.000 A 
ATOM     19  C   UNL     1      45.352   5.424  11.006  0.00  0.00    +0.000 A 
ATOM     20  C   UNL     1      45.081   4.120  11.414  0.00  0.00    +0.000 A 
ATOM     21  N   UNL     1      45.374   3.707  12.678  0.00  0.00    +0.000 NA
ATOM     22  C   UNL     1      45.968   4.604  13.511  0.00  0.00    +0.000 A 
BRANCH  20  23
ATOM     23  C   UNL     1      44.491   3.125  10.420  0.00  0.00    +0.000 C 
ATOM     24  F   UNL     1      43.940   3.729   9.321  0.00  0.00    +0.000 F 
ATOM     25  F   UNL     1      45.414   2.253   9.921  0.00  0.00    +0.000 F 
ATOM     26  F   UNL     1      43.493   2.361  10.947  0.00  0.00    +0.000 F 
ENDBRANCH  20  23
ENDBRANCH  15  17
ENDBRANCH  14  15
ENDBRANCH   8  14
TORSDOF 5
ENDMDL
MODEL 7
REMARK VINA RESULT:    -5.910      5.449      8.128
REMARK INTER + INTRA:          -7.997
REMARK INTER:                  -7.558
REMARK INTRA:                  -0.439
REMARK UNBOUND:                -0.359
REMARK  Name = 
REMARK  7 active torsions:
REMARK  status: ('A' for Active; 'I' for Inactive)
REMARK    1  A    between atoms: C_1  and  C_2
REMARK    2  A    between atoms: C_5  and  C_6
REMARK    3  A    between atoms: C_9  and  C_10
REMARK    4  A    between atoms: C_11  and  C_12
REMARK    5  A    between atoms: C_12  and  N_13
REMARK    6  A    between atoms: N_13  and  C_14
REMARK    7  A    between atoms: C_17  and  C_18
REMARK                            x       y       z     vdW  Elec       q    Type
REMARK                         _______ _______ _______ _____ _____    ______ ____
ROOT
ATOM      1  C   UNL     1      46.756   7.249  12.820  0.00  0.00    +0.000 C 
ATOM      2  C   UNL     1      46.147   6.156  11.987  0.00  0.00    +0.000 A 
ATOM      3  C   UNL     1      46.222   6.261  10.602  0.00  0.00    +0.000 A 
ATOM      4  N   UNL     1      45.701   5.369   9.742  0.00  0.00    +0.000 NA
ATOM      5  C   UNL     1      45.022   4.309  10.272  0.00  0.00    +0.000 A 
ATOM      6  C   UNL     1      44.849   4.112  11.655  0.00  0.00    +0.000 A 
ATOM      7  C   UNL     1      44.062   2.957  12.215  0.00  0.00    +0.000 C 
ATOM      8  C   UNL     1      45.486   5.033  12.536  0.00  0.00    +0.000 A 
ENDROOT
BRANCH   5   9
ATOM      9  C   UNL     1      44.516   3.360   9.201  0.00  0.00    +0.000 C 
ATOM     10  N   UNL     1      44.097   3.966   8.044  0.00  0.00    +0.000 N 
ATOM     11  O   UNL     1      44.487   2.140   9.297  0.00  0.00    +0.000 OA
ATOM     12  H   UNL     1      44.231   4.965   7.939  0.00  0.00    +0.000 HD
ATOM     13  H   UNL     1      43.809   3.398   7.262  0.00  0.00    +0.000 HD
ENDBRANCH   5   9
BRANCH   8  14
ATOM     14  C   UNL     1      45.505   4.799  14.045  0.00  0.00    +0.000 C 
BRANCH  14  15
ATOM     15  N   UNL     1      46.701   4.066  14.447  0.00  0.00    +0.000 N 
ATOM     16  H   UNL     1      47.354   3.966  13.672  0.00  0.00    +0.000 HD
BRANCH  15  17
ATOM     17  C   UNL     1      47.363   4.391  15.637  0.00  0.00    +0.000 A 
ATOM     18  C   UNL     1      48.146   5.534  15.798  0.00  0.00    +0.000 A 
ATOM     19  C   UNL     1      48.650   5.892  17.053  0.00  0.00    +0.000 A 
ATOM     20  C   UNL     1      48.352   5.109  18.166  0.00  0.00    +0.000 A 
ATOM     21  N   UNL     1      47.595   3.984  18.047  0.00  0.00    +0.000 NA
ATOM     22  C   UNL     1      47.117   3.674  16.812  0.00  0.00    +0.000 A 
BRANCH  20  23
ATOM     23  C   UNL     1      48.840   5.541  19.545  0.00  0.00    +0.000 C 
ATOM     24  F   UNL     1      49.529   6.725  19.523  0.00  0.00    +0.000 F 
ATOM     25  F   UNL     1      47.827   5.737  20.437  0.00  0.00    +0.000 F 
ATOM     26  F   UNL     1      49.688   4.644  20.124  0.00  0.00    +0.000 F 
ENDBRANCH  20  23
ENDBRANCH  15  17
ENDBRANCH  14  15
ENDBRANCH   8  14
TORSDOF 5
ENDMDL
MODEL 8
REMARK VINA RESULT:    -5.843      4.369      5.964
REMARK INTER + INTRA:          -7.910
REMARK INTER:                  -7.131
REMARK INTRA:                  -0.780
REMARK UNBOUND:                -0.359
REMARK  Name = 
REMARK  7 active torsions:
REMARK  status: ('A' for Active; 'I' for Inactive)
REMARK    1  A    between atoms: C_1  and  C_2
REMARK    2  A    between atoms: C_5  and  C_6
REMARK    3  A    between atoms: C_9  and  C_10
REMARK    4  A    between atoms: C_11  and  C_12
REMARK    5  A    between atoms: C_12  and  N_13
REMARK    6  A    between atoms: N_13  and  C_14
REMARK    7  A    between atoms: C_17  and  C_18
REMARK                            x       y       z     vdW  Elec       q    Type
REMARK                         _______ _______ _______ _____ _____    ______ ____
ROOT
ATOM      1  C   UNL     1      49.743   8.271  16.420  0.00  0.00    +0.000 C 
ATOM      2  C   UNL     1      50.190   8.229  14.986  0.00  0.00    +0.000 A 
ATOM      3  C   UNL     1      51.540   8.416  14.708  0.00  0.00    +0.000 A 
ATOM      4  N   UNL     1      52.069   8.425  13.473  0.00  0.00    +0.000 NA
ATOM      5  C   UNL     1      51.211   8.276  12.421  0.00  0.00    +0.000 A 
ATOM      6  C   UNL     1      49.821   8.114  12.573  0.00  0.00    +0.000 A 
ATOM      7  C   UNL     1      48.887   7.992  11.397  0.00  0.00    +0.000 C 
ATOM      8  C   UNL     1      49.308   8.026  13.898  0.00  0.00    +0.000 A 
ENDROOT
BRANCH   5   9
ATOM      9  C   UNL     1      51.934   8.267  11.088  0.00  0.00    +0.000 C 
ATOM     10  N   UNL     1      52.391   7.037  10.687  0.00  0.00    +0.000 N 
ATOM     11  O   UNL     1      52.103   9.245  10.369  0.00  0.00    +0.000 OA
ATOM     12  H   UNL     1      52.147   6.222  11.237  0.00  0.00    +0.000 HD
ATOM     13  H   UNL     1      52.824   6.938   9.782  0.00  0.00    +0.000 HD
ENDBRANCH   5   9
BRANCH   8  14
ATOM     14  C   UNL     1      47.846   7.672  14.159  0.00  0.00    +0.000 C 
BRANCH  14  15
ATOM     15  N   UNL     1      47.670   6.230  14.290  0.00  0.00    +0.000 N 
ATOM     16  H   UNL     1      47.617   5.949  15.267  0.00  0.00    +0.000 HD
BRANCH  15  17
ATOM     17  C   UNL     1      46.719   5.560  13.511  0.00  0.00    +0.000 A 
ATOM     18  C   UNL     1      46.047   6.145  12.438  0.00  0.00    +0.000 A 
ATOM     19  C   UNL     1      45.230   5.383  11.597  0.00  0.00    +0.000 A 
ATOM     20  C   UNL     1      45.095   4.014  11.819  0.00  0.00    +0.000 A 
ATOM     21  N   UNL     1      45.730   3.408  12.860  0.00  0.00    +0.000 NA
ATOM     22  C   UNL     1      46.522   4.182  13.650  0.00  0.00    +0.000 A 
BRANCH  20  23
ATOM     23  C   UNL     1      44.262   3.171  10.858  0.00  0.00    +0.000 C 
ATOM     24  F   UNL     1      43.499   3.927  10.007  0.00  0.00    +0.000 F 
ATOM     25  F   UNL     1      45.018   2.378  10.046  0.00  0.00    +0.000 F 
ATOM     26  F   UNL     1      43.383   2.342  11.488  0.00  0.00    +0.000 F 
ENDBRANCH  20  23
ENDBRANCH  15  17
ENDBRANCH  14  15
ENDBRANCH   8  14
TORSDOF 5
ENDMDL
MODEL 9
REMARK VINA RESULT:    -5.697      4.406      6.262
REMARK INTER + INTRA:          -7.722
REMARK INTER:                  -7.154
REMARK INTRA:                  -0.568
REMARK UNBOUND:                -0.359
REMARK  Name = 
REMARK  7 active torsions:
REMARK  status: ('A' for Active; 'I' for Inactive)
REMARK    1  A    between atoms: C_1  and  C_2
REMARK    2  A    between atoms: C_5  and  C_6
REMARK    3  A    between atoms: C_9  and  C_10
REMARK    4  A    between atoms: C_11  and  C_12
REMARK    5  A    between atoms: C_12  and  N_13
REMARK    6  A    between atoms: N_13  and  C_14
REMARK    7  A    between atoms: C_17  and  C_18
REMARK                            x       y       z     vdW  Elec       q    Type
REMARK                         _______ _______ _______ _____ _____    ______ ____
ROOT
ATOM      1  C   UNL     1      47.967   5.085  16.977  0.00  0.00    +0.000 C 
ATOM      2  C   UNL     1      49.287   5.703  16.610  0.00  0.00    +0.000 A 
ATOM      3  C   UNL     1      50.424   5.291  17.298  0.00  0.00    +0.000 A 
ATOM      4  N   UNL     1      51.659   5.776  17.088  0.00  0.00    +0.000 NA
ATOM      5  C   UNL     1      51.794   6.767  16.157  0.00  0.00    +0.000 A 
ATOM      6  C   UNL     1      50.715   7.291  15.421  0.00  0.00    +0.000 A 
ATOM      7  C   UNL     1      50.880   8.412  14.429  0.00  0.00    +0.000 C 
ATOM      8  C   UNL     1      49.435   6.695  15.612  0.00  0.00    +0.000 A 
ENDROOT
BRANCH   5   9
ATOM      9  C   UNL     1      53.238   7.202  15.988  0.00  0.00    +0.000 C 
ATOM     10  N   UNL     1      53.864   6.702  14.874  0.00  0.00    +0.000 N 
ATOM     11  O   UNL     1      53.840   7.958  16.739  0.00  0.00    +0.000 OA
ATOM     12  H   UNL     1      53.320   6.169  14.205  0.00  0.00    +0.000 HD
ATOM     13  H   UNL     1      54.803   6.997  14.657  0.00  0.00    +0.000 HD
ENDBRANCH   5   9
BRANCH   8  14
ATOM     14  C   UNL     1      48.247   7.073  14.732  0.00  0.00    +0.000 C 
BRANCH  14  15
ATOM     15  N   UNL     1      48.227   6.280  13.507  0.00  0.00    +0.000 N 
ATOM     16  H   UNL     1      49.033   5.658  13.455  0.00  0.00    +0.000 HD
BRANCH  15  17
ATOM     17  C   UNL     1      47.053   5.633  13.102  0.00  0.00    +0.000 A 
ATOM     18  C   UNL     1      46.267   6.058  12.032  0.00  0.00    +0.000 A 
ATOM     19  C   UNL     1      45.197   5.283  11.571  0.00  0.00    +0.000 A 
ATOM     20  C   UNL     1      44.920   4.058  12.175  0.00  0.00    +0.000 A 
ATOM     21  N   UNL     1      45.662   3.613  13.227  0.00  0.00    +0.000 NA
ATOM     22  C   UNL     1      46.698   4.391  13.639  0.00  0.00    +0.000 A 
BRANCH  20  23
ATOM     23  C   UNL     1      43.800   3.181  11.625  0.00  0.00    +0.000 C 
ATOM     24  F   UNL     1      42.667   3.888  11.320  0.00  0.00    +0.000 F 
ATOM     25  F   UNL     1      44.139   2.539  10.470  0.00  0.00    +0.000 F 
ATOM     26  F   UNL     1      43.394   2.213  12.494  0.00  0.00    +0.000 F 
ENDBRANCH  20  23
ENDBRANCH  15  17
ENDBRANCH  14  15
ENDBRANCH   8  14
TORSDOF 5
ENDMDL
