MODEL 1
REMARK VINA RESULT:    -8.156      0.000      0.000
REMARK INTER + INTRA:         -11.297
REMARK INTER:                 -10.540
REMARK INTRA:                  -0.756
REMARK UNBOUND:                -0.756
REMARK  Name = 
REMARK  5 active torsions:
REMARK  status: ('A' for Active; 'I' for Inactive)
REMARK    1  A    between atoms: C_2  and  C_4
REMARK    2  A    between atoms: C_7  and  N_8
REMARK    3  A    between atoms: N_8  and  C_9
REMARK    4  A    between atoms: C_9  and  C_10
REMARK    5  A    between atoms: C_14  and  C_15
REMARK                            x       y       z     vdW  Elec       q    Type
REMARK                         _______ _______ _______ _____ _____    ______ ____
ROOT
ATOM      1  N   UNL     1      43.923   4.983   9.824  0.00  0.00    +0.000 N 
ATOM      2  H   UNL     1      43.196   5.451   9.287  0.00  0.00    +0.000 HD
ENDROOT
BRANCH   1   6
ATOM      3  C   UNL     1      46.209   2.111   7.973  0.00  0.00    +0.000 A 
ATOM      4  N   UNL     1      45.286   1.664   8.854  0.00  0.00    +0.000 NA
ATOM      5  C   UNL     1      44.522   2.622   9.423  0.00  0.00    +0.000 A 
ATOM      6  C   UNL     1      44.604   3.980   9.156  0.00  0.00    +0.000 A 
ATOM      7  C   UNL     1      45.599   4.288   8.236  0.00  0.00    +0.000 A 
ATOM      8  N   UNL     1      46.404   3.395   7.624  0.00  0.00    +0.000 NA
BRANCH   3  10
ATOM      9  N   UNL     1      46.815  -0.239   7.700  0.00  0.00    +0.000 N 
ATOM     10  C   UNL     1      47.106   1.062   7.356  0.00  0.00    +0.000 C 
ATOM     11  O   UNL     1      48.040   1.310   6.603  0.00  0.00    +0.000 OA
ATOM     12  H   UNL     1      47.384  -0.984   7.327  0.00  0.00    +0.000 HD
ATOM     13  H   UNL     1      46.049  -0.437   8.332  0.00  0.00    +0.000 HD
ENDBRANCH   3  10
ENDBRANCH   1   6
BRANCH   1  14
ATOM     14  C   UNL     1      43.659   4.937  11.253  0.00  0.00    +0.000 C 
BRANCH  14  15
ATOM     15  C   UNL     1      44.941   5.183  12.013  0.00  0.00    +0.000 A 
ATOM     16  C   UNL     1      45.323   4.339  13.061  0.00  0.00    +0.000 A 
ATOM     17  C   UNL     1      46.542   4.534  13.707  0.00  0.00    +0.000 A 
ATOM     18  C   UNL     1      47.393   5.563  13.306  0.00  0.00    +0.000 A 
ATOM     19  C   UNL     1      47.042   6.420  12.252  0.00  0.00    +0.000 A 
ATOM     20  C   UNL     1      45.807   6.225  11.623  0.00  0.00    +0.000 A 
BRANCH  19  21
ATOM     21  C   UNL     1      47.995   7.489  11.747  0.00  0.00    +0.000 C 
ATOM     22  C   UNL     1      49.431   7.214  12.226  0.00  0.00    +0.000 C 
ATOM     23  C   UNL     1      50.368   8.348  11.836  0.00  0.00    +0.000 C 
ATOM     24  O   UNL     1      49.874   9.596  12.316  0.00  0.00    +0.000 OA
ATOM     25  C   UNL     1      48.613   9.930  11.739  0.00  0.00    +0.000 C 
ATOM     26  C   UNL     1      47.553   8.908  12.133  0.00  0.00    +0.000 C 
ENDBRANCH  19  21
ENDBRANCH  14  15
ENDBRANCH   1  14
TORSDOF 5
ENDMDL
MODEL 2
REMARK VINA RESULT:    -8.056      1.010      1.463
REMARK INTER + INTRA:         -11.167
REMARK INTER:                 -10.346
REMARK INTRA:                  -0.821
REMARK UNBOUND:                -0.756
REMARK  Name = 
REMARK  5 active torsions:
REMARK  status: ('A' for Active; 'I' for Inactive)
REMARK    1  A    between atoms: C_2  and  C_4
REMARK    2  A    between atoms: C_7  and  N_8
REMARK    3  A    between atoms: N_8  and  C_9
REMARK    4  A    between atoms: C_9  and  C_10
REMARK    5  A    between atoms: C_14  and  C_15
REMARK                            x       y       z     vdW  Elec       q    Type
REMARK                         _______ _______ _______ _____ _____    ______ ____
ROOT
ATOM      1  N   UNL     1      43.796   4.889   9.910  0.00  0.00    +0.000 N 
ATOM      2  H   UNL     1      43.072   5.371   9.381  0.00  0.00    +0.000 HD
ENDROOT
BRANCH   1   6
ATOM      3  C   UNL     1      46.233   2.221   7.950  0.00  0.00    +0.000 A 
ATOM      4  N   UNL     1      45.293   1.687   8.763  0.00  0.00    +0.000 NA
ATOM      5  C   UNL     1      44.480   2.580   9.368  0.00  0.00    +0.000 A 
ATOM      6  C   UNL     1      44.530   3.956   9.199  0.00  0.00    +0.000 A 
ATOM      7  C   UNL     1      45.547   4.356   8.342  0.00  0.00    +0.000 A 
ATOM      8  N   UNL     1      46.401   3.531   7.700  0.00  0.00    +0.000 NA
BRANCH   3  10
ATOM      9  N   UNL     1      48.256   1.812   6.644  0.00  0.00    +0.000 N 
ATOM     10  C   UNL     1      47.183   1.244   7.296  0.00  0.00    +0.000 C 
ATOM     11  O   UNL     1      47.043   0.028   7.315  0.00  0.00    +0.000 OA
ATOM     12  H   UNL     1      48.921   1.212   6.180  0.00  0.00    +0.000 HD
ATOM     13  H   UNL     1      48.360   2.819   6.622  0.00  0.00    +0.000 HD
ENDBRANCH   3  10
ENDBRANCH   1   6
BRANCH   1  14
ATOM     14  C   UNL     1      43.486   4.737  11.322  0.00  0.00    +0.000 C 
BRANCH  14  15
ATOM     15  C   UNL     1      44.740   4.938  12.140  0.00  0.00    +0.000 A 
ATOM     16  C   UNL     1      45.329   3.866  12.820  0.00  0.00    +0.000 A 
ATOM     17  C   UNL     1      46.523   4.048  13.512  0.00  0.00    +0.000 A 
ATOM     18  C   UNL     1      47.146   5.296  13.522  0.00  0.00    +0.000 A 
ATOM     19  C   UNL     1      46.584   6.388  12.843  0.00  0.00    +0.000 A 
ATOM     20  C   UNL     1      45.374   6.195  12.166  0.00  0.00    +0.000 A 
BRANCH  19  21
ATOM     21  C   UNL     1      47.293   7.728  12.772  0.00  0.00    +0.000 C 
ATOM     22  C   UNL     1      46.307   8.852  12.407  0.00  0.00    +0.000 C 
ATOM     23  C   UNL     1      47.031  10.175  12.204  0.00  0.00    +0.000 C 
ATOM     24  O   UNL     1      48.067  10.038  11.236  0.00  0.00    +0.000 OA
ATOM     25  C   UNL     1      49.073   9.117  11.654  0.00  0.00    +0.000 C 
ATOM     26  C   UNL     1      48.489   7.717  11.808  0.00  0.00    +0.000 C 
ENDBRANCH  19  21
ENDBRANCH  14  15
ENDBRANCH   1  14
TORSDOF 5
ENDMDL
MODEL 3
REMARK VINA RESULT:    -7.964      2.296      3.591
REMARK INTER + INTRA:         -11.049
REMARK INTER:                 -10.447
REMARK INTRA:                  -0.602
REMARK UNBOUND:                -0.756
REMARK  Name = 
REMARK  5 active torsions:
REMARK  status: ('A' for Active; 'I' for Inactive)
REMARK    1  A    between atoms: C_2  and  C_4
REMARK    2  A    between atoms: C_7  and  N_8
REMARK    3  A    between atoms: N_8  and  C_9
REMARK    4  A    between atoms: C_9  and  C_10
REMARK    5  A    between atoms: C_14  and  C_15
REMARK                            x       y       z     vdW  Elec       q    Type
REMARK                         _______ _______ _______ _____ _____    ______ ____
ROOT
ATOM      1  N   UNL     1      44.001   4.742  10.157  0.00  0.00    +0.000 N 
ATOM      2  H   UNL     1      43.123   5.093   9.780  0.00  0.00    +0.000 HD
ENDROOT
BRANCH   1   6
ATOM      3  C   UNL     1      46.450   2.500   7.733  0.00  0.00    +0.000 A 
ATOM      4  N   UNL     1      45.719   1.815   8.642  0.00  0.00    +0.000 NA
ATOM      5  C   UNL     1      44.894   2.568   9.403  0.00  0.00    +0.000 A 
ATOM      6  C   UNL     1      44.738   3.942   9.301  0.00  0.00    +0.000 A 
ATOM      7  C   UNL     1      45.556   4.506   8.330  0.00  0.00    +0.000 A 
ATOM      8  N   UNL     1      46.406   3.828   7.531  0.00  0.00    +0.000 NA
BRANCH   3  10
ATOM      9  N   UNL     1      48.520   2.366   6.443  0.00  0.00    +0.000 N 
ATOM     10  C   UNL     1      47.413   1.685   6.900  0.00  0.00    +0.000 C 
ATOM     11  O   UNL     1      47.256   0.502   6.623  0.00  0.00    +0.000 OA
ATOM     12  H   UNL     1      49.195   1.879   5.874  0.00  0.00    +0.000 HD
ATOM     13  H   UNL     1      48.639   3.347   6.665  0.00  0.00    +0.000 HD
ENDBRANCH   3  10
ENDBRANCH   1   6
BRANCH   1  14
ATOM     14  C   UNL     1      43.982   4.546  11.597  0.00  0.00    +0.000 C 
BRANCH  14  15
ATOM     15  C   UNL     1      45.232   5.137  12.205  0.00  0.00    +0.000 A 
ATOM     16  C   UNL     1      45.863   6.237  11.612  0.00  0.00    +0.000 A 
ATOM     17  C   UNL     1      46.973   6.818  12.220  0.00  0.00    +0.000 A 
ATOM     18  C   UNL     1      47.456   6.315  13.428  0.00  0.00    +0.000 A 
ATOM     19  C   UNL     1      46.840   5.219  14.051  0.00  0.00    +0.000 A 
ATOM     20  C   UNL     1      45.736   4.634  13.420  0.00  0.00    +0.000 A 
BRANCH  19  21
ATOM     21  C   UNL     1      47.300   4.716  15.407  0.00  0.00    +0.000 C 
ATOM     22  C   UNL     1      48.406   5.618  15.981  0.00  0.00    +0.000 C 
ATOM     23  C   UNL     1      48.964   5.048  17.277  0.00  0.00    +0.000 C 
ATOM     24  O   UNL     1      49.413   3.709  17.085  0.00  0.00    +0.000 OA
ATOM     25  C   UNL     1      48.348   2.836  16.715  0.00  0.00    +0.000 C 
ATOM     26  C   UNL     1      47.755   3.249  15.372  0.00  0.00    +0.000 C 
ENDBRANCH  19  21
ENDBRANCH  14  15
ENDBRANCH   1  14
TORSDOF 5
ENDMDL
MODEL 4
REMARK VINA RESULT:    -7.669      3.716      7.042
REMARK INTER + INTRA:         -10.668
REMARK INTER:                 -10.237
REMARK INTRA:                  -0.430
REMARK UNBOUND:                -0.756
REMARK  Name = 
REMARK  5 active torsions:
REMARK  status: ('A' for Active; 'I' for Inactive)
REMARK    1  A    between atoms: C_2  and  C_4
REMARK    2  A    between atoms: C_7  and  N_8
REMARK    3  A    between atoms: N_8  and  C_9
REMARK    4  A    between atoms: C_9  and  C_10
REMARK    5  A    between atoms: C_14  and  C_15
REMARK                            x       y       z     vdW  Elec       q    Type
REMARK                         _______ _______ _______ _____ _____    ______ ____
ROOT
ATOM      1  N   UNL     1      47.503   6.601  12.259  0.00  0.00    +0.000 N 
ATOM      2  H   UNL     1      48.111   6.271  11.512  0.00  0.00    +0.000 HD
ENDROOT
BRANCH   1   6
ATOM      3  C   UNL     1      47.448   4.618  15.859  0.00  0.00    +0.000 A 
ATOM      4  N   UNL     1      46.670   4.102  14.881  0.00  0.00    +0.000 NA
ATOM      5  C   UNL     1      46.732   4.748  13.695  0.00  0.00    +0.000 A 
ATOM      6  C   UNL     1      47.528   5.850  13.421  0.00  0.00    +0.000 A 
ATOM      7  C   UNL     1      48.266   6.268  14.521  0.00  0.00    +0.000 A 
ATOM      8  N   UNL     1      48.261   5.681  15.737  0.00  0.00    +0.000 NA
BRANCH   3  10
ATOM      9  N   UNL     1      48.145   4.494  18.196  0.00  0.00    +0.000 N 
ATOM     10  C   UNL     1      47.364   3.939  17.207  0.00  0.00    +0.000 C 
ATOM     11  O   UNL     1      46.667   2.960  17.444  0.00  0.00    +0.000 OA
ATOM     12  H   UNL     1      48.139   4.080  19.116  0.00  0.00    +0.000 HD
ATOM     13  H   UNL     1      48.729   5.296  17.992  0.00  0.00    +0.000 HD
ENDBRANCH   3  10
ENDBRANCH   1   6
BRANCH   1  14
ATOM     14  C   UNL     1      46.308   7.278  11.784  0.00  0.00    +0.000 C 
BRANCH  14  15
ATOM     15  C   UNL     1      45.330   6.260  11.246  0.00  0.00    +0.000 A 
ATOM     16  C   UNL     1      43.994   6.262  11.665  0.00  0.00    +0.000 A 
ATOM     17  C   UNL     1      43.086   5.365  11.109  0.00  0.00    +0.000 A 
ATOM     18  C   UNL     1      43.498   4.467  10.125  0.00  0.00    +0.000 A 
ATOM     19  C   UNL     1      44.828   4.447   9.678  0.00  0.00    +0.000 A 
ATOM     20  C   UNL     1      45.735   5.342  10.258  0.00  0.00    +0.000 A 
BRANCH  19  21
ATOM     21  C   UNL     1      45.272   3.536   8.547  0.00  0.00    +0.000 C 
ATOM     22  C   UNL     1      45.634   2.138   9.078  0.00  0.00    +0.000 C 
ATOM     23  C   UNL     1      46.205   1.261   7.974  0.00  0.00    +0.000 C 
ATOM     24  O   UNL     1      47.315   1.898   7.348  0.00  0.00    +0.000 OA
ATOM     25  C   UNL     1      46.942   3.117   6.708  0.00  0.00    +0.000 C 
ATOM     26  C   UNL     1      46.431   4.127   7.730  0.00  0.00    +0.000 C 
ENDBRANCH  19  21
ENDBRANCH  14  15
ENDBRANCH   1  14
TORSDOF 5
ENDMDL
MODEL 5
REMARK VINA RESULT:    -7.152      1.502      2.133
REMARK INTER + INTRA:          -9.999
REMARK INTER:                  -9.307
REMARK INTRA:                  -0.692
REMARK UNBOUND:                -0.756
REMARK  Name = 
REMARK  5 active torsions:
REMARK  status: ('A' for Active; 'I' for Inactive)
REMARK    1  A    between atoms: C_2  and  C_4
REMARK    2  A    between atoms: C_7  and  N_8
REMARK    3  A    between atoms: N_8  and  C_9
REMARK    4  A    between atoms: C_9  and  C_10
REMARK    5  A    between atoms: C_14  and  C_15
REMARK                            x       y       z     vdW  Elec       q    Type
REMARK                         _______ _______ _______ _____ _____    ______ ____
ROOT
ATOM      1  N   UNL     1      43.831   3.871  10.482  0.00  0.00    +0.000 N 
ATOM      2  H   UNL     1      42.927   3.412  10.568  0.00  0.00    +0.000 HD
ENDROOT
BRANCH   1   6
ATOM      3  C   UNL     1      46.420   2.742   7.495  0.00  0.00    +0.000 A 
ATOM      4  N   UNL     1      46.017   1.765   8.338  0.00  0.00    +0.000 NA
ATOM      5  C   UNL     1      45.138   2.151   9.289  0.00  0.00    +0.000 A 
ATOM      6  C   UNL     1      44.625   3.430   9.438  0.00  0.00    +0.000 A 
ATOM      7  C   UNL     1      45.133   4.325   8.505  0.00  0.00    +0.000 A 
ATOM      8  N   UNL     1      46.012   4.023   7.526  0.00  0.00    +0.000 NA
BRANCH   3  10
ATOM      9  N   UNL     1      47.395   3.073   5.281  0.00  0.00    +0.000 N 
ATOM     10  C   UNL     1      47.437   2.345   6.449  0.00  0.00    +0.000 C 
ATOM     11  O   UNL     1      48.254   1.444   6.589  0.00  0.00    +0.000 OA
ATOM     12  H   UNL     1      48.043   2.849   4.541  0.00  0.00    +0.000 HD
ATOM     13  H   UNL     1      46.710   3.809   5.166  0.00  0.00    +0.000 HD
ENDBRANCH   3  10
ENDBRANCH   1   6
BRANCH   1  14
ATOM     14  C   UNL     1      44.379   4.326  11.749  0.00  0.00    +0.000 C 
BRANCH  14  15
ATOM     15  C   UNL     1      44.671   5.806  11.672  0.00  0.00    +0.000 A 
ATOM     16  C   UNL     1      43.663   6.717  11.334  0.00  0.00    +0.000 A 
ATOM     17  C   UNL     1      43.927   8.084  11.336  0.00  0.00    +0.000 A 
ATOM     18  C   UNL     1      45.193   8.555  11.683  0.00  0.00    +0.000 A 
ATOM     19  C   UNL     1      46.222   7.668  12.034  0.00  0.00    +0.000 A 
ATOM     20  C   UNL     1      45.948   6.295  12.012  0.00  0.00    +0.000 A 
BRANCH  19  21
ATOM     21  C   UNL     1      47.578   8.168  12.498  0.00  0.00    +0.000 C 
ATOM     22  C   UNL     1      48.705   7.581  11.631  0.00  0.00    +0.000 C 
ATOM     23  C   UNL     1      50.074   7.971  12.170  0.00  0.00    +0.000 C 
ATOM     24  O   UNL     1      50.202   7.594  13.538  0.00  0.00    +0.000 OA
ATOM     25  C   UNL     1      49.260   8.270  14.370  0.00  0.00    +0.000 C 
ATOM     26  C   UNL     1      47.834   7.890  13.987  0.00  0.00    +0.000 C 
ENDBRANCH  19  21
ENDBRANCH  14  15
ENDBRANCH   1  14
TORSDOF 5
ENDMDL
MODEL 6
REMARK VINA RESULT:    -6.996      3.150      7.075
REMARK INTER + INTRA:          -9.797
REMARK INTER:                  -9.140
REMARK INTRA:                  -0.657
REMARK UNBOUND:                -0.756
REMARK  Name = 
REMARK  5 active torsions:
REMARK  status: ('A' for Active; 'I' for Inactive)
REMARK    1  A    between atoms: C_2  and  C_4
REMARK    2  A    between atoms: C_7  and  N_8
REMARK    3  A    between atoms: N_8  and  C_9
REMARK    4  A    between atoms: C_9  and  C_10
REMARK    5  A    between atoms: C_14  and  C_15
REMARK                            x       y       z     vdW  Elec       q    Type
REMARK                         _______ _______ _______ _____ _____    ______ ____
ROOT
ATOM      1  N   UNL     1      44.935   6.937  12.565  0.00  0.00    +0.000 N 
ATOM      2  H   UNL     1      44.262   7.513  13.067  0.00  0.00    +0.000 HD
ENDROOT
BRANCH   1   6
ATOM      3  C   UNL     1      48.682   7.230  14.231  0.00  0.00    +0.000 A 
ATOM      4  N   UNL     1      48.256   5.982  13.932  0.00  0.00    +0.000 NA
ATOM      5  C   UNL     1      47.038   5.912  13.352  0.00  0.00    +0.000 A 
ATOM      6  C   UNL     1      46.235   6.998  13.034  0.00  0.00    +0.000 A 
ATOM      7  C   UNL     1      46.801   8.211  13.405  0.00  0.00    +0.000 A 
ATOM      8  N   UNL     1      48.009   8.368  13.987  0.00  0.00    +0.000 NA
BRANCH   3  10
ATOM      9  N   UNL     1      50.049   6.894  16.226  0.00  0.00    +0.000 N 
ATOM     10  C   UNL     1      50.023   7.331  14.920  0.00  0.00    +0.000 C 
ATOM     11  O   UNL     1      51.038   7.769  14.393  0.00  0.00    +0.000 OA
ATOM     12  H   UNL     1      50.914   6.945  16.743  0.00  0.00    +0.000 HD
ATOM     13  H   UNL     1      49.205   6.544  16.661  0.00  0.00    +0.000 HD
ENDBRANCH   3  10
ENDBRANCH   1   6
BRANCH   1  14
ATOM     14  C   UNL     1      44.613   6.750  11.160  0.00  0.00    +0.000 C 
BRANCH  14  15
ATOM     15  C   UNL     1      44.486   5.274  10.863  0.00  0.00    +0.000 A 
ATOM     16  C   UNL     1      43.693   4.449  11.667  0.00  0.00    +0.000 A 
ATOM     17  C   UNL     1      43.527   3.105  11.341  0.00  0.00    +0.000 A 
ATOM     18  C   UNL     1      44.141   2.577  10.206  0.00  0.00    +0.000 A 
ATOM     19  C   UNL     1      44.935   3.381   9.375  0.00  0.00    +0.000 A 
ATOM     20  C   UNL     1      45.108   4.726   9.724  0.00  0.00    +0.000 A 
BRANCH  19  21
ATOM     21  C   UNL     1      45.538   2.843   8.090  0.00  0.00    +0.000 C 
ATOM     22  C   UNL     1      46.228   1.489   8.332  0.00  0.00    +0.000 C 
ATOM     23  C   UNL     1      46.947   1.006   7.081  0.00  0.00    +0.000 C 
ATOM     24  O   UNL     1      47.861   1.994   6.614  0.00  0.00    +0.000 OA
ATOM     25  C   UNL     1      47.197   3.197   6.228  0.00  0.00    +0.000 C 
ATOM     26  C   UNL     1      46.504   3.836   7.426  0.00  0.00    +0.000 C 
ENDBRANCH  19  21
ENDBRANCH  14  15
ENDBRANCH   1  14
TORSDOF 5
ENDMDL
MODEL 7
REMARK VINA RESULT:    -6.555      4.618      7.775
REMARK INTER + INTRA:          -9.227
REMARK INTER:                  -8.727
REMARK INTRA:                  -0.500
REMARK UNBOUND:                -0.756
REMARK  Name = 
REMARK  5 active torsions:
REMARK  status: ('A' for Active; 'I' for Inactive)
REMARK    1  A    between atoms: C_2  and  C_4
REMARK    2  A    between atoms: C_7  and  N_8
REMARK    3  A    between atoms: N_8  and  C_9
REMARK    4  A    between atoms: C_9  and  C_10
REMARK    5  A    between atoms: C_14  and  C_15
REMARK                            x       y       z     vdW  Elec       q    Type
REMARK                         _______ _______ _______ _____ _____    ______ ____
ROOT
ATOM      1  N   UNL     1      46.404   4.935  14.760  0.00  0.00    +0.000 N 
ATOM      2  H   UNL     1      45.510   5.083  15.225  0.00  0.00    +0.000 HD
ENDROOT
BRANCH   1   6
ATOM      3  C   UNL     1      49.465   4.284  17.425  0.00  0.00    +0.000 A 
ATOM      4  N   UNL     1      48.547   3.297  17.316  0.00  0.00    +0.000 NA
ATOM      5  C   UNL     1      47.571   3.516  16.408  0.00  0.00    +0.000 A 
ATOM      6  C   UNL     1      47.465   4.635  15.595  0.00  0.00    +0.000 A 
ATOM      7  C   UNL     1      48.474   5.562  15.823  0.00  0.00    +0.000 A 
ATOM      8  N   UNL     1      49.483   5.422  16.709  0.00  0.00    +0.000 NA
BRANCH   3  10
ATOM      9  N   UNL     1      51.477   3.115  18.166  0.00  0.00    +0.000 N 
ATOM     10  C   UNL     1      50.543   4.082  18.465  0.00  0.00    +0.000 C 
ATOM     11  O   UNL     1      50.615   4.709  19.515  0.00  0.00    +0.000 OA
ATOM     12  H   UNL     1      52.217   2.927  18.826  0.00  0.00    +0.000 HD
ATOM     13  H   UNL     1      51.406   2.591  17.303  0.00  0.00    +0.000 HD
ENDBRANCH   3  10
ENDBRANCH   1   6
BRANCH   1  14
ATOM     14  C   UNL     1      46.559   5.697  13.532  0.00  0.00    +0.000 C 
BRANCH  14  15
ATOM     15  C   UNL     1      45.404   5.402  12.604  0.00  0.00    +0.000 A 
ATOM     16  C   UNL     1      44.135   5.936  12.851  0.00  0.00    +0.000 A 
ATOM     17  C   UNL     1      43.096   5.716  11.950  0.00  0.00    +0.000 A 
ATOM     18  C   UNL     1      43.317   4.971  10.792  0.00  0.00    +0.000 A 
ATOM     19  C   UNL     1      44.580   4.430  10.512  0.00  0.00    +0.000 A 
ATOM     20  C   UNL     1      45.611   4.644  11.435  0.00  0.00    +0.000 A 
BRANCH  19  21
ATOM     21  C   UNL     1      44.858   3.692   9.215  0.00  0.00    +0.000 C 
ATOM     22  C   UNL     1      45.322   2.251   9.491  0.00  0.00    +0.000 C 
ATOM     23  C   UNL     1      45.729   1.548   8.205  0.00  0.00    +0.000 C 
ATOM     24  O   UNL     1      46.717   2.302   7.510  0.00  0.00    +0.000 OA
ATOM     25  C   UNL     1      46.229   3.579   7.104  0.00  0.00    +0.000 C 
ATOM     26  C   UNL     1      45.867   4.427   8.319  0.00  0.00    +0.000 C 
ENDBRANCH  19  21
ENDBRANCH  14  15
ENDBRANCH   1  14
TORSDOF 5
ENDMDL
MODEL 8
REMARK VINA RESULT:    -6.489      5.267      7.841
REMARK INTER + INTRA:          -9.142
REMARK INTER:                  -8.494
REMARK INTRA:                  -0.648
REMARK UNBOUND:                -0.756
REMARK  Name = 
REMARK  5 active torsions:
REMARK  status: ('A' for Active; 'I' for Inactive)
REMARK    1  A    between atoms: C_2  and  C_4
REMARK    2  A    between atoms: C_7  and  N_8
REMARK    3  A    between atoms: N_8  and  C_9
REMARK    4  A    between atoms: C_9  and  C_10
REMARK    5  A    between atoms: C_14  and  C_15
REMARK                            x       y       z     vdW  Elec       q    Type
REMARK                         _______ _______ _______ _____ _____    ______ ____
ROOT
ATOM      1  N   UNL     1      48.388   7.369  15.754  0.00  0.00    +0.000 N 
ATOM      2  H   UNL     1      48.249   8.148  16.395  0.00  0.00    +0.000 HD
ENDROOT
BRANCH   1   6
ATOM      3  C   UNL     1      50.171   3.915  17.093  0.00  0.00    +0.000 A 
ATOM      4  N   UNL     1      50.960   5.011  17.036  0.00  0.00    +0.000 NA
ATOM      5  C   UNL     1      50.344   6.143  16.629  0.00  0.00    +0.000 A 
ATOM      6  C   UNL     1      49.002   6.254  16.299  0.00  0.00    +0.000 A 
ATOM      7  C   UNL     1      48.322   5.047  16.399  0.00  0.00    +0.000 A 
ATOM      8  N   UNL     1      48.860   3.875  16.796  0.00  0.00    +0.000 NA
BRANCH   3  10
ATOM      9  N   UNL     1      51.826   2.755  18.464  0.00  0.00    +0.000 N 
ATOM     10  C   UNL     1      50.847   2.626  17.504  0.00  0.00    +0.000 C 
ATOM     11  O   UNL     1      50.577   1.527  17.038  0.00  0.00    +0.000 OA
ATOM     12  H   UNL     1      52.320   1.932  18.774  0.00  0.00    +0.000 HD
ATOM     13  H   UNL     1      52.053   3.668  18.838  0.00  0.00    +0.000 HD
ENDBRANCH   3  10
ENDBRANCH   1   6
BRANCH   1  14
ATOM     14  C   UNL     1      48.577   7.775  14.371  0.00  0.00    +0.000 C 
BRANCH  14  15
ATOM     15  C   UNL     1      47.285   7.591  13.610  0.00  0.00    +0.000 A 
ATOM     16  C   UNL     1      46.562   8.699  13.153  0.00  0.00    +0.000 A 
ATOM     17  C   UNL     1      45.411   8.516  12.391  0.00  0.00    +0.000 A 
ATOM     18  C   UNL     1      44.978   7.230  12.069  0.00  0.00    +0.000 A 
ATOM     19  C   UNL     1      45.686   6.100  12.505  0.00  0.00    +0.000 A 
ATOM     20  C   UNL     1      46.832   6.297  13.285  0.00  0.00    +0.000 A 
BRANCH  19  21
ATOM     21  C   UNL     1      45.278   4.698  12.091  0.00  0.00    +0.000 C 
ATOM     22  C   UNL     1      45.080   4.612  10.567  0.00  0.00    +0.000 C 
ATOM     23  C   UNL     1      44.543   3.248  10.158  0.00  0.00    +0.000 C 
ATOM     24  O   UNL     1      43.347   2.944  10.870  0.00  0.00    +0.000 OA
ATOM     25  C   UNL     1      43.569   2.857  12.276  0.00  0.00    +0.000 C 
ATOM     26  C   UNL     1      44.028   4.200  12.832  0.00  0.00    +0.000 C 
ENDBRANCH  19  21
ENDBRANCH  14  15
ENDBRANCH   1  14
TORSDOF 5
ENDMDL
MODEL 9
REMARK VINA RESULT:    -6.176      3.293      7.186
REMARK INTER + INTRA:          -8.738
REMARK INTER:                  -8.139
REMARK INTRA:                  -0.599
REMARK UNBOUND:                -0.756
REMARK  Name = 
REMARK  5 active torsions:
REMARK  status: ('A' for Active; 'I' for Inactive)
REMARK    1  A    between atoms: C_2  and  C_4
REMARK    2  A    between atoms: C_7  and  N_8
REMARK    3  A    between atoms: N_8  and  C_9
REMARK    4  A    between atoms: C_9  and  C_10
REMARK    5  A    between atoms: C_14  and  C_15
REMARK                            x       y       z     vdW  Elec       q    Type
REMARK                         _______ _______ _______ _____ _____    ______ ____
ROOT
ATOM      1  N   UNL     1      46.370   7.118  13.285  0.00  0.00    +0.000 N 
ATOM      2  H   UNL     1      45.989   7.020  14.224  0.00  0.00    +0.000 HD
ENDROOT
BRANCH   1   6
ATOM      3  C   UNL     1      50.262   8.411  12.999  0.00  0.00    +0.000 A 
ATOM      4  N   UNL     1      49.390   8.936  12.109  0.00  0.00    +0.000 NA
ATOM      5  C   UNL     1      48.110   8.526  12.245  0.00  0.00    +0.000 A 
ATOM      6  C   UNL     1      47.646   7.650  13.215  0.00  0.00    +0.000 A 
ATOM      7  C   UNL     1      48.655   7.190  14.052  0.00  0.00    +0.000 A 
ATOM      8  N   UNL     1      49.954   7.549  13.984  0.00  0.00    +0.000 NA
BRANCH   3  10
ATOM      9  N   UNL     1      52.535   7.867  12.289  0.00  0.00    +0.000 N 
ATOM     10  C   UNL     1      51.708   8.821  12.840  0.00  0.00    +0.000 C 
ATOM     11  O   UNL     1      52.155   9.913  13.169  0.00  0.00    +0.000 OA
ATOM     12  H   UNL     1      53.513   8.078  12.166  0.00  0.00    +0.000 HD
ATOM     13  H   UNL     1      52.162   6.962  12.029  0.00  0.00    +0.000 HD
ENDBRANCH   3  10
ENDBRANCH   1   6
BRANCH   1  14
ATOM     14  C   UNL     1      45.362   7.352  12.265  0.00  0.00    +0.000 C 
BRANCH  14  15
ATOM     15  C   UNL     1      44.736   6.038  11.861  0.00  0.00    +0.000 A 
ATOM     16  C   UNL     1      43.658   5.509  12.580  0.00  0.00    +0.000 A 
ATOM     17  C   UNL     1      43.044   4.334  12.155  0.00  0.00    +0.000 A 
ATOM     18  C   UNL     1      43.492   3.682  11.006  0.00  0.00    +0.000 A 
ATOM     19  C   UNL     1      44.564   4.193  10.259  0.00  0.00    +0.000 A 
ATOM     20  C   UNL     1      45.184   5.366  10.707  0.00  0.00    +0.000 A 
BRANCH  19  21
ATOM     21  C   UNL     1      45.006   3.544   8.960  0.00  0.00    +0.000 C 
ATOM     22  C   UNL     1      45.559   2.130   9.212  0.00  0.00    +0.000 C 
ATOM     23  C   UNL     1      46.125   1.525   7.936  0.00  0.00    +0.000 C 
ATOM     24  O   UNL     1      47.105   2.386   7.363  0.00  0.00    +0.000 OA
ATOM     25  C   UNL     1      46.551   3.642   6.973  0.00  0.00    +0.000 C 
ATOM     26  C   UNL     1      46.024   4.398   8.187  0.00  0.00    +0.000 C 
ENDBRANCH  19  21
ENDBRANCH  14  15
ENDBRANCH   1  14
TORSDOF 5
ENDMDL
