MODEL 1
REMARK VINA RESULT:    -7.756      0.000      0.000
REMARK INTER + INTRA:          -9.922
REMARK INTER:                  -9.343
REMARK INTRA:                  -0.580
REMARK UNBOUND:                -0.580
REMARK  Name = 
REMARK  4 active torsions:
REMARK  status: ('A' for Active; 'I' for Inactive)
REMARK    1  A    between atoms: N_1  and  S_2
REMARK    2  A    between atoms: S_2  and  C_5
REMARK    3  A    between atoms: C_8  and  C_9
REMARK    4  A    between atoms: C_9  and  N_10
REMARK                            x       y       z     vdW  Elec       q    Type
REMARK                         _______ _______ _______ _____ _____    ______ ____
ROOT
ATOM      1  C   UNL     1      46.250   2.784   7.575  0.00  0.00    +0.000 A 
ATOM      2  C   UNL     1      45.512   2.007   8.467  0.00  0.00    +0.000 A 
ATOM      3  C   UNL     1      44.837   2.628   9.520  0.00  0.00    +0.000 A 
ATOM      4  C   UNL     1      44.904   4.019   9.694  0.00  0.00    +0.000 A 
ATOM      5  C   UNL     1      45.625   4.787   8.765  0.00  0.00    +0.000 A 
ATOM      6  C   UNL     1      46.295   4.173   7.706  0.00  0.00    +0.000 A 
ENDROOT
BRANCH   1   7
ATOM      7  S   UNL     1      47.136   1.996   6.263  0.00  0.00    +0.000 S 
ATOM      8  O   UNL     1      46.703   2.546   5.007  0.00  0.00    +0.000 OA
ATOM      9  O   UNL     1      47.192   0.572   6.520  0.00  0.00    +0.000 OA
BRANCH   7  10
ATOM     10  N   UNL     1      48.703   2.549   6.519  0.00  0.00    +0.000 NA
ATOM     11  H   UNL     1      49.351   1.771   6.384  0.00  0.00    +0.000 HD
ATOM     12  H   UNL     1      48.778   2.983   7.442  0.00  0.00    +0.000 HD
ENDBRANCH   7  10
ENDBRANCH   1   7
BRANCH   4  13
ATOM     13  C   UNL     1      44.238   4.683  10.876  0.00  0.00    +0.000 C 
BRANCH  13  14
ATOM     14  N   UNL     1      45.170   5.505  11.646  0.00  0.00    +0.000 N 
ATOM     15  C   UNL     1      45.240   6.875  11.561  0.00  0.00    +0.000 A 
ATOM     16  C   UNL     1      46.127   7.320  12.513  0.00  0.00    +0.000 A 
ATOM     17  C   UNL     1      46.611   6.184  13.218  0.00  0.00    +0.000 A 
ATOM     18  C   UNL     1      47.496   6.012  14.290  0.00  0.00    +0.000 A 
ATOM     19  N   UNL     1      47.764   4.776  14.777  0.00  0.00    +0.000 NA
ATOM     20  C   UNL     1      47.171   3.712  14.199  0.00  0.00    +0.000 A 
ATOM     21  C   UNL     1      46.286   3.773  13.132  0.00  0.00    +0.000 A 
ATOM     22  C   UNL     1      46.008   5.057  12.651  0.00  0.00    +0.000 A 
ENDBRANCH  13  14
ENDBRANCH   4  13
TORSDOF 4
ENDMDL
MODEL 2
REMARK VINA RESULT:    -7.737      1.109      2.209
REMARK INTER + INTRA:          -9.900
REMARK INTER:                  -9.267
REMARK INTRA:                  -0.633
REMARK UNBOUND:                -0.580
REMARK  Name = 
REMARK  4 active torsions:
REMARK  status: ('A' for Active; 'I' for Inactive)
REMARK    1  A    between atoms: N_1  and  S_2
REMARK    2  A    between atoms: S_2  and  C_5
REMARK    3  A    between atoms: C_8  and  C_9
REMARK    4  A    between atoms: C_9  and  N_10
REMARK                            x       y       z     vdW  Elec       q    Type
REMARK                         _______ _______ _______ _____ _____    ______ ____
ROOT
ATOM      1  C   UNL     1      46.200   2.742   7.673  0.00  0.00    +0.000 A 
ATOM      2  C   UNL     1      45.625   1.861   8.587  0.00  0.00    +0.000 A 
ATOM      3  C   UNL     1      44.911   2.371   9.674  0.00  0.00    +0.000 A 
ATOM      4  C   UNL     1      44.778   3.756   9.858  0.00  0.00    +0.000 A 
ATOM      5  C   UNL     1      45.336   4.626   8.906  0.00  0.00    +0.000 A 
ATOM      6  C   UNL     1      46.043   4.122   7.814  0.00  0.00    +0.000 A 
ENDROOT
BRANCH   1   7
ATOM      7  S   UNL     1      47.136   2.099   6.316  0.00  0.00    +0.000 S 
ATOM      8  O   UNL     1      46.726   2.761   5.107  0.00  0.00    +0.000 OA
ATOM      9  O   UNL     1      47.213   0.659   6.437  0.00  0.00    +0.000 OA
BRANCH   7  10
ATOM     10  N   UNL     1      48.684   2.652   6.669  0.00  0.00    +0.000 NA
ATOM     11  H   UNL     1      49.340   2.228   6.010  0.00  0.00    +0.000 HD
ATOM     12  H   UNL     1      48.913   2.461   7.648  0.00  0.00    +0.000 HD
ENDBRANCH   7  10
ENDBRANCH   1   7
BRANCH   4  13
ATOM     13  C   UNL     1      44.072   4.309  11.073  0.00  0.00    +0.000 C 
BRANCH  13  14
ATOM     14  N   UNL     1      45.000   4.929  12.017  0.00  0.00    +0.000 N 
ATOM     15  C   UNL     1      45.851   4.224  12.835  0.00  0.00    +0.000 A 
ATOM     16  C   UNL     1      46.663   5.123  13.486  0.00  0.00    +0.000 A 
ATOM     17  C   UNL     1      46.308   6.426  13.045  0.00  0.00    +0.000 A 
ATOM     18  C   UNL     1      46.790   7.712  13.327  0.00  0.00    +0.000 A 
ATOM     19  N   UNL     1      46.251   8.801  12.727  0.00  0.00    +0.000 NA
ATOM     20  C   UNL     1      45.233   8.624  11.861  0.00  0.00    +0.000 A 
ATOM     21  C   UNL     1      44.680   7.399  11.519  0.00  0.00    +0.000 A 
ATOM     22  C   UNL     1      45.256   6.283  12.134  0.00  0.00    +0.000 A 
ENDBRANCH  13  14
ENDBRANCH   4  13
TORSDOF 4
ENDMDL
MODEL 3
REMARK VINA RESULT:    -6.396      4.117      6.773
REMARK INTER + INTRA:          -8.285
REMARK INTER:                  -7.661
REMARK INTRA:                  -0.624
REMARK UNBOUND:                -0.580
REMARK  Name = 
REMARK  4 active torsions:
REMARK  status: ('A' for Active; 'I' for Inactive)
REMARK    1  A    between atoms: N_1  and  S_2
REMARK    2  A    between atoms: S_2  and  C_5
REMARK    3  A    between atoms: C_8  and  C_9
REMARK    4  A    between atoms: C_9  and  N_10
REMARK                            x       y       z     vdW  Elec       q    Type
REMARK                         _______ _______ _______ _____ _____    ______ ____
ROOT
ATOM      1  C   UNL     1      46.948   6.121  12.732  0.00  0.00    +0.000 A 
ATOM      2  C   UNL     1      46.934   6.729  11.477  0.00  0.00    +0.000 A 
ATOM      3  C   UNL     1      46.088   6.230  10.484  0.00  0.00    +0.000 A 
ATOM      4  C   UNL     1      45.265   5.121  10.734  0.00  0.00    +0.000 A 
ATOM      5  C   UNL     1      45.269   4.544  12.015  0.00  0.00    +0.000 A 
ATOM      6  C   UNL     1      46.107   5.043  13.014  0.00  0.00    +0.000 A 
ENDROOT
BRANCH   1   7
ATOM      7  S   UNL     1      48.046   6.728  13.978  0.00  0.00    +0.000 S 
ATOM      8  O   UNL     1      48.183   5.734  15.008  0.00  0.00    +0.000 OA
ATOM      9  O   UNL     1      47.723   8.111  14.259  0.00  0.00    +0.000 OA
BRANCH   7  10
ATOM     10  N   UNL     1      49.512   6.779  13.157  0.00  0.00    +0.000 NA
ATOM     11  H   UNL     1      49.497   6.073  12.418  0.00  0.00    +0.000 HD
ATOM     12  H   UNL     1      50.289   6.662  13.812  0.00  0.00    +0.000 HD
ENDBRANCH   7  10
ENDBRANCH   1   7
BRANCH   4  13
ATOM     13  C   UNL     1      44.407   4.533   9.639  0.00  0.00    +0.000 C 
BRANCH  13  14
ATOM     14  N   UNL     1      44.934   3.263   9.145  0.00  0.00    +0.000 N 
ATOM     15  C   UNL     1      44.420   2.033   9.479  0.00  0.00    +0.000 A 
ATOM     16  C   UNL     1      45.072   1.078   8.734  0.00  0.00    +0.000 A 
ATOM     17  C   UNL     1      46.012   1.744   7.903  0.00  0.00    +0.000 A 
ATOM     18  C   UNL     1      46.925   1.314   6.931  0.00  0.00    +0.000 A 
ATOM     19  N   UNL     1      47.704   2.203   6.269  0.00  0.00    +0.000 NA
ATOM     20  C   UNL     1      47.592   3.512   6.574  0.00  0.00    +0.000 A 
ATOM     21  C   UNL     1      46.726   4.040   7.521  0.00  0.00    +0.000 A 
ATOM     22  C   UNL     1      45.918   3.111   8.184  0.00  0.00    +0.000 A 
ENDBRANCH  13  14
ENDBRANCH   4  13
TORSDOF 4
ENDMDL
MODEL 4
REMARK VINA RESULT:    -6.382      4.648      6.828
REMARK INTER + INTRA:          -8.267
REMARK INTER:                  -7.810
REMARK INTRA:                  -0.457
REMARK UNBOUND:                -0.580
REMARK  Name = 
REMARK  4 active torsions:
REMARK  status: ('A' for Active; 'I' for Inactive)
REMARK    1  A    between atoms: N_1  and  S_2
REMARK    2  A    between atoms: S_2  and  C_5
REMARK    3  A    between atoms: C_8  and  C_9
REMARK    4  A    between atoms: C_9  and  N_10
REMARK                            x       y       z     vdW  Elec       q    Type
REMARK                         _______ _______ _______ _____ _____    ______ ____
ROOT
ATOM      1  C   UNL     1      47.910   7.159  13.862  0.00  0.00    +0.000 A 
ATOM      2  C   UNL     1      47.544   5.828  13.661  0.00  0.00    +0.000 A 
ATOM      3  C   UNL     1      46.375   5.540  12.952  0.00  0.00    +0.000 A 
ATOM      4  C   UNL     1      45.565   6.572  12.454  0.00  0.00    +0.000 A 
ATOM      5  C   UNL     1      45.970   7.905  12.638  0.00  0.00    +0.000 A 
ATOM      6  C   UNL     1      47.141   8.199  13.338  0.00  0.00    +0.000 A 
ENDROOT
BRANCH   1   7
ATOM      7  S   UNL     1      49.370   7.527  14.791  0.00  0.00    +0.000 S 
ATOM      8  O   UNL     1      49.753   6.364  15.544  0.00  0.00    +0.000 OA
ATOM      9  O   UNL     1      49.233   8.839  15.386  0.00  0.00    +0.000 OA
BRANCH   7  10
ATOM     10  N   UNL     1      50.517   7.715  13.576  0.00  0.00    +0.000 NA
ATOM     11  H   UNL     1      50.491   6.892  12.971  0.00  0.00    +0.000 HD
ATOM     12  H   UNL     1      51.439   7.889  13.983  0.00  0.00    +0.000 HD
ENDBRANCH   7  10
ENDBRANCH   1   7
BRANCH   4  13
ATOM     13  C   UNL     1      44.263   6.264  11.755  0.00  0.00    +0.000 C 
BRANCH  13  14
ATOM     14  N   UNL     1      44.151   4.853  11.391  0.00  0.00    +0.000 N 
ATOM     15  C   UNL     1      43.402   3.935  12.088  0.00  0.00    +0.000 A 
ATOM     16  C   UNL     1      43.421   2.748  11.393  0.00  0.00    +0.000 A 
ATOM     17  C   UNL     1      44.200   2.946  10.220  0.00  0.00    +0.000 A 
ATOM     18  C   UNL     1      44.548   2.128   9.137  0.00  0.00    +0.000 A 
ATOM     19  N   UNL     1      45.312   2.606   8.125  0.00  0.00    +0.000 NA
ATOM     20  C   UNL     1      45.742   3.883   8.188  0.00  0.00    +0.000 A 
ATOM     21  C   UNL     1      45.460   4.770   9.216  0.00  0.00    +0.000 A 
ATOM     22  C   UNL     1      44.657   4.267  10.245  0.00  0.00    +0.000 A 
ENDBRANCH  13  14
ENDBRANCH   4  13
TORSDOF 4
ENDMDL
MODEL 5
REMARK VINA RESULT:    -5.743      3.923      5.223
REMARK INTER + INTRA:          -7.498
REMARK INTER:                  -7.061
REMARK INTRA:                  -0.437
REMARK UNBOUND:                -0.580
REMARK  Name = 
REMARK  4 active torsions:
REMARK  status: ('A' for Active; 'I' for Inactive)
REMARK    1  A    between atoms: N_1  and  S_2
REMARK    2  A    between atoms: S_2  and  C_5
REMARK    3  A    between atoms: C_8  and  C_9
REMARK    4  A    between atoms: C_9  and  N_10
REMARK                            x       y       z     vdW  Elec       q    Type
REMARK                         _______ _______ _______ _____ _____    ______ ____
ROOT
ATOM      1  C   UNL     1      45.229   4.611  11.242  0.00  0.00    +0.000 A 
ATOM      2  C   UNL     1      45.605   5.821  10.659  0.00  0.00    +0.000 A 
ATOM      3  C   UNL     1      46.370   6.728  11.396  0.00  0.00    +0.000 A 
ATOM      4  C   UNL     1      46.751   6.439  12.715  0.00  0.00    +0.000 A 
ATOM      5  C   UNL     1      46.391   5.200  13.272  0.00  0.00    +0.000 A 
ATOM      6  C   UNL     1      45.634   4.286  12.538  0.00  0.00    +0.000 A 
ENDROOT
BRANCH   1   7
ATOM      7  S   UNL     1      44.230   3.477  10.324  0.00  0.00    +0.000 S 
ATOM      8  O   UNL     1      43.037   3.189  11.072  0.00  0.00    +0.000 OA
ATOM      9  O   UNL     1      45.078   2.444   9.768  0.00  0.00    +0.000 OA
BRANCH   7  10
ATOM     10  N   UNL     1      43.761   4.413   9.008  0.00  0.00    +0.000 NA
ATOM     11  H   UNL     1      43.710   5.390   9.303  0.00  0.00    +0.000 HD
ATOM     12  H   UNL     1      42.883   4.061   8.618  0.00  0.00    +0.000 HD
ENDBRANCH   7  10
ENDBRANCH   1   7
BRANCH   4  13
ATOM     13  C   UNL     1      47.512   7.450  13.539  0.00  0.00    +0.000 C 
BRANCH  13  14
ATOM     14  N   UNL     1      47.964   8.587  12.739  0.00  0.00    +0.000 N 
ATOM     15  C   UNL     1      47.280   9.776  12.635  0.00  0.00    +0.000 A 
ATOM     16  C   UNL     1      48.056  10.655  11.916  0.00  0.00    +0.000 A 
ATOM     17  C   UNL     1      49.264   9.989  11.576  0.00  0.00    +0.000 A 
ATOM     18  C   UNL     1      50.424  10.373  10.890  0.00  0.00    +0.000 A 
ATOM     19  N   UNL     1      51.452   9.506  10.727  0.00  0.00    +0.000 NA
ATOM     20  C   UNL     1      51.333   8.260  11.230  0.00  0.00    +0.000 A 
ATOM     21  C   UNL     1      50.228   7.781  11.918  0.00  0.00    +0.000 A 
ATOM     22  C   UNL     1      49.181   8.691  12.091  0.00  0.00    +0.000 A 
ENDBRANCH  13  14
ENDBRANCH   4  13
TORSDOF 4
ENDMDL
MODEL 6
REMARK VINA RESULT:    -5.606      3.997      5.406
REMARK INTER + INTRA:          -7.333
REMARK INTER:                  -6.722
REMARK INTRA:                  -0.611
REMARK UNBOUND:                -0.580
REMARK  Name = 
REMARK  4 active torsions:
REMARK  status: ('A' for Active; 'I' for Inactive)
REMARK    1  A    between atoms: N_1  and  S_2
REMARK    2  A    between atoms: S_2  and  C_5
REMARK    3  A    between atoms: C_8  and  C_9
REMARK    4  A    between atoms: C_9  and  N_10
REMARK                            x       y       z     vdW  Elec       q    Type
REMARK                         _______ _______ _______ _____ _____    ______ ____
ROOT
ATOM      1  C   UNL     1      44.882   5.268  12.051  0.00  0.00    +0.000 A 
ATOM      2  C   UNL     1      45.399   4.796  13.257  0.00  0.00    +0.000 A 
ATOM      3  C   UNL     1      46.634   5.269  13.704  0.00  0.00    +0.000 A 
ATOM      4  C   UNL     1      47.361   6.202  12.948  0.00  0.00    +0.000 A 
ATOM      5  C   UNL     1      46.807   6.691  11.754  0.00  0.00    +0.000 A 
ATOM      6  C   UNL     1      45.569   6.228  11.306  0.00  0.00    +0.000 A 
ENDROOT
BRANCH   1   7
ATOM      7  S   UNL     1      43.334   4.643  11.465  0.00  0.00    +0.000 S 
ATOM      8  O   UNL     1      42.273   5.473  11.965  0.00  0.00    +0.000 OA
ATOM      9  O   UNL     1      43.330   3.201  11.589  0.00  0.00    +0.000 OA
BRANCH   7  10
ATOM     10  N   UNL     1      43.443   4.940   9.813  0.00  0.00    +0.000 NA
ATOM     11  H   UNL     1      42.559   5.343   9.495  0.00  0.00    +0.000 HD
ATOM     12  H   UNL     1      43.699   4.083   9.316  0.00  0.00    +0.000 HD
ENDBRANCH   7  10
ENDBRANCH   1   7
BRANCH   4  13
ATOM     13  C   UNL     1      48.731   6.656  13.392  0.00  0.00    +0.000 C 
BRANCH  13  14
ATOM     14  N   UNL     1      48.672   7.536  14.558  0.00  0.00    +0.000 N 
ATOM     15  C   UNL     1      48.277   8.852  14.510  0.00  0.00    +0.000 A 
ATOM     16  C   UNL     1      48.216   9.329  15.799  0.00  0.00    +0.000 A 
ATOM     17  C   UNL     1      48.575   8.266  16.671  0.00  0.00    +0.000 A 
ATOM     18  C   UNL     1      48.666   8.143  18.064  0.00  0.00    +0.000 A 
ATOM     19  N   UNL     1      49.029   6.968  18.634  0.00  0.00    +0.000 NA
ATOM     20  C   UNL     1      49.313   5.921  17.831  0.00  0.00    +0.000 A 
ATOM     21  C   UNL     1      49.259   5.941  16.445  0.00  0.00    +0.000 A 
ATOM     22  C   UNL     1      48.868   7.155  15.873  0.00  0.00    +0.000 A 
ENDBRANCH  13  14
ENDBRANCH   4  13
TORSDOF 4
ENDMDL
MODEL 7
REMARK VINA RESULT:    -5.484      3.274      4.860
REMARK INTER + INTRA:          -7.185
REMARK INTER:                  -6.608
REMARK INTRA:                  -0.577
REMARK UNBOUND:                -0.580
REMARK  Name = 
REMARK  4 active torsions:
REMARK  status: ('A' for Active; 'I' for Inactive)
REMARK    1  A    between atoms: N_1  and  S_2
REMARK    2  A    between atoms: S_2  and  C_5
REMARK    3  A    between atoms: C_8  and  C_9
REMARK    4  A    between atoms: C_9  and  N_10
REMARK                            x       y       z     vdW  Elec       q    Type
REMARK                         _______ _______ _______ _____ _____    ______ ____
ROOT
ATOM      1  C   UNL     1      45.103   4.857  11.357  0.00  0.00    +0.000 A 
ATOM      2  C   UNL     1      45.169   6.149  10.837  0.00  0.00    +0.000 A 
ATOM      3  C   UNL     1      45.783   7.157  11.583  0.00  0.00    +0.000 A 
ATOM      4  C   UNL     1      46.320   6.885  12.851  0.00  0.00    +0.000 A 
ATOM      5  C   UNL     1      46.273   5.569  13.342  0.00  0.00    +0.000 A 
ATOM      6  C   UNL     1      45.669   4.556  12.597  0.00  0.00    +0.000 A 
ENDROOT
BRANCH   1   7
ATOM      7  S   UNL     1      44.293   3.587  10.429  0.00  0.00    +0.000 S 
ATOM      8  O   UNL     1      43.099   3.187  11.122  0.00  0.00    +0.000 OA
ATOM      9  O   UNL     1      45.284   2.642   9.959  0.00  0.00    +0.000 OA
BRANCH   7  10
ATOM     10  N   UNL     1      43.799   4.422   9.056  0.00  0.00    +0.000 NA
ATOM     11  H   UNL     1      44.482   5.154   8.854  0.00  0.00    +0.000 HD
ATOM     12  H   UNL     1      42.848   4.779   9.182  0.00  0.00    +0.000 HD
ENDBRANCH   7  10
ENDBRANCH   1   7
BRANCH   4  13
ATOM     13  C   UNL     1      46.915   7.989  13.692  0.00  0.00    +0.000 C 
BRANCH  13  14
ATOM     14  N   UNL     1      48.373   7.904  13.766  0.00  0.00    +0.000 N 
ATOM     15  C   UNL     1      49.225   8.464  12.844  0.00  0.00    +0.000 A 
ATOM     16  C   UNL     1      50.514   8.302  13.297  0.00  0.00    +0.000 A 
ATOM     17  C   UNL     1      50.452   7.629  14.547  0.00  0.00    +0.000 A 
ATOM     18  C   UNL     1      51.417   7.221  15.477  0.00  0.00    +0.000 A 
ATOM     19  N   UNL     1      51.053   6.596  16.623  0.00  0.00    +0.000 NA
ATOM     20  C   UNL     1      49.744   6.363  16.845  0.00  0.00    +0.000 A 
ATOM     21  C   UNL     1      48.713   6.720  15.988  0.00  0.00    +0.000 A 
ATOM     22  C   UNL     1      49.103   7.378  14.817  0.00  0.00    +0.000 A 
ENDBRANCH  13  14
ENDBRANCH   4  13
TORSDOF 4
ENDMDL
MODEL 8
REMARK VINA RESULT:    -5.168      3.872      5.456
REMARK INTER + INTRA:          -6.805
REMARK INTER:                  -6.212
REMARK INTRA:                  -0.593
REMARK UNBOUND:                -0.580
REMARK  Name = 
REMARK  4 active torsions:
REMARK  status: ('A' for Active; 'I' for Inactive)
REMARK    1  A    between atoms: N_1  and  S_2
REMARK    2  A    between atoms: S_2  and  C_5
REMARK    3  A    between atoms: C_8  and  C_9
REMARK    4  A    between atoms: C_9  and  N_10
REMARK                            x       y       z     vdW  Elec       q    Type
REMARK                         _______ _______ _______ _____ _____    ______ ____
ROOT
ATOM      1  C   UNL     1      45.052   4.981  12.027  0.00  0.00    +0.000 A 
ATOM      2  C   UNL     1      46.203   4.766  12.786  0.00  0.00    +0.000 A 
ATOM      3  C   UNL     1      46.891   5.861  13.312  0.00  0.00    +0.000 A 
ATOM      4  C   UNL     1      46.443   7.170  13.076  0.00  0.00    +0.000 A 
ATOM      5  C   UNL     1      45.263   7.364  12.339  0.00  0.00    +0.000 A 
ATOM      6  C   UNL     1      44.567   6.273  11.817  0.00  0.00    +0.000 A 
ENDROOT
BRANCH   1   7
ATOM      7  S   UNL     1      44.200   3.598  11.329  0.00  0.00    +0.000 S 
ATOM      8  O   UNL     1      45.043   2.975  10.345  0.00  0.00    +0.000 OA
ATOM      9  O   UNL     1      42.827   3.974  11.065  0.00  0.00    +0.000 OA
BRANCH   7  10
ATOM     10  N   UNL     1      44.121   2.542  12.635  0.00  0.00    +0.000 NA
ATOM     11  H   UNL     1      45.072   2.282  12.903  0.00  0.00    +0.000 HD
ATOM     12  H   UNL     1      43.530   1.739  12.406  0.00  0.00    +0.000 HD
ENDBRANCH   7  10
ENDBRANCH   1   7
BRANCH   4  13
ATOM     13  C   UNL     1      47.228   8.358  13.580  0.00  0.00    +0.000 C 
BRANCH  13  14
ATOM     14  N   UNL     1      48.559   8.436  12.980  0.00  0.00    +0.000 N 
ATOM     15  C   UNL     1      48.799   8.844  11.689  0.00  0.00    +0.000 A 
ATOM     16  C   UNL     1      50.160   8.920  11.510  0.00  0.00    +0.000 A 
ATOM     17  C   UNL     1      50.780   8.559  12.736  0.00  0.00    +0.000 A 
ATOM     18  C   UNL     1      52.112   8.478  13.164  0.00  0.00    +0.000 A 
ATOM     19  N   UNL     1      52.412   8.109  14.433  0.00  0.00    +0.000 NA
ATOM     20  C   UNL     1      51.401   7.808  15.274  0.00  0.00    +0.000 A 
ATOM     21  C   UNL     1      50.053   7.850  14.948  0.00  0.00    +0.000 A 
ATOM     22  C   UNL     1      49.759   8.248  13.640  0.00  0.00    +0.000 A 
ENDBRANCH  13  14
ENDBRANCH   4  13
TORSDOF 4
ENDMDL
MODEL 9
REMARK VINA RESULT:    -5.052      5.086      6.812
REMARK INTER + INTRA:          -6.665
REMARK INTER:                  -6.219
REMARK INTRA:                  -0.447
REMARK UNBOUND:                -0.580
REMARK  Name = 
REMARK  4 active torsions:
REMARK  status: ('A' for Active; 'I' for Inactive)
REMARK    1  A    between atoms: N_1  and  S_2
REMARK    2  A    between atoms: S_2  and  C_5
REMARK    3  A    between atoms: C_8  and  C_9
REMARK    4  A    between atoms: C_9  and  N_10
REMARK                            x       y       z     vdW  Elec       q    Type
REMARK                         _______ _______ _______ _____ _____    ______ ____
ROOT
ATOM      1  C   UNL     1      48.982   7.796  13.790  0.00  0.00    +0.000 A 
ATOM      2  C   UNL     1      48.963   7.023  12.629  0.00  0.00    +0.000 A 
ATOM      3  C   UNL     1      47.808   6.996  11.844  0.00  0.00    +0.000 A 
ATOM      4  C   UNL     1      46.670   7.729  12.216  0.00  0.00    +0.000 A 
ATOM      5  C   UNL     1      46.723   8.528  13.371  0.00  0.00    +0.000 A 
ATOM      6  C   UNL     1      47.876   8.564  14.155  0.00  0.00    +0.000 A 
ENDROOT
BRANCH   1   7
ATOM      7  S   UNL     1      50.430   7.801  14.806  0.00  0.00    +0.000 S 
ATOM      8  O   UNL     1      51.557   8.216  14.015  0.00  0.00    +0.000 OA
ATOM      9  O   UNL     1      50.440   6.604  15.620  0.00  0.00    +0.000 OA
BRANCH   7  10
ATOM     10  N   UNL     1      50.100   9.056  15.875  0.00  0.00    +0.000 NA
ATOM     11  H   UNL     1      50.683   9.858  15.627  0.00  0.00    +0.000 HD
ATOM     12  H   UNL     1      50.232   8.742  16.840  0.00  0.00    +0.000 HD
ENDBRANCH   7  10
ENDBRANCH   1   7
BRANCH   4  13
ATOM     13  C   UNL     1      45.397   7.641  11.410  0.00  0.00    +0.000 C 
BRANCH  13  14
ATOM     14  N   UNL     1      45.142   6.286  10.924  0.00  0.00    +0.000 N 
ATOM     15  C   UNL     1      45.618   5.793   9.733  0.00  0.00    +0.000 A 
ATOM     16  C   UNL     1      45.298   4.457   9.663  0.00  0.00    +0.000 A 
ATOM     17  C   UNL     1      44.612   4.112  10.859  0.00  0.00    +0.000 A 
ATOM     18  C   UNL     1      44.077   2.919  11.361  0.00  0.00    +0.000 A 
ATOM     19  N   UNL     1      43.475   2.886  12.575  0.00  0.00    +0.000 NA
ATOM     20  C   UNL     1      43.392   4.029  13.286  0.00  0.00    +0.000 A 
ATOM     21  C   UNL     1      43.883   5.260  12.878  0.00  0.00    +0.000 A 
ATOM     22  C   UNL     1      44.514   5.275  11.630  0.00  0.00    +0.000 A 
ENDBRANCH  13  14
ENDBRANCH   4  13
TORSDOF 4
ENDMDL
