MODEL 1
REMARK VINA RESULT:    -7.880      0.000      0.000
REMARK INTER + INTRA:         -11.967
REMARK INTER:                 -10.644
REMARK INTRA:                  -1.322
REMARK UNBOUND:                -1.322
REMARK  Name = 
REMARK  7 active torsions:
REMARK  status: ('A' for Active; 'I' for Inactive)
REMARK    1  A    between atoms: C_1  and  C_2
REMARK    2  A    between atoms: C_2  and  N_3
REMARK    3  A    between atoms: C_2  and  C_16
REMARK    4  A    between atoms: C_4  and  C_6
REMARK    5  A    between atoms: C_19  and  C_20
REMARK    6  A    between atoms: C_20  and  N_21
REMARK    7  A    between atoms: C_22  and  C_24
REMARK                            x       y       z     vdW  Elec       q    Type
REMARK                         _______ _______ _______ _____ _____    ______ ____
ROOT
ATOM      1  C   UNL     1      45.417   9.214  13.161  0.00  0.00    +0.000 C 
ATOM      2  C   UNL     1      46.485   8.147  12.882  0.00  0.00    +0.000 C 
ENDROOT
BRANCH   2   3
ATOM      3  C   UNL     1      45.965   7.057  11.949  0.00  0.00    +0.000 A 
ATOM      4  C   UNL     1      44.809   6.332  12.283  0.00  0.00    +0.000 A 
ATOM      5  C   UNL     1      44.298   5.346  11.425  0.00  0.00    +0.000 A 
ATOM      6  C   UNL     1      44.933   5.049  10.212  0.00  0.00    +0.000 A 
ATOM      7  C   UNL     1      46.077   5.781   9.869  0.00  0.00    +0.000 A 
ATOM      8  C   UNL     1      46.589   6.767  10.725  0.00  0.00    +0.000 A 
BRANCH   6   9
ATOM      9  C   UNL     1      44.430   3.947   9.311  0.00  0.00    +0.000 C 
BRANCH   9  10
ATOM     10  N   UNL     1      45.315   3.641   8.218  0.00  0.00    +0.000 N 
ATOM     11  C   UNL     1      45.981   2.433   8.152  0.00  0.00    +0.000 C 
ATOM     12  O   UNL     1      45.868   1.554   9.004  0.00  0.00    +0.000 OA
ATOM     13  H   UNL     1      45.397   4.248   7.408  0.00  0.00    +0.000 HD
BRANCH  11  14
ATOM     14  C   UNL     1      46.843   2.285   6.966  0.00  0.00    +0.000 A 
ATOM     15  C   UNL     1      46.631   2.850   5.676  0.00  0.00    +0.000 A 
ATOM     16  C   UNL     1      47.683   2.418   4.906  0.00  0.00    +0.000 A 
ATOM     17  N   UNL     1      48.445   1.642   5.726  0.00  0.00    +0.000 N 
ATOM     18  N   UNL     1      47.975   1.550   6.982  0.00  0.00    +0.000 NA
ATOM     19  H   UNL     1      49.300   1.147   5.494  0.00  0.00    +0.000 HD
ENDBRANCH  11  14
ENDBRANCH   9  10
ENDBRANCH   6   9
ENDBRANCH   2   3
BRANCH   2  20
ATOM     20  N   UNL     1      46.989   7.549  14.110  0.00  0.00    +0.000 N 
ATOM     21  C   UNL     1      48.276   7.080  14.227  0.00  0.00    +0.000 C 
ATOM     22  O   UNL     1      49.103   7.178  13.324  0.00  0.00    +0.000 OA
ATOM     23  H   UNL     1      46.288   7.176  14.744  0.00  0.00    +0.000 HD
BRANCH  21  24
ATOM     24  C   UNL     1      48.647   6.496  15.518  0.00  0.00    +0.000 A 
ATOM     25  C   UNL     1      49.611   7.114  16.303  0.00  0.00    +0.000 A 
ATOM     26  S   UNL     1      49.950   6.277  17.751  0.00  0.00    +0.000 S 
ATOM     27  C   UNL     1      48.848   5.042  17.356  0.00  0.00    +0.000 A 
ATOM     28  N   UNL     1      48.685   3.962  18.165  0.00  0.00    +0.000 NA
ATOM     29  C   UNL     1      47.840   3.091  17.726  0.00  0.00    +0.000 A 
ATOM     30  N   UNL     1      47.125   3.211  16.565  0.00  0.00    +0.000 N 
ATOM     31  C   UNL     1      47.221   4.309  15.739  0.00  0.00    +0.000 A 
ATOM     32  O   UNL     1      46.513   4.428  14.747  0.00  0.00    +0.000 OA
ATOM     33  C   UNL     1      48.193   5.291  16.163  0.00  0.00    +0.000 A 
ATOM     34  H   UNL     1      46.456   2.508  16.289  0.00  0.00    +0.000 HD
ENDBRANCH  21  24
ENDBRANCH   2  20
TORSDOF 6
ENDMDL
MODEL 2
REMARK VINA RESULT:    -7.600      1.756      2.078
REMARK INTER + INTRA:         -11.588
REMARK INTER:                 -10.643
REMARK INTRA:                  -0.945
REMARK UNBOUND:                -1.322
REMARK  Name = 
REMARK  7 active torsions:
REMARK  status: ('A' for Active; 'I' for Inactive)
REMARK    1  A    between atoms: C_1  and  C_2
REMARK    2  A    between atoms: C_2  and  N_3
REMARK    3  A    between atoms: C_2  and  C_16
REMARK    4  A    between atoms: C_4  and  C_6
REMARK    5  A    between atoms: C_19  and  C_20
REMARK    6  A    between atoms: C_20  and  N_21
REMARK    7  A    between atoms: C_22  and  C_24
REMARK                            x       y       z     vdW  Elec       q    Type
REMARK                         _______ _______ _______ _____ _____    ______ ____
ROOT
ATOM      1  C   UNL     1      47.555   9.161  13.306  0.00  0.00    +0.000 C 
ATOM      2  C   UNL     1      47.916   7.709  13.650  0.00  0.00    +0.000 C 
ENDROOT
BRANCH   2   3
ATOM      3  C   UNL     1      46.991   6.716  12.951  0.00  0.00    +0.000 A 
ATOM      4  C   UNL     1      46.743   5.457  13.521  0.00  0.00    +0.000 A 
ATOM      5  C   UNL     1      45.873   4.542  12.908  0.00  0.00    +0.000 A 
ATOM      6  C   UNL     1      45.233   4.855  11.702  0.00  0.00    +0.000 A 
ATOM      7  C   UNL     1      45.466   6.116  11.139  0.00  0.00    +0.000 A 
ATOM      8  C   UNL     1      46.336   7.032  11.750  0.00  0.00    +0.000 A 
BRANCH   6   9
ATOM      9  C   UNL     1      44.346   3.855  11.001  0.00  0.00    +0.000 C 
BRANCH   9  10
ATOM     10  N   UNL     1      45.055   2.965  10.121  0.00  0.00    +0.000 N 
ATOM     11  C   UNL     1      45.339   3.322   8.817  0.00  0.00    +0.000 C 
ATOM     12  O   UNL     1      45.013   4.401   8.327  0.00  0.00    +0.000 OA
ATOM     13  H   UNL     1      45.465   2.097  10.452  0.00  0.00    +0.000 HD
BRANCH  11  14
ATOM     14  C   UNL     1      46.073   2.293   8.058  0.00  0.00    +0.000 A 
ATOM     15  C   UNL     1      46.886   2.495   6.906  0.00  0.00    +0.000 A 
ATOM     16  C   UNL     1      47.335   1.247   6.548  0.00  0.00    +0.000 A 
ATOM     17  N   UNL     1      46.796   0.387   7.456  0.00  0.00    +0.000 N 
ATOM     18  N   UNL     1      46.038   0.986   8.391  0.00  0.00    +0.000 NA
ATOM     19  H   UNL     1      46.904  -0.621   7.498  0.00  0.00    +0.000 HD
ENDBRANCH  11  14
ENDBRANCH   9  10
ENDBRANCH   6   9
ENDBRANCH   2   3
BRANCH   2  20
ATOM     20  N   UNL     1      47.902   7.471  15.087  0.00  0.00    +0.000 N 
ATOM     21  C   UNL     1      48.995   6.987  15.764  0.00  0.00    +0.000 C 
ATOM     22  O   UNL     1      50.073   6.770  15.217  0.00  0.00    +0.000 OA
ATOM     23  H   UNL     1      46.986   7.339  15.507  0.00  0.00    +0.000 HD
BRANCH  21  24
ATOM     24  C   UNL     1      48.838   6.788  17.207  0.00  0.00    +0.000 A 
ATOM     25  C   UNL     1      48.789   7.888  18.054  0.00  0.00    +0.000 A 
ATOM     26  S   UNL     1      48.647   7.472  19.702  0.00  0.00    +0.000 S 
ATOM     27  C   UNL     1      48.685   5.811  19.341  0.00  0.00    +0.000 A 
ATOM     28  N   UNL     1      48.653   4.876  20.328  0.00  0.00    +0.000 NA
ATOM     29  C   UNL     1      48.719   3.658  19.910  0.00  0.00    +0.000 A 
ATOM     30  N   UNL     1      48.790   3.284  18.595  0.00  0.00    +0.000 N 
ATOM     31  C   UNL     1      48.776   4.192  17.559  0.00  0.00    +0.000 A 
ATOM     32  O   UNL     1      48.760   3.830  16.390  0.00  0.00    +0.000 OA
ATOM     33  C   UNL     1      48.752   5.576  17.979  0.00  0.00    +0.000 A 
ATOM     34  H   UNL     1      48.810   2.311  18.329  0.00  0.00    +0.000 HD
ENDBRANCH  21  24
ENDBRANCH   2  20
TORSDOF 6
ENDMDL
MODEL 3
REMARK VINA RESULT:    -7.554      2.247      2.730
REMARK INTER + INTRA:         -11.526
REMARK INTER:                 -10.400
REMARK INTRA:                  -1.126
REMARK UNBOUND:                -1.322
REMARK  Name = 
REMARK  7 active torsions:
REMARK  status: ('A' for Active; 'I' for Inactive)
REMARK    1  A    between atoms: C_1  and  C_2
REMARK    2  A    between atoms: C_2  and  N_3
REMARK    3  A    between atoms: C_2  and  C_16
REMARK    4  A    between atoms: C_4  and  C_6
REMARK    5  A    between atoms: C_19  and  C_20
REMARK    6  A    between atoms: C_20  and  N_21
REMARK    7  A    between atoms: C_22  and  C_24
REMARK                            x       y       z     vdW  Elec       q    Type
REMARK                         _______ _______ _______ _____ _____    ______ ____
ROOT
ATOM      1  C   UNL     1      47.157   9.052  13.687  0.00  0.00    +0.000 C 
ATOM      2  C   UNL     1      47.687   7.611  13.728  0.00  0.00    +0.000 C 
ENDROOT
BRANCH   2   3
ATOM      3  C   UNL     1      46.788   6.657  12.947  0.00  0.00    +0.000 A 
ATOM      4  C   UNL     1      46.490   5.384  13.460  0.00  0.00    +0.000 A 
ATOM      5  C   UNL     1      45.642   4.503  12.771  0.00  0.00    +0.000 A 
ATOM      6  C   UNL     1      45.074   4.865  11.543  0.00  0.00    +0.000 A 
ATOM      7  C   UNL     1      45.357   6.140  11.035  0.00  0.00    +0.000 A 
ATOM      8  C   UNL     1      46.204   7.022  11.723  0.00  0.00    +0.000 A 
BRANCH   6   9
ATOM      9  C   UNL     1      44.213   3.903  10.761  0.00  0.00    +0.000 C 
BRANCH   9  10
ATOM     10  N   UNL     1      44.961   2.984   9.945  0.00  0.00    +0.000 N 
ATOM     11  C   UNL     1      45.354   3.318   8.664  0.00  0.00    +0.000 C 
ATOM     12  O   UNL     1      45.097   4.400   8.141  0.00  0.00    +0.000 OA
ATOM     13  H   UNL     1      45.320   2.109  10.314  0.00  0.00    +0.000 HD
BRANCH  11  14
ATOM     14  C   UNL     1      46.113   2.261   7.972  0.00  0.00    +0.000 A 
ATOM     15  C   UNL     1      46.971   2.419   6.846  0.00  0.00    +0.000 A 
ATOM     16  C   UNL     1      47.429   1.158   6.552  0.00  0.00    +0.000 A 
ATOM     17  N   UNL     1      46.851   0.333   7.468  0.00  0.00    +0.000 N 
ATOM     18  N   UNL     1      46.060   0.967   8.350  0.00  0.00    +0.000 NA
ATOM     19  H   UNL     1      46.954  -0.673   7.550  0.00  0.00    +0.000 HD
ENDBRANCH  11  14
ENDBRANCH   9  10
ENDBRANCH   6   9
ENDBRANCH   2   3
BRANCH   2  20
ATOM     20  N   UNL     1      47.850   7.131  15.093  0.00  0.00    +0.000 N 
ATOM     21  C   UNL     1      49.076   6.794  15.614  0.00  0.00    +0.000 C 
ATOM     22  O   UNL     1      50.123   6.921  14.985  0.00  0.00    +0.000 OA
ATOM     23  H   UNL     1      47.023   6.728  15.525  0.00  0.00    +0.000 HD
BRANCH  21  24
ATOM     24  C   UNL     1      49.093   6.318  17.000  0.00  0.00    +0.000 A 
ATOM     25  C   UNL     1      49.613   5.064  17.292  0.00  0.00    +0.000 A 
ATOM     26  S   UNL     1      49.514   4.654  18.945  0.00  0.00    +0.000 S 
ATOM     27  C   UNL     1      48.738   6.122  19.316  0.00  0.00    +0.000 A 
ATOM     28  N   UNL     1      48.322   6.395  20.582  0.00  0.00    +0.000 NA
ATOM     29  C   UNL     1      47.723   7.531  20.711  0.00  0.00    +0.000 A 
ATOM     30  N   UNL     1      47.522   8.429  19.698  0.00  0.00    +0.000 N 
ATOM     31  C   UNL     1      47.969   8.217  18.412  0.00  0.00    +0.000 A 
ATOM     32  O   UNL     1      47.846   9.071  17.543  0.00  0.00    +0.000 OA
ATOM     33  C   UNL     1      48.604   6.935  18.206  0.00  0.00    +0.000 A 
ATOM     34  H   UNL     1      47.071   9.315  19.868  0.00  0.00    +0.000 HD
ENDBRANCH  21  24
ENDBRANCH   2  20
TORSDOF 6
ENDMDL
MODEL 4
REMARK VINA RESULT:    -7.422      3.681      8.131
REMARK INTER + INTRA:         -11.347
REMARK INTER:                 -10.239
REMARK INTRA:                  -1.108
REMARK UNBOUND:                -1.322
REMARK  Name = 
REMARK  7 active torsions:
REMARK  status: ('A' for Active; 'I' for Inactive)
REMARK    1  A    between atoms: C_1  and  C_2
REMARK    2  A    between atoms: C_2  and  N_3
REMARK    3  A    between atoms: C_2  and  C_16
REMARK    4  A    between atoms: C_4  and  C_6
REMARK    5  A    between atoms: C_19  and  C_20
REMARK    6  A    between atoms: C_20  and  N_21
REMARK    7  A    between atoms: C_22  and  C_24
REMARK                            x       y       z     vdW  Elec       q    Type
REMARK                         _______ _______ _______ _____ _____    ______ ____
ROOT
ATOM      1  C   UNL     1      49.430   8.543  11.388  0.00  0.00    +0.000 C 
ATOM      2  C   UNL     1      48.346   7.952  12.300  0.00  0.00    +0.000 C 
ENDROOT
BRANCH   2   3
ATOM      3  C   UNL     1      48.921   7.496  13.639  0.00  0.00    +0.000 A 
ATOM      4  C   UNL     1      48.168   6.667  14.487  0.00  0.00    +0.000 A 
ATOM      5  C   UNL     1      48.690   6.213  15.708  0.00  0.00    +0.000 A 
ATOM      6  C   UNL     1      49.977   6.581  16.121  0.00  0.00    +0.000 A 
ATOM      7  C   UNL     1      50.737   7.395  15.270  0.00  0.00    +0.000 A 
ATOM      8  C   UNL     1      50.216   7.850  14.049  0.00  0.00    +0.000 A 
BRANCH   6   9
ATOM      9  C   UNL     1      50.526   6.152  17.461  0.00  0.00    +0.000 C 
BRANCH   9  10
ATOM     10  N   UNL     1      51.220   4.892  17.428  0.00  0.00    +0.000 N 
ATOM     11  C   UNL     1      50.580   3.713  17.757  0.00  0.00    +0.000 C 
ATOM     12  O   UNL     1      49.399   3.658  18.093  0.00  0.00    +0.000 OA
ATOM     13  H   UNL     1      52.162   4.808  17.061  0.00  0.00    +0.000 HD
BRANCH  11  14
ATOM     14  C   UNL     1      51.438   2.518  17.668  0.00  0.00    +0.000 A 
ATOM     15  C   UNL     1      52.802   2.411  18.062  0.00  0.00    +0.000 A 
ATOM     16  C   UNL     1      53.171   1.121  17.769  0.00  0.00    +0.000 A 
ATOM     17  N   UNL     1      52.066   0.535  17.231  0.00  0.00    +0.000 N 
ATOM     18  N   UNL     1      50.995   1.345  17.167  0.00  0.00    +0.000 NA
ATOM     19  H   UNL     1      51.971  -0.416  16.889  0.00  0.00    +0.000 HD
ENDBRANCH  11  14
ENDBRANCH   9  10
ENDBRANCH   6   9
ENDBRANCH   2   3
BRANCH   2  20
ATOM     20  N   UNL     1      47.641   6.849  11.663  0.00  0.00    +0.000 N 
ATOM     21  C   UNL     1      46.282   6.864  11.455  0.00  0.00    +0.000 C 
ATOM     22  O   UNL     1      45.577   7.826  11.746  0.00  0.00    +0.000 OA
ATOM     23  H   UNL     1      48.107   5.946  11.693  0.00  0.00    +0.000 HD
BRANCH  21  24
ATOM     24  C   UNL     1      45.703   5.683  10.809  0.00  0.00    +0.000 A 
ATOM     25  C   UNL     1      45.806   5.531   9.432  0.00  0.00    +0.000 A 
ATOM     26  S   UNL     1      45.041   4.124   8.845  0.00  0.00    +0.000 S 
ATOM     27  C   UNL     1      44.516   3.694  10.404  0.00  0.00    +0.000 A 
ATOM     28  N   UNL     1      43.745   2.593  10.607  0.00  0.00    +0.000 NA
ATOM     29  C   UNL     1      43.396   2.406  11.835  0.00  0.00    +0.000 A 
ATOM     30  N   UNL     1      43.764   3.206  12.883  0.00  0.00    +0.000 N 
ATOM     31  C   UNL     1      44.582   4.303  12.734  0.00  0.00    +0.000 A 
ATOM     32  O   UNL     1      44.962   4.956  13.698  0.00  0.00    +0.000 OA
ATOM     33  C   UNL     1      44.962   4.583  11.367  0.00  0.00    +0.000 A 
ATOM     34  H   UNL     1      43.481   2.991  13.828  0.00  0.00    +0.000 HD
ENDBRANCH  21  24
ENDBRANCH   2  20
TORSDOF 6
ENDMDL
MODEL 5
REMARK VINA RESULT:    -7.220      2.590      4.091
REMARK INTER + INTRA:         -11.076
REMARK INTER:                  -9.895
REMARK INTRA:                  -1.181
REMARK UNBOUND:                -1.322
REMARK  Name = 
REMARK  7 active torsions:
REMARK  status: ('A' for Active; 'I' for Inactive)
REMARK    1  A    between atoms: C_1  and  C_2
REMARK    2  A    between atoms: C_2  and  N_3
REMARK    3  A    between atoms: C_2  and  C_16
REMARK    4  A    between atoms: C_4  and  C_6
REMARK    5  A    between atoms: C_19  and  C_20
REMARK    6  A    between atoms: C_20  and  N_21
REMARK    7  A    between atoms: C_22  and  C_24
REMARK                            x       y       z     vdW  Elec       q    Type
REMARK                         _______ _______ _______ _____ _____    ______ ____
ROOT
ATOM      1  C   UNL     1      47.203   4.389  15.410  0.00  0.00    +0.000 C 
ATOM      2  C   UNL     1      47.135   5.587  14.452  0.00  0.00    +0.000 C 
ENDROOT
BRANCH   2   3
ATOM      3  C   UNL     1      46.429   5.227  13.147  0.00  0.00    +0.000 A 
ATOM      4  C   UNL     1      45.787   3.986  13.009  0.00  0.00    +0.000 A 
ATOM      5  C   UNL     1      45.107   3.647  11.828  0.00  0.00    +0.000 A 
ATOM      6  C   UNL     1      45.056   4.538  10.748  0.00  0.00    +0.000 A 
ATOM      7  C   UNL     1      45.683   5.783  10.888  0.00  0.00    +0.000 A 
ATOM      8  C   UNL     1      46.363   6.122  12.068  0.00  0.00    +0.000 A 
BRANCH   6   9
ATOM      9  C   UNL     1      44.384   4.161   9.450  0.00  0.00    +0.000 C 
BRANCH   9  10
ATOM     10  N   UNL     1      45.303   3.853   8.387  0.00  0.00    +0.000 N 
ATOM     11  C   UNL     1      45.810   2.579   8.225  0.00  0.00    +0.000 C 
ATOM     12  O   UNL     1      45.521   1.639   8.962  0.00  0.00    +0.000 OA
ATOM     13  H   UNL     1      45.524   4.524   7.658  0.00  0.00    +0.000 HD
BRANCH  11  14
ATOM     14  C   UNL     1      46.735   2.440   7.085  0.00  0.00    +0.000 A 
ATOM     15  C   UNL     1      46.612   3.047   5.803  0.00  0.00    +0.000 A 
ATOM     16  C   UNL     1      47.694   2.606   5.081  0.00  0.00    +0.000 A 
ATOM     17  N   UNL     1      48.388   1.788   5.919  0.00  0.00    +0.000 N 
ATOM     18  N   UNL     1      47.845   1.674   7.144  0.00  0.00    +0.000 NA
ATOM     19  H   UNL     1      49.242   1.276   5.722  0.00  0.00    +0.000 HD
ENDBRANCH  11  14
ENDBRANCH   9  10
ENDBRANCH   6   9
ENDBRANCH   2   3
BRANCH   2  20
ATOM     20  N   UNL     1      48.456   6.130  14.166  0.00  0.00    +0.000 N 
ATOM     21  C   UNL     1      48.943   7.251  14.794  0.00  0.00    +0.000 C 
ATOM     22  O   UNL     1      48.322   7.843  15.672  0.00  0.00    +0.000 OA
ATOM     23  H   UNL     1      48.856   5.877  13.266  0.00  0.00    +0.000 HD
BRANCH  21  24
ATOM     24  C   UNL     1      50.285   7.691  14.403  0.00  0.00    +0.000 A 
ATOM     25  C   UNL     1      51.331   7.602  15.312  0.00  0.00    +0.000 A 
ATOM     26  S   UNL     1      52.811   8.197  14.707  0.00  0.00    +0.000 S 
ATOM     27  C   UNL     1      52.093   8.628  13.227  0.00  0.00    +0.000 A 
ATOM     28  N   UNL     1      52.811   9.248  12.253  0.00  0.00    +0.000 NA
ATOM     29  C   UNL     1      52.130   9.543  11.197  0.00  0.00    +0.000 A 
ATOM     30  N   UNL     1      50.805   9.255  11.014  0.00  0.00    +0.000 N 
ATOM     31  C   UNL     1      50.050   8.585  11.951  0.00  0.00    +0.000 A 
ATOM     32  O   UNL     1      48.888   8.269  11.731  0.00  0.00    +0.000 OA
ATOM     33  C   UNL     1      50.756   8.275  13.175  0.00  0.00    +0.000 A 
ATOM     34  H   UNL     1      50.335   9.486  10.152  0.00  0.00    +0.000 HD
ENDBRANCH  21  24
ENDBRANCH   2  20
TORSDOF 6
ENDMDL
MODEL 6
REMARK VINA RESULT:    -6.836      4.717      9.321
REMARK INTER + INTRA:         -10.556
REMARK INTER:                  -9.680
REMARK INTRA:                  -0.876
REMARK UNBOUND:                -1.322
REMARK  Name = 
REMARK  7 active torsions:
REMARK  status: ('A' for Active; 'I' for Inactive)
REMARK    1  A    between atoms: C_1  and  C_2
REMARK    2  A    between atoms: C_2  and  N_3
REMARK    3  A    between atoms: C_2  and  C_16
REMARK    4  A    between atoms: C_4  and  C_6
REMARK    5  A    between atoms: C_19  and  C_20
REMARK    6  A    between atoms: C_20  and  N_21
REMARK    7  A    between atoms: C_22  and  C_24
REMARK                            x       y       z     vdW  Elec       q    Type
REMARK                         _______ _______ _______ _____ _____    ______ ____
ROOT
ATOM      1  C   UNL     1      47.050   5.137  18.536  0.00  0.00    +0.000 C 
ATOM      2  C   UNL     1      47.546   4.375  17.299  0.00  0.00    +0.000 C 
ENDROOT
BRANCH   2   3
ATOM      3  C   UNL     1      49.031   4.036  17.402  0.00  0.00    +0.000 A 
ATOM      4  C   UNL     1      49.973   5.049  17.644  0.00  0.00    +0.000 A 
ATOM      5  C   UNL     1      51.339   4.754  17.771  0.00  0.00    +0.000 A 
ATOM      6  C   UNL     1      51.805   3.438  17.652  0.00  0.00    +0.000 A 
ATOM      7  C   UNL     1      50.866   2.423  17.427  0.00  0.00    +0.000 A 
ATOM      8  C   UNL     1      49.499   2.717  17.299  0.00  0.00    +0.000 A 
BRANCH   6   9
ATOM      9  C   UNL     1      53.278   3.116  17.724  0.00  0.00    +0.000 C 
BRANCH   9  10
ATOM     10  N   UNL     1      53.577   1.720  17.547  0.00  0.00    +0.000 N 
ATOM     11  C   UNL     1      54.085   0.960  18.583  0.00  0.00    +0.000 C 
ATOM     12  O   UNL     1      54.313   1.412  19.702  0.00  0.00    +0.000 OA
ATOM     13  H   UNL     1      53.327   1.221  16.700  0.00  0.00    +0.000 HD
BRANCH  11  14
ATOM     14  C   UNL     1      54.331  -0.450  18.229  0.00  0.00    +0.000 A 
ATOM     15  C   UNL     1      55.080  -0.937  17.120  0.00  0.00    +0.000 A 
ATOM     16  C   UNL     1      55.009  -2.307  17.199  0.00  0.00    +0.000 A 
ATOM     17  N   UNL     1      54.252  -2.573  18.299  0.00  0.00    +0.000 N 
ATOM     18  N   UNL     1      53.836  -1.475  18.954  0.00  0.00    +0.000 NA
ATOM     19  H   UNL     1      53.981  -3.481  18.662  0.00  0.00    +0.000 HD
ENDBRANCH  11  14
ENDBRANCH   9  10
ENDBRANCH   6   9
ENDBRANCH   2   3
BRANCH   2  20
ATOM     20  N   UNL     1      47.291   5.111  16.069  0.00  0.00    +0.000 N 
ATOM     21  C   UNL     1      47.177   4.489  14.848  0.00  0.00    +0.000 C 
ATOM     22  O   UNL     1      47.232   3.270  14.716  0.00  0.00    +0.000 OA
ATOM     23  H   UNL     1      47.542   6.096  16.079  0.00  0.00    +0.000 HD
BRANCH  21  24
ATOM     24  C   UNL     1      46.927   5.354  13.692  0.00  0.00    +0.000 A 
ATOM     25  C   UNL     1      47.903   6.251  13.279  0.00  0.00    +0.000 A 
ATOM     26  S   UNL     1      47.429   7.206  11.947  0.00  0.00    +0.000 S 
ATOM     27  C   UNL     1      45.892   6.478  11.904  0.00  0.00    +0.000 A 
ATOM     28  N   UNL     1      44.949   6.880  11.011  0.00  0.00    +0.000 NA
ATOM     29  C   UNL     1      43.822   6.261  11.113  0.00  0.00    +0.000 A 
ATOM     30  N   UNL     1      43.555   5.262  12.010  0.00  0.00    +0.000 N 
ATOM     31  C   UNL     1      44.494   4.789  12.901  0.00  0.00    +0.000 A 
ATOM     32  O   UNL     1      44.256   3.841  13.638  0.00  0.00    +0.000 OA
ATOM     33  C   UNL     1      45.761   5.485  12.858  0.00  0.00    +0.000 A 
ATOM     34  H   UNL     1      42.661   4.796  12.022  0.00  0.00    +0.000 HD
ENDBRANCH  21  24
ENDBRANCH   2  20
TORSDOF 6
ENDMDL
MODEL 7
REMARK VINA RESULT:    -6.645      4.826      9.489
REMARK INTER + INTRA:         -10.298
REMARK INTER:                  -9.201
REMARK INTRA:                  -1.097
REMARK UNBOUND:                -1.322
REMARK  Name = 
REMARK  7 active torsions:
REMARK  status: ('A' for Active; 'I' for Inactive)
REMARK    1  A    between atoms: C_1  and  C_2
REMARK    2  A    between atoms: C_2  and  N_3
REMARK    3  A    between atoms: C_2  and  C_16
REMARK    4  A    between atoms: C_4  and  C_6
REMARK    5  A    between atoms: C_19  and  C_20
REMARK    6  A    between atoms: C_20  and  N_21
REMARK    7  A    between atoms: C_22  and  C_24
REMARK                            x       y       z     vdW  Elec       q    Type
REMARK                         _______ _______ _______ _____ _____    ______ ____
ROOT
ATOM      1  C   UNL     1      47.113   5.166  18.548  0.00  0.00    +0.000 C 
ATOM      2  C   UNL     1      47.572   4.368  17.319  0.00  0.00    +0.000 C 
ENDROOT
BRANCH   2   3
ATOM      3  C   UNL     1      48.995   3.842  17.487  0.00  0.00    +0.000 A 
ATOM      4  C   UNL     1      49.295   2.503  17.187  0.00  0.00    +0.000 A 
ATOM      5  C   UNL     1      50.603   2.008  17.307  0.00  0.00    +0.000 A 
ATOM      6  C   UNL     1      51.648   2.835  17.738  0.00  0.00    +0.000 A 
ATOM      7  C   UNL     1      51.356   4.175  18.023  0.00  0.00    +0.000 A 
ATOM      8  C   UNL     1      50.049   4.671  17.904  0.00  0.00    +0.000 A 
BRANCH   6   9
ATOM      9  C   UNL     1      53.046   2.298  17.932  0.00  0.00    +0.000 C 
BRANCH   9  10
ATOM     10  N   UNL     1      53.091   0.895  18.248  0.00  0.00    +0.000 N 
ATOM     11  C   UNL     1      54.238   0.152  18.045  0.00  0.00    +0.000 C 
ATOM     12  O   UNL     1      55.277   0.625  17.589  0.00  0.00    +0.000 OA
ATOM     13  H   UNL     1      52.329   0.429  18.728  0.00  0.00    +0.000 HD
BRANCH  11  14
ATOM     14  C   UNL     1      54.110  -1.267  18.424  0.00  0.00    +0.000 A 
ATOM     15  C   UNL     1      54.951  -2.342  18.017  0.00  0.00    +0.000 A 
ATOM     16  C   UNL     1      54.424  -3.466  18.606  0.00  0.00    +0.000 A 
ATOM     17  N   UNL     1      53.336  -3.039  19.305  0.00  0.00    +0.000 N 
ATOM     18  N   UNL     1      53.123  -1.714  19.228  0.00  0.00    +0.000 NA
ATOM     19  H   UNL     1      52.694  -3.599  19.857  0.00  0.00    +0.000 HD
ENDBRANCH  11  14
ENDBRANCH   9  10
ENDBRANCH   6   9
ENDBRANCH   2   3
BRANCH   2  20
ATOM     20  N   UNL     1      47.475   5.151  16.095  0.00  0.00    +0.000 N 
ATOM     21  C   UNL     1      47.287   4.571  14.863  0.00  0.00    +0.000 C 
ATOM     22  O   UNL     1      47.139   3.362  14.713  0.00  0.00    +0.000 OA
ATOM     23  H   UNL     1      47.888   6.079  16.126  0.00  0.00    +0.000 HD
BRANCH  21  24
ATOM     24  C   UNL     1      47.215   5.479  13.715  0.00  0.00    +0.000 A 
ATOM     25  C   UNL     1      46.186   5.343  12.793  0.00  0.00    +0.000 A 
ATOM     26  S   UNL     1      46.280   6.452  11.500  0.00  0.00    +0.000 S 
ATOM     27  C   UNL     1      47.718   7.123  12.111  0.00  0.00    +0.000 A 
ATOM     28  N   UNL     1      48.373   8.110  11.442  0.00  0.00    +0.000 NA
ATOM     29  C   UNL     1      49.465   8.502  12.006  0.00  0.00    +0.000 A 
ATOM     30  N   UNL     1      49.952   8.016  13.190  0.00  0.00    +0.000 N 
ATOM     31  C   UNL     1      49.299   7.053  13.927  0.00  0.00    +0.000 A 
ATOM     32  O   UNL     1      49.714   6.693  15.021  0.00  0.00    +0.000 OA
ATOM     33  C   UNL     1      48.093   6.546  13.311  0.00  0.00    +0.000 A 
ATOM     34  H   UNL     1      50.799   8.385  13.596  0.00  0.00    +0.000 HD
ENDBRANCH  21  24
ENDBRANCH   2  20
TORSDOF 6
ENDMDL
MODEL 8
REMARK VINA RESULT:    -6.386      3.356      4.376
REMARK INTER + INTRA:          -9.948
REMARK INTER:                  -8.898
REMARK INTRA:                  -1.050
REMARK UNBOUND:                -1.322
REMARK  Name = 
REMARK  7 active torsions:
REMARK  status: ('A' for Active; 'I' for Inactive)
REMARK    1  A    between atoms: C_1  and  C_2
REMARK    2  A    between atoms: C_2  and  N_3
REMARK    3  A    between atoms: C_2  and  C_16
REMARK    4  A    between atoms: C_4  and  C_6
REMARK    5  A    between atoms: C_19  and  C_20
REMARK    6  A    between atoms: C_20  and  N_21
REMARK    7  A    between atoms: C_22  and  C_24
REMARK                            x       y       z     vdW  Elec       q    Type
REMARK                         _______ _______ _______ _____ _____    ______ ____
ROOT
ATOM      1  C   UNL     1      49.300  10.048  14.257  0.00  0.00    +0.000 C 
ATOM      2  C   UNL     1      48.872   8.644  14.707  0.00  0.00    +0.000 C 
ENDROOT
BRANCH   2   3
ATOM      3  C   UNL     1      47.851   8.031  13.752  0.00  0.00    +0.000 A 
ATOM      4  C   UNL     1      48.070   6.758  13.203  0.00  0.00    +0.000 A 
ATOM      5  C   UNL     1      47.129   6.165  12.346  0.00  0.00    +0.000 A 
ATOM      6  C   UNL     1      45.945   6.832  12.006  0.00  0.00    +0.000 A 
ATOM      7  C   UNL     1      45.716   8.096  12.565  0.00  0.00    +0.000 A 
ATOM      8  C   UNL     1      46.656   8.690  13.421  0.00  0.00    +0.000 A 
BRANCH   6   9
ATOM      9  C   UNL     1      44.956   6.233  11.036  0.00  0.00    +0.000 C 
BRANCH   9  10
ATOM     10  N   UNL     1      45.568   5.486   9.969  0.00  0.00    +0.000 N 
ATOM     11  C   UNL     1      44.985   4.336   9.474  0.00  0.00    +0.000 C 
ATOM     12  O   UNL     1      43.926   3.879   9.900  0.00  0.00    +0.000 OA
ATOM     13  H   UNL     1      46.383   5.830   9.472  0.00  0.00    +0.000 HD
BRANCH  11  14
ATOM     14  C   UNL     1      45.744   3.699   8.382  0.00  0.00    +0.000 A 
ATOM     15  C   UNL     1      45.859   2.304   8.119  0.00  0.00    +0.000 A 
ATOM     16  C   UNL     1      46.678   2.202   7.021  0.00  0.00    +0.000 A 
ATOM     17  N   UNL     1      47.009   3.481   6.688  0.00  0.00    +0.000 N 
ATOM     18  N   UNL     1      46.451   4.412   7.481  0.00  0.00    +0.000 NA
ATOM     19  H   UNL     1      47.609   3.790   5.931  0.00  0.00    +0.000 HD
ENDBRANCH  11  14
ENDBRANCH   9  10
ENDBRANCH   6   9
ENDBRANCH   2   3
BRANCH   2  20
ATOM     20  N   UNL     1      48.343   8.645  16.063  0.00  0.00    +0.000 N 
ATOM     21  C   UNL     1      49.049   8.143  17.130  0.00  0.00    +0.000 C 
ATOM     22  O   UNL     1      50.192   7.706  17.024  0.00  0.00    +0.000 OA
ATOM     23  H   UNL     1      47.331   8.700  16.147  0.00  0.00    +0.000 HD
BRANCH  21  24
ATOM     24  C   UNL     1      48.392   8.202  18.439  0.00  0.00    +0.000 A 
ATOM     25  C   UNL     1      48.316   7.059  19.224  0.00  0.00    +0.000 A 
ATOM     26  S   UNL     1      47.482   7.297  20.693  0.00  0.00    +0.000 S 
ATOM     27  C   UNL     1      47.162   8.923  20.309  0.00  0.00    +0.000 A 
ATOM     28  N   UNL     1      46.424   9.708  21.138  0.00  0.00    +0.000 NA
ATOM     29  C   UNL     1      46.236  10.909  20.706  0.00  0.00    +0.000 A 
ATOM     30  N   UNL     1      46.736  11.406  19.533  0.00  0.00    +0.000 N 
ATOM     31  C   UNL     1      47.528  10.664  18.685  0.00  0.00    +0.000 A 
ATOM     32  O   UNL     1      48.029  11.155  17.682  0.00  0.00    +0.000 OA
ATOM     33  C   UNL     1      47.728   9.294  19.103  0.00  0.00    +0.000 A 
ATOM     34  H   UNL     1      46.578  12.365  19.263  0.00  0.00    +0.000 HD
ENDBRANCH  21  24
ENDBRANCH   2  20
TORSDOF 6
ENDMDL
MODEL 9
REMARK VINA RESULT:    -6.098      2.521      3.467
REMARK INTER + INTRA:          -9.560
REMARK INTER:                  -8.555
REMARK INTRA:                  -1.005
REMARK UNBOUND:                -1.322
REMARK  Name = 
REMARK  7 active torsions:
REMARK  status: ('A' for Active; 'I' for Inactive)
REMARK    1  A    between atoms: C_1  and  C_2
REMARK    2  A    between atoms: C_2  and  N_3
REMARK    3  A    between atoms: C_2  and  C_16
REMARK    4  A    between atoms: C_4  and  C_6
REMARK    5  A    between atoms: C_19  and  C_20
REMARK    6  A    between atoms: C_20  and  N_21
REMARK    7  A    between atoms: C_22  and  C_24
REMARK                            x       y       z     vdW  Elec       q    Type
REMARK                         _______ _______ _______ _____ _____    ______ ____
ROOT
ATOM      1  C   UNL     1      49.013  10.401  15.213  0.00  0.00    +0.000 C 
ATOM      2  C   UNL     1      49.100   8.942  14.742  0.00  0.00    +0.000 C 
ENDROOT
BRANCH   2   3
ATOM      3  C   UNL     1      47.934   8.573  13.828  0.00  0.00    +0.000 A 
ATOM      4  C   UNL     1      47.636   7.225  13.571  0.00  0.00    +0.000 A 
ATOM      5  C   UNL     1      46.551   6.865  12.757  0.00  0.00    +0.000 A 
ATOM      6  C   UNL     1      45.737   7.842  12.169  0.00  0.00    +0.000 A 
ATOM      7  C   UNL     1      46.022   9.187  12.437  0.00  0.00    +0.000 A 
ATOM      8  C   UNL     1      47.107   9.549  13.250  0.00  0.00    +0.000 A 
BRANCH   6   9
ATOM      9  C   UNL     1      44.606   7.469  11.241  0.00  0.00    +0.000 C 
BRANCH   9  10
ATOM     10  N   UNL     1      44.752   6.170  10.640  0.00  0.00    +0.000 N 
ATOM     11  C   UNL     1      43.747   5.226  10.722  0.00  0.00    +0.000 C 
ATOM     12  O   UNL     1      42.681   5.424  11.301  0.00  0.00    +0.000 OA
ATOM     13  H   UNL     1      45.543   5.938  10.048  0.00  0.00    +0.000 HD
BRANCH  11  14
ATOM     14  C   UNL     1      44.062   3.952  10.050  0.00  0.00    +0.000 A 
ATOM     15  C   UNL     1      44.613   3.783   8.748  0.00  0.00    +0.000 A 
ATOM     16  C   UNL     1      44.704   2.426   8.559  0.00  0.00    +0.000 A 
ATOM     17  N   UNL     1      44.223   1.861   9.701  0.00  0.00    +0.000 N 
ATOM     18  N   UNL     1      43.838   2.754  10.630  0.00  0.00    +0.000 NA
ATOM     19  H   UNL     1      44.130   0.874   9.915  0.00  0.00    +0.000 HD
ENDBRANCH  11  14
ENDBRANCH   9  10
ENDBRANCH   6   9
ENDBRANCH   2   3
BRANCH   2  20
ATOM     20  N   UNL     1      49.165   8.013  15.861  0.00  0.00    +0.000 N 
ATOM     21  C   UNL     1      50.270   7.235  16.110  0.00  0.00    +0.000 C 
ATOM     22  O   UNL     1      51.296   7.305  15.438  0.00  0.00    +0.000 OA
ATOM     23  H   UNL     1      48.272   7.703  16.235  0.00  0.00    +0.000 HD
BRANCH  21  24
ATOM     24  C   UNL     1      50.196   6.339  17.266  0.00  0.00    +0.000 A 
ATOM     25  C   UNL     1      51.056   6.526  18.340  0.00  0.00    +0.000 A 
ATOM     26  S   UNL     1      50.861   5.368  19.578  0.00  0.00    +0.000 S 
ATOM     27  C   UNL     1      49.649   4.558  18.702  0.00  0.00    +0.000 A 
ATOM     28  N   UNL     1      49.076   3.422  19.182  0.00  0.00    +0.000 NA
ATOM     29  C   UNL     1      48.194   2.899  18.398  0.00  0.00    +0.000 A 
ATOM     30  N   UNL     1      47.814   3.419  17.190  0.00  0.00    +0.000 N 
ATOM     31  C   UNL     1      48.331   4.592  16.687  0.00  0.00    +0.000 A 
ATOM     32  O   UNL     1      47.917   5.077  15.641  0.00  0.00    +0.000 OA
ATOM     33  C   UNL     1      49.360   5.191  17.507  0.00  0.00    +0.000 A 
ATOM     34  H   UNL     1      47.096   2.978  16.635  0.00  0.00    +0.000 HD
ENDBRANCH  21  24
ENDBRANCH   2  20
TORSDOF 6
ENDMDL
