MODEL 1
REMARK VINA RESULT:    -7.973      0.000      0.000
REMARK INTER + INTRA:         -12.606
REMARK INTER:                 -11.702
REMARK INTRA:                  -0.905
REMARK UNBOUND:                -0.905
REMARK  Name = 
REMARK  10 active torsions:
REMARK  status: ('A' for Active; 'I' for Inactive)
REMARK    1  A    between atoms: C_1  and  N_2
REMARK    2  A    between atoms: N_2  and  C_3
REMARK    3  A    between atoms: N_2  and  C_4
REMARK    4  A    between atoms: C_4  and  C_5
REMARK    5  A    between atoms: C_7  and  C_8
REMARK    6  A    between atoms: C_8  and  N_9
REMARK    7  A    between atoms: C_10  and  C_12
REMARK    8  A    between atoms: C_24  and  C_25
REMARK    9  A    between atoms: C_25  and  N_26
REMARK   10  A    between atoms: C_27  and  C_29
REMARK                            x       y       z     vdW  Elec       q    Type
REMARK                         _______ _______ _______ _____ _____    ______ ____
ROOT
ATOM      1  C   UNL     1      44.708   5.428  12.073  0.00  0.00    +0.000 A 
ATOM      2  C   UNL     1      45.421   6.288  12.937  0.00  0.00    +0.000 A 
ATOM      3  C   UNL     1      46.426   7.145  12.474  0.00  0.00    +0.000 A 
ATOM      4  C   UNL     1      46.744   7.123  11.116  0.00  0.00    +0.000 A 
ATOM      5  C   UNL     1      46.050   6.278  10.241  0.00  0.00    +0.000 A 
ATOM      6  C   UNL     1      45.018   5.432  10.696  0.00  0.00    +0.000 A 
ENDROOT
BRANCH   1   7
ATOM      7  C   UNL     1      43.629   4.566  12.705  0.00  0.00    +0.000 C 
BRANCH   7   9
ATOM      8  C   UNL     1      43.253   2.270  11.953  0.00  0.00    +0.000 C 
ATOM      9  N   UNL     1      43.970   3.143  12.883  0.00  0.00    +0.000 NA
ATOM     10  C   UNL     1      45.416   2.974  12.695  0.00  0.00    +0.000 C 
ENDBRANCH   7   9
ENDBRANCH   1   7
BRANCH   3  11
ATOM     11  C   UNL     1      47.084   8.105  13.432  0.00  0.00    +0.000 C 
BRANCH  11  12
ATOM     12  N   UNL     1      47.568   7.415  14.604  0.00  0.00    +0.000 N 
ATOM     13  C   UNL     1      48.835   6.904  14.720  0.00  0.00    +0.000 C 
ATOM     14  O   UNL     1      49.661   7.003  13.816  0.00  0.00    +0.000 OA
ATOM     15  H   UNL     1      46.884   7.245  15.332  0.00  0.00    +0.000 HD
BRANCH  13  16
ATOM     16  C   UNL     1      49.169   6.237  15.994  0.00  0.00    +0.000 A 
ATOM     17  C   UNL     1      50.216   6.730  16.766  0.00  0.00    +0.000 A 
ATOM     18  S   UNL     1      50.461   5.882  18.223  0.00  0.00    +0.000 S 
ATOM     19  C   UNL     1      49.186   4.811  17.878  0.00  0.00    +0.000 A 
ATOM     20  N   UNL     1      48.863   3.814  18.746  0.00  0.00    +0.000 NA
ATOM     21  C   UNL     1      47.874   3.074  18.370  0.00  0.00    +0.000 A 
ATOM     22  N   UNL     1      47.179   3.243  17.201  0.00  0.00    +0.000 N 
ATOM     23  C   UNL     1      47.474   4.228  16.290  0.00  0.00    +0.000 A 
ATOM     24  O   UNL     1      46.836   4.327  15.245  0.00  0.00    +0.000 OA
ATOM     25  C   UNL     1      48.577   5.097  16.665  0.00  0.00    +0.000 A 
ATOM     26  H   UNL     1      46.418   2.625  16.959  0.00  0.00    +0.000 HD
ENDBRANCH  13  16
ENDBRANCH  11  12
ENDBRANCH   3  11
BRANCH   6  27
ATOM     27  C   UNL     1      44.288   4.588   9.674  0.00  0.00    +0.000 C 
BRANCH  27  28
ATOM     28  N   UNL     1      45.137   4.191   8.575  0.00  0.00    +0.000 N 
ATOM     29  C   UNL     1      45.605   2.896   8.470  0.00  0.00    +0.000 C 
ATOM     30  O   UNL     1      45.331   2.035   9.300  0.00  0.00    +0.000 OA
ATOM     31  H   UNL     1      45.395   4.857   7.857  0.00  0.00    +0.000 HD
BRANCH  29  32
ATOM     32  C   UNL     1      46.448   2.643   7.316  0.00  0.00    +0.000 A 
ATOM     33  C   UNL     1      47.473   1.731   7.127  0.00  0.00    +0.000 A 
ATOM     34  C   UNL     1      47.961   1.928   5.814  0.00  0.00    +0.000 A 
ATOM     35  C   UNL     1      47.210   2.946   5.275  0.00  0.00    +0.000 A 
ATOM     36  O   UNL     1      46.289   3.388   6.177  0.00  0.00    +0.000 OA
ENDBRANCH  29  32
ENDBRANCH  27  28
ENDBRANCH   6  27
TORSDOF 8
ENDMDL
MODEL 2
REMARK VINA RESULT:    -7.701      1.822      2.207
REMARK INTER + INTRA:         -12.207
REMARK INTER:                 -11.394
REMARK INTRA:                  -0.813
REMARK UNBOUND:                -0.905
REMARK  Name = 
REMARK  10 active torsions:
REMARK  status: ('A' for Active; 'I' for Inactive)
REMARK    1  A    between atoms: C_1  and  N_2
REMARK    2  A    between atoms: N_2  and  C_3
REMARK    3  A    between atoms: N_2  and  C_4
REMARK    4  A    between atoms: C_4  and  C_5
REMARK    5  A    between atoms: C_7  and  C_8
REMARK    6  A    between atoms: C_8  and  N_9
REMARK    7  A    between atoms: C_10  and  C_12
REMARK    8  A    between atoms: C_24  and  C_25
REMARK    9  A    between atoms: C_25  and  N_26
REMARK   10  A    between atoms: C_27  and  C_29
REMARK                            x       y       z     vdW  Elec       q    Type
REMARK                         _______ _______ _______ _____ _____    ______ ____
ROOT
ATOM      1  C   UNL     1      45.955   5.000  12.316  0.00  0.00    +0.000 A 
ATOM      2  C   UNL     1      46.750   5.715  13.238  0.00  0.00    +0.000 A 
ATOM      3  C   UNL     1      47.235   7.000  12.966  0.00  0.00    +0.000 A 
ATOM      4  C   UNL     1      46.940   7.573  11.728  0.00  0.00    +0.000 A 
ATOM      5  C   UNL     1      46.154   6.881  10.799  0.00  0.00    +0.000 A 
ATOM      6  C   UNL     1      45.639   5.598  11.078  0.00  0.00    +0.000 A 
ENDROOT
BRANCH   1   7
ATOM      7  C   UNL     1      45.479   3.624  12.749  0.00  0.00    +0.000 C 
BRANCH   7   9
ATOM      8  C   UNL     1      43.415   4.846  13.225  0.00  0.00    +0.000 C 
ATOM      9  N   UNL     1      44.066   3.537  13.161  0.00  0.00    +0.000 NA
ATOM     10  C   UNL     1      43.346   2.680  12.212  0.00  0.00    +0.000 C 
ENDBRANCH   7   9
ENDBRANCH   1   7
BRANCH   3  11
ATOM     11  C   UNL     1      48.000   7.747  14.029  0.00  0.00    +0.000 C 
BRANCH  11  12
ATOM     12  N   UNL     1      47.940   7.053  15.293  0.00  0.00    +0.000 N 
ATOM     13  C   UNL     1      49.030   6.492  15.907  0.00  0.00    +0.000 C 
ATOM     14  O   UNL     1      50.154   6.545  15.412  0.00  0.00    +0.000 OA
ATOM     15  H   UNL     1      47.015   6.921  15.683  0.00  0.00    +0.000 HD
BRANCH  13  16
ATOM     16  C   UNL     1      48.795   5.828  17.203  0.00  0.00    +0.000 A 
ATOM     17  C   UNL     1      49.084   4.474  17.337  0.00  0.00    +0.000 A 
ATOM     18  S   UNL     1      48.797   3.855  18.898  0.00  0.00    +0.000 S 
ATOM     19  C   UNL     1      48.261   5.368  19.459  0.00  0.00    +0.000 A 
ATOM     20  N   UNL     1      47.856   5.527  20.748  0.00  0.00    +0.000 NA
ATOM     21  C   UNL     1      47.478   6.724  21.049  0.00  0.00    +0.000 A 
ATOM     22  N   UNL     1      47.470   7.778  20.173  0.00  0.00    +0.000 N 
ATOM     23  C   UNL     1      47.860   7.665  18.861  0.00  0.00    +0.000 A 
ATOM     24  O   UNL     1      47.815   8.633  18.108  0.00  0.00    +0.000 OA
ATOM     25  C   UNL     1      48.302   6.337  18.468  0.00  0.00    +0.000 A 
ATOM     26  H   UNL     1      47.155   8.691  20.468  0.00  0.00    +0.000 HD
ENDBRANCH  13  16
ENDBRANCH  11  12
ENDBRANCH   3  11
BRANCH   6  27
ATOM     27  C   UNL     1      44.758   4.944  10.037  0.00  0.00    +0.000 C 
BRANCH  27  28
ATOM     28  N   UNL     1      45.506   4.480   8.891  0.00  0.00    +0.000 N 
ATOM     29  C   UNL     1      45.606   3.131   8.606  0.00  0.00    +0.000 C 
ATOM     30  O   UNL     1      45.078   2.276   9.309  0.00  0.00    +0.000 OA
ATOM     31  H   UNL     1      45.962   5.139   8.272  0.00  0.00    +0.000 HD
BRANCH  29  32
ATOM     32  C   UNL     1      46.389   2.814   7.426  0.00  0.00    +0.000 A 
ATOM     33  C   UNL     1      47.321   1.815   7.200  0.00  0.00    +0.000 A 
ATOM     34  C   UNL     1      47.787   1.979   5.875  0.00  0.00    +0.000 A 
ATOM     35  C   UNL     1      47.116   3.066   5.365  0.00  0.00    +0.000 A 
ATOM     36  O   UNL     1      46.266   3.581   6.297  0.00  0.00    +0.000 OA
ENDBRANCH  29  32
ENDBRANCH  27  28
ENDBRANCH   6  27
TORSDOF 8
ENDMDL
MODEL 3
REMARK VINA RESULT:    -7.677      1.976      2.918
REMARK INTER + INTRA:         -12.171
REMARK INTER:                 -11.124
REMARK INTRA:                  -1.047
REMARK UNBOUND:                -0.905
REMARK  Name = 
REMARK  10 active torsions:
REMARK  status: ('A' for Active; 'I' for Inactive)
REMARK    1  A    between atoms: C_1  and  N_2
REMARK    2  A    between atoms: N_2  and  C_3
REMARK    3  A    between atoms: N_2  and  C_4
REMARK    4  A    between atoms: C_4  and  C_5
REMARK    5  A    between atoms: C_7  and  C_8
REMARK    6  A    between atoms: C_8  and  N_9
REMARK    7  A    between atoms: C_10  and  C_12
REMARK    8  A    between atoms: C_24  and  C_25
REMARK    9  A    between atoms: C_25  and  N_26
REMARK   10  A    between atoms: C_27  and  C_29
REMARK                            x       y       z     vdW  Elec       q    Type
REMARK                         _______ _______ _______ _____ _____    ______ ____
ROOT
ATOM      1  C   UNL     1      44.671   7.822  11.569  0.00  0.00    +0.000 A 
ATOM      2  C   UNL     1      45.543   8.518  12.433  0.00  0.00    +0.000 A 
ATOM      3  C   UNL     1      46.609   7.887  13.085  0.00  0.00    +0.000 A 
ATOM      4  C   UNL     1      46.789   6.517  12.889  0.00  0.00    +0.000 A 
ATOM      5  C   UNL     1      45.935   5.807  12.036  0.00  0.00    +0.000 A 
ATOM      6  C   UNL     1      44.877   6.442  11.355  0.00  0.00    +0.000 A 
ENDROOT
BRANCH   1   7
ATOM      7  C   UNL     1      43.569   8.635  10.911  0.00  0.00    +0.000 C 
BRANCH   7   9
ATOM      8  C   UNL     1      44.060  10.595   9.533  0.00  0.00    +0.000 C 
ATOM      9  N   UNL     1      43.783  10.094  10.879  0.00  0.00    +0.000 NA
ATOM     10  C   UNL     1      42.591  10.761  11.414  0.00  0.00    +0.000 C 
ENDBRANCH   7   9
ENDBRANCH   1   7
BRANCH   3  11
ATOM     11  C   UNL     1      47.560   8.705  13.921  0.00  0.00    +0.000 C 
BRANCH  11  12
ATOM     12  N   UNL     1      47.884   8.024  15.151  0.00  0.00    +0.000 N 
ATOM     13  C   UNL     1      49.003   7.249  15.323  0.00  0.00    +0.000 C 
ATOM     14  O   UNL     1      49.822   7.082  14.422  0.00  0.00    +0.000 OA
ATOM     15  H   UNL     1      47.186   8.075  15.884  0.00  0.00    +0.000 HD
BRANCH  13  16
ATOM     16  C   UNL     1      49.188   6.633  16.651  0.00  0.00    +0.000 A 
ATOM     17  C   UNL     1      49.845   7.347  17.647  0.00  0.00    +0.000 A 
ATOM     18  S   UNL     1      49.951   6.524  19.135  0.00  0.00    +0.000 S 
ATOM     19  C   UNL     1      49.134   5.171  18.507  0.00  0.00    +0.000 A 
ATOM     20  N   UNL     1      48.893   4.083  19.287  0.00  0.00    +0.000 NA
ATOM     21  C   UNL     1      48.261   3.126  18.693  0.00  0.00    +0.000 A 
ATOM     22  N   UNL     1      47.848   3.162  17.387  0.00  0.00    +0.000 N 
ATOM     23  C   UNL     1      48.077   4.233  16.558  0.00  0.00    +0.000 A 
ATOM     24  O   UNL     1      47.707   4.212  15.387  0.00  0.00    +0.000 OA
ATOM     25  C   UNL     1      48.782   5.345  17.177  0.00  0.00    +0.000 A 
ATOM     26  H   UNL     1      47.364   2.377  16.976  0.00  0.00    +0.000 HD
ENDBRANCH  13  16
ENDBRANCH  11  12
ENDBRANCH   3  11
BRANCH   6  27
ATOM     27  C   UNL     1      44.034   5.609  10.415  0.00  0.00    +0.000 C 
BRANCH  27  28
ATOM     28  N   UNL     1      44.831   4.872   9.461  0.00  0.00    +0.000 N 
ATOM     29  C   UNL     1      44.695   3.504   9.328  0.00  0.00    +0.000 C 
ATOM     30  O   UNL     1      43.907   2.858  10.010  0.00  0.00    +0.000 OA
ATOM     31  H   UNL     1      45.497   5.352   8.868  0.00  0.00    +0.000 HD
BRANCH  29  32
ATOM     32  C   UNL     1      45.561   2.899   8.332  0.00  0.00    +0.000 A 
ATOM     33  C   UNL     1      46.016   3.380   7.116  0.00  0.00    +0.000 A 
ATOM     34  C   UNL     1      46.822   2.366   6.548  0.00  0.00    +0.000 A 
ATOM     35  C   UNL     1      46.816   1.325   7.447  0.00  0.00    +0.000 A 
ATOM     36  O   UNL     1      46.054   1.636   8.532  0.00  0.00    +0.000 OA
ENDBRANCH  29  32
ENDBRANCH  27  28
ENDBRANCH   6  27
TORSDOF 8
ENDMDL
MODEL 4
REMARK VINA RESULT:    -7.407      2.640      3.811
REMARK INTER + INTRA:         -11.776
REMARK INTER:                 -10.897
REMARK INTRA:                  -0.879
REMARK UNBOUND:                -0.905
REMARK  Name = 
REMARK  10 active torsions:
REMARK  status: ('A' for Active; 'I' for Inactive)
REMARK    1  A    between atoms: C_1  and  N_2
REMARK    2  A    between atoms: N_2  and  C_3
REMARK    3  A    between atoms: N_2  and  C_4
REMARK    4  A    between atoms: C_4  and  C_5
REMARK    5  A    between atoms: C_7  and  C_8
REMARK    6  A    between atoms: C_8  and  N_9
REMARK    7  A    between atoms: C_10  and  C_12
REMARK    8  A    between atoms: C_24  and  C_25
REMARK    9  A    between atoms: C_25  and  N_26
REMARK   10  A    between atoms: C_27  and  C_29
REMARK                            x       y       z     vdW  Elec       q    Type
REMARK                         _______ _______ _______ _____ _____    ______ ____
ROOT
ATOM      1  C   UNL     1      46.669   6.092  13.172  0.00  0.00    +0.000 A 
ATOM      2  C   UNL     1      47.651   6.792  13.905  0.00  0.00    +0.000 A 
ATOM      3  C   UNL     1      48.227   6.270  15.069  0.00  0.00    +0.000 A 
ATOM      4  C   UNL     1      47.789   5.026  15.526  0.00  0.00    +0.000 A 
ATOM      5  C   UNL     1      46.815   4.315  14.814  0.00  0.00    +0.000 A 
ATOM      6  C   UNL     1      46.251   4.823  13.626  0.00  0.00    +0.000 A 
ENDROOT
BRANCH   1   7
ATOM      7  C   UNL     1      46.145   6.766  11.915  0.00  0.00    +0.000 C 
BRANCH   7   9
ATOM      8  C   UNL     1      45.037   8.937  11.710  0.00  0.00    +0.000 C 
ATOM      9  N   UNL     1      44.891   7.527  12.074  0.00  0.00    +0.000 NA
ATOM     10  C   UNL     1      43.853   6.911  11.241  0.00  0.00    +0.000 C 
ENDBRANCH   7   9
ENDBRANCH   1   7
BRANCH   3  11
ATOM     11  C   UNL     1      49.337   7.025  15.754  0.00  0.00    +0.000 C 
BRANCH  11  12
ATOM     12  N   UNL     1      50.330   6.120  16.282  0.00  0.00    +0.000 N 
ATOM     13  C   UNL     1      50.342   5.672  17.577  0.00  0.00    +0.000 C 
ATOM     14  O   UNL     1      49.490   6.018  18.392  0.00  0.00    +0.000 OA
ATOM     15  H   UNL     1      51.092   5.884  15.657  0.00  0.00    +0.000 HD
BRANCH  13  16
ATOM     16  C   UNL     1      51.424   4.740  17.949  0.00  0.00    +0.000 A 
ATOM     17  C   UNL     1      52.562   5.233  18.578  0.00  0.00    +0.000 A 
ATOM     18  S   UNL     1      53.707   4.037  18.979  0.00  0.00    +0.000 S 
ATOM     19  C   UNL     1      52.734   2.808  18.317  0.00  0.00    +0.000 A 
ATOM     20  N   UNL     1      53.147   1.512  18.336  0.00  0.00    +0.000 NA
ATOM     21  C   UNL     1      52.316   0.676  17.807  0.00  0.00    +0.000 A 
ATOM     22  N   UNL     1      51.109   1.024  17.260  0.00  0.00    +0.000 N 
ATOM     23  C   UNL     1      50.655   2.319  17.209  0.00  0.00    +0.000 A 
ATOM     24  O   UNL     1      49.575   2.585  16.689  0.00  0.00    +0.000 OA
ATOM     25  C   UNL     1      51.549   3.303  17.797  0.00  0.00    +0.000 A 
ATOM     26  H   UNL     1      50.506   0.324  16.854  0.00  0.00    +0.000 HD
ENDBRANCH  13  16
ENDBRANCH  11  12
ENDBRANCH   3  11
BRANCH   6  27
ATOM     27  C   UNL     1      45.242   3.965  12.895  0.00  0.00    +0.000 C 
BRANCH  27  28
ATOM     28  N   UNL     1      45.669   3.628  11.555  0.00  0.00    +0.000 N 
ATOM     29  C   UNL     1      44.750   3.279  10.584  0.00  0.00    +0.000 C 
ATOM     30  O   UNL     1      43.547   3.230  10.813  0.00  0.00    +0.000 OA
ATOM     31  H   UNL     1      46.650   3.653  11.306  0.00  0.00    +0.000 HD
BRANCH  29  32
ATOM     32  C   UNL     1      45.323   2.965   9.288  0.00  0.00    +0.000 A 
ATOM     33  C   UNL     1      45.444   3.733   8.142  0.00  0.00    +0.000 A 
ATOM     34  C   UNL     1      46.070   2.921   7.167  0.00  0.00    +0.000 A 
ATOM     35  C   UNL     1      46.295   1.705   7.770  0.00  0.00    +0.000 A 
ATOM     36  O   UNL     1      45.846   1.719   9.056  0.00  0.00    +0.000 OA
ENDBRANCH  29  32
ENDBRANCH  27  28
ENDBRANCH   6  27
TORSDOF 8
ENDMDL
MODEL 5
REMARK VINA RESULT:    -7.336      4.603      9.622
REMARK INTER + INTRA:         -11.672
REMARK INTER:                 -10.594
REMARK INTRA:                  -1.078
REMARK UNBOUND:                -0.905
REMARK  Name = 
REMARK  10 active torsions:
REMARK  status: ('A' for Active; 'I' for Inactive)
REMARK    1  A    between atoms: C_1  and  N_2
REMARK    2  A    between atoms: N_2  and  C_3
REMARK    3  A    between atoms: N_2  and  C_4
REMARK    4  A    between atoms: C_4  and  C_5
REMARK    5  A    between atoms: C_7  and  C_8
REMARK    6  A    between atoms: C_8  and  N_9
REMARK    7  A    between atoms: C_10  and  C_12
REMARK    8  A    between atoms: C_24  and  C_25
REMARK    9  A    between atoms: C_25  and  N_26
REMARK   10  A    between atoms: C_27  and  C_29
REMARK                            x       y       z     vdW  Elec       q    Type
REMARK                         _______ _______ _______ _____ _____    ______ ____
ROOT
ATOM      1  C   UNL     1      50.740   4.124  18.117  0.00  0.00    +0.000 A 
ATOM      2  C   UNL     1      49.363   4.247  17.829  0.00  0.00    +0.000 A 
ATOM      3  C   UNL     1      48.643   3.237  17.181  0.00  0.00    +0.000 A 
ATOM      4  C   UNL     1      49.324   2.085  16.786  0.00  0.00    +0.000 A 
ATOM      5  C   UNL     1      50.690   1.942  17.062  0.00  0.00    +0.000 A 
ATOM      6  C   UNL     1      51.415   2.944  17.739  0.00  0.00    +0.000 A 
ENDROOT
BRANCH   1   7
ATOM      7  C   UNL     1      51.392   5.288  18.844  0.00  0.00    +0.000 C 
BRANCH   7   9
ATOM      8  C   UNL     1      51.869   7.684  18.941  0.00  0.00    +0.000 C 
ATOM      9  N   UNL     1      51.411   6.568  18.113  0.00  0.00    +0.000 NA
ATOM     10  C   UNL     1      52.289   6.435  16.944  0.00  0.00    +0.000 C 
ENDBRANCH   7   9
ENDBRANCH   1   7
BRANCH   3  11
ATOM     11  C   UNL     1      47.156   3.391  16.986  0.00  0.00    +0.000 C 
BRANCH  11  12
ATOM     12  N   UNL     1      46.867   4.373  15.968  0.00  0.00    +0.000 N 
ATOM     13  C   UNL     1      46.944   4.122  14.622  0.00  0.00    +0.000 C 
ATOM     14  O   UNL     1      47.269   3.021  14.184  0.00  0.00    +0.000 OA
ATOM     15  H   UNL     1      46.678   5.312  16.298  0.00  0.00    +0.000 HD
BRANCH  13  16
ATOM     16  C   UNL     1      46.604   5.236  13.717  0.00  0.00    +0.000 A 
ATOM     17  C   UNL     1      47.552   6.222  13.463  0.00  0.00    +0.000 A 
ATOM     18  S   UNL     1      47.031   7.422  12.372  0.00  0.00    +0.000 S 
ATOM     19  C   UNL     1      45.508   6.683  12.203  0.00  0.00    +0.000 A 
ATOM     20  N   UNL     1      44.561   7.223  11.389  0.00  0.00    +0.000 NA
ATOM     21  C   UNL     1      43.451   6.564  11.344  0.00  0.00    +0.000 A 
ATOM     22  N   UNL     1      43.206   5.411  12.043  0.00  0.00    +0.000 N 
ATOM     23  C   UNL     1      44.125   4.834  12.883  0.00  0.00    +0.000 A 
ATOM     24  O   UNL     1      43.851   3.811  13.506  0.00  0.00    +0.000 OA
ATOM     25  C   UNL     1      45.398   5.532  12.968  0.00  0.00    +0.000 A 
ATOM     26  H   UNL     1      42.313   4.946  11.972  0.00  0.00    +0.000 HD
ENDBRANCH  13  16
ENDBRANCH  11  12
ENDBRANCH   3  11
BRANCH   6  27
ATOM     27  C   UNL     1      52.875   2.686  18.039  0.00  0.00    +0.000 C 
BRANCH  27  28
ATOM     28  N   UNL     1      53.133   1.306  18.385  0.00  0.00    +0.000 N 
ATOM     29  C   UNL     1      54.083   0.570  17.705  0.00  0.00    +0.000 C 
ATOM     30  O   UNL     1      54.737   1.043  16.782  0.00  0.00    +0.000 OA
ATOM     31  H   UNL     1      52.626   0.861  19.140  0.00  0.00    +0.000 HD
BRANCH  29  32
ATOM     32  C   UNL     1      54.234  -0.800  18.160  0.00  0.00    +0.000 A 
ATOM     33  C   UNL     1      55.028  -1.830  17.684  0.00  0.00    +0.000 A 
ATOM     34  C   UNL     1      54.767  -2.959  18.495  0.00  0.00    +0.000 A 
ATOM     35  C   UNL     1      53.831  -2.558  19.420  0.00  0.00    +0.000 A 
ATOM     36  O   UNL     1      53.499  -1.251  19.226  0.00  0.00    +0.000 OA
ENDBRANCH  29  32
ENDBRANCH  27  28
ENDBRANCH   6  27
TORSDOF 8
ENDMDL
MODEL 6
REMARK VINA RESULT:    -7.295      1.884      2.226
REMARK INTER + INTRA:         -11.611
REMARK INTER:                 -10.645
REMARK INTRA:                  -0.966
REMARK UNBOUND:                -0.905
REMARK  Name = 
REMARK  10 active torsions:
REMARK  status: ('A' for Active; 'I' for Inactive)
REMARK    1  A    between atoms: C_1  and  N_2
REMARK    2  A    between atoms: N_2  and  C_3
REMARK    3  A    between atoms: N_2  and  C_4
REMARK    4  A    between atoms: C_4  and  C_5
REMARK    5  A    between atoms: C_7  and  C_8
REMARK    6  A    between atoms: C_8  and  N_9
REMARK    7  A    between atoms: C_10  and  C_12
REMARK    8  A    between atoms: C_24  and  C_25
REMARK    9  A    between atoms: C_25  and  N_26
REMARK   10  A    between atoms: C_27  and  C_29
REMARK                            x       y       z     vdW  Elec       q    Type
REMARK                         _______ _______ _______ _____ _____    ______ ____
ROOT
ATOM      1  C   UNL     1      46.168   5.629  12.785  0.00  0.00    +0.000 A 
ATOM      2  C   UNL     1      46.905   6.136  13.877  0.00  0.00    +0.000 A 
ATOM      3  C   UNL     1      47.691   7.289  13.776  0.00  0.00    +0.000 A 
ATOM      4  C   UNL     1      47.764   7.936  12.542  0.00  0.00    +0.000 A 
ATOM      5  C   UNL     1      47.043   7.450  11.445  0.00  0.00    +0.000 A 
ATOM      6  C   UNL     1      46.226   6.305  11.548  0.00  0.00    +0.000 A 
ENDROOT
BRANCH   1   7
ATOM      7  C   UNL     1      45.339   4.381  13.040  0.00  0.00    +0.000 C 
BRANCH   7   9
ATOM      8  C   UNL     1      43.620   2.931  12.081  0.00  0.00    +0.000 C 
ATOM      9  N   UNL     1      44.056   4.308  12.317  0.00  0.00    +0.000 NA
ATOM     10  C   UNL     1      43.033   5.018  13.093  0.00  0.00    +0.000 C 
ENDBRANCH   7   9
ENDBRANCH   1   7
BRANCH   3  11
ATOM     11  C   UNL     1      48.379   7.831  15.003  0.00  0.00    +0.000 C 
BRANCH  11  12
ATOM     12  N   UNL     1      49.358   6.896  15.503  0.00  0.00    +0.000 N 
ATOM     13  C   UNL     1      49.349   6.389  16.777  0.00  0.00    +0.000 C 
ATOM     14  O   UNL     1      48.488   6.703  17.595  0.00  0.00    +0.000 OA
ATOM     15  H   UNL     1      50.127   6.683  14.878  0.00  0.00    +0.000 HD
BRANCH  13  16
ATOM     16  C   UNL     1      50.420   5.434  17.120  0.00  0.00    +0.000 A 
ATOM     17  C   UNL     1      51.655   5.916  17.539  0.00  0.00    +0.000 A 
ATOM     18  S   UNL     1      52.777   4.698  17.936  0.00  0.00    +0.000 S 
ATOM     19  C   UNL     1      51.664   3.471  17.552  0.00  0.00    +0.000 A 
ATOM     20  N   UNL     1      52.006   2.160  17.675  0.00  0.00    +0.000 NA
ATOM     21  C   UNL     1      51.070   1.329  17.357  0.00  0.00    +0.000 A 
ATOM     22  N   UNL     1      49.822   1.694  16.927  0.00  0.00    +0.000 N 
ATOM     23  C   UNL     1      49.434   3.003  16.777  0.00  0.00    +0.000 A 
ATOM     24  O   UNL     1      48.310   3.281  16.367  0.00  0.00    +0.000 OA
ATOM     25  C   UNL     1      50.448   3.984  17.127  0.00  0.00    +0.000 A 
ATOM     26  H   UNL     1      49.135   0.995  16.685  0.00  0.00    +0.000 HD
ENDBRANCH  13  16
ENDBRANCH  11  12
ENDBRANCH   3  11
BRANCH   6  27
ATOM     27  C   UNL     1      45.443   5.879  10.326  0.00  0.00    +0.000 C 
BRANCH  27  28
ATOM     28  N   UNL     1      46.098   4.823   9.588  0.00  0.00    +0.000 N 
ATOM     29  C   UNL     1      45.375   3.963   8.784  0.00  0.00    +0.000 C 
ATOM     30  O   UNL     1      44.157   4.050   8.668  0.00  0.00    +0.000 OA
ATOM     31  H   UNL     1      47.102   4.704   9.642  0.00  0.00    +0.000 HD
BRANCH  29  32
ATOM     32  C   UNL     1      46.165   2.953   8.106  0.00  0.00    +0.000 A 
ATOM     33  C   UNL     1      46.113   1.570   8.168  0.00  0.00    +0.000 A 
ATOM     34  C   UNL     1      47.126   1.081   7.309  0.00  0.00    +0.000 A 
ATOM     35  C   UNL     1      47.739   2.189   6.772  0.00  0.00    +0.000 A 
ATOM     36  O   UNL     1      47.165   3.329   7.248  0.00  0.00    +0.000 OA
ENDBRANCH  29  32
ENDBRANCH  27  28
ENDBRANCH   6  27
TORSDOF 8
ENDMDL
MODEL 7
REMARK VINA RESULT:    -7.115      1.935      2.696
REMARK INTER + INTRA:         -11.348
REMARK INTER:                 -10.675
REMARK INTRA:                  -0.673
REMARK UNBOUND:                -0.905
REMARK  Name = 
REMARK  10 active torsions:
REMARK  status: ('A' for Active; 'I' for Inactive)
REMARK    1  A    between atoms: C_1  and  N_2
REMARK    2  A    between atoms: N_2  and  C_3
REMARK    3  A    between atoms: N_2  and  C_4
REMARK    4  A    between atoms: C_4  and  C_5
REMARK    5  A    between atoms: C_7  and  C_8
REMARK    6  A    between atoms: C_8  and  N_9
REMARK    7  A    between atoms: C_10  and  C_12
REMARK    8  A    between atoms: C_24  and  C_25
REMARK    9  A    between atoms: C_25  and  N_26
REMARK   10  A    between atoms: C_27  and  C_29
REMARK                            x       y       z     vdW  Elec       q    Type
REMARK                         _______ _______ _______ _____ _____    ______ ____
ROOT
ATOM      1  C   UNL     1      45.904   5.076  12.272  0.00  0.00    +0.000 A 
ATOM      2  C   UNL     1      46.690   5.677  13.279  0.00  0.00    +0.000 A 
ATOM      3  C   UNL     1      47.121   7.007  13.196  0.00  0.00    +0.000 A 
ATOM      4  C   UNL     1      46.779   7.745  12.063  0.00  0.00    +0.000 A 
ATOM      5  C   UNL     1      46.001   7.169  11.052  0.00  0.00    +0.000 A 
ATOM      6  C   UNL     1      45.540   5.839  11.142  0.00  0.00    +0.000 A 
ENDROOT
BRANCH   1   7
ATOM      7  C   UNL     1      45.488   3.633  12.501  0.00  0.00    +0.000 C 
BRANCH   7   9
ATOM      8  C   UNL     1      43.428   4.698  13.274  0.00  0.00    +0.000 C 
ATOM      9  N   UNL     1      44.149   3.439  13.085  0.00  0.00    +0.000 NA
ATOM     10  C   UNL     1      43.371   2.557  12.208  0.00  0.00    +0.000 C 
ENDBRANCH   7   9
ENDBRANCH   1   7
BRANCH   3  11
ATOM     11  C   UNL     1      47.879   7.617  14.347  0.00  0.00    +0.000 C 
BRANCH  11  12
ATOM     12  N   UNL     1      48.630   6.612  15.062  0.00  0.00    +0.000 N 
ATOM     13  C   UNL     1      48.986   6.721  16.381  0.00  0.00    +0.000 C 
ATOM     14  O   UNL     1      48.681   7.700  17.058  0.00  0.00    +0.000 OA
ATOM     15  H   UNL     1      48.966   5.833  14.509  0.00  0.00    +0.000 HD
BRANCH  13  16
ATOM     16  C   UNL     1      49.744   5.596  16.961  0.00  0.00    +0.000 A 
ATOM     17  C   UNL     1      49.056   4.488  17.445  0.00  0.00    +0.000 A 
ATOM     18  S   UNL     1      50.064   3.255  18.049  0.00  0.00    +0.000 S 
ATOM     19  C   UNL     1      51.465   4.156  17.702  0.00  0.00    +0.000 A 
ATOM     20  N   UNL     1      52.698   3.656  17.985  0.00  0.00    +0.000 NA
ATOM     21  C   UNL     1      53.679   4.435  17.668  0.00  0.00    +0.000 A 
ATOM     22  N   UNL     1      53.533   5.670  17.094  0.00  0.00    +0.000 N 
ATOM     23  C   UNL     1      52.310   6.220  16.799  0.00  0.00    +0.000 A 
ATOM     24  O   UNL     1      52.229   7.341  16.304  0.00  0.00    +0.000 OA
ATOM     25  C   UNL     1      51.168   5.383  17.129  0.00  0.00    +0.000 A 
ATOM     26  H   UNL     1      54.341   6.236  16.877  0.00  0.00    +0.000 HD
ENDBRANCH  13  16
ENDBRANCH  11  12
ENDBRANCH   3  11
BRANCH   6  27
ATOM     27  C   UNL     1      44.663   5.313  10.028  0.00  0.00    +0.000 C 
BRANCH  27  28
ATOM     28  N   UNL     1      45.428   4.735   8.947  0.00  0.00    +0.000 N 
ATOM     29  C   UNL     1      45.323   3.391   8.642  0.00  0.00    +0.000 C 
ATOM     30  O   UNL     1      44.591   2.635   9.272  0.00  0.00    +0.000 OA
ATOM     31  H   UNL     1      46.048   5.310   8.389  0.00  0.00    +0.000 HD
BRANCH  29  32
ATOM     32  C   UNL     1      46.151   2.951   7.534  0.00  0.00    +0.000 A 
ATOM     33  C   UNL     1      46.948   1.828   7.390  0.00  0.00    +0.000 A 
ATOM     34  C   UNL     1      47.544   1.907   6.110  0.00  0.00    +0.000 A 
ATOM     35  C   UNL     1      47.079   3.071   5.543  0.00  0.00    +0.000 A 
ATOM     36  O   UNL     1      46.234   3.713   6.398  0.00  0.00    +0.000 OA
ENDBRANCH  29  32
ENDBRANCH  27  28
ENDBRANCH   6  27
TORSDOF 8
ENDMDL
MODEL 8
REMARK VINA RESULT:    -7.030      2.421      4.431
REMARK INTER + INTRA:         -11.222
REMARK INTER:                  -9.990
REMARK INTRA:                  -1.232
REMARK UNBOUND:                -0.905
REMARK  Name = 
REMARK  10 active torsions:
REMARK  status: ('A' for Active; 'I' for Inactive)
REMARK    1  A    between atoms: C_1  and  N_2
REMARK    2  A    between atoms: N_2  and  C_3
REMARK    3  A    between atoms: N_2  and  C_4
REMARK    4  A    between atoms: C_4  and  C_5
REMARK    5  A    between atoms: C_7  and  C_8
REMARK    6  A    between atoms: C_8  and  N_9
REMARK    7  A    between atoms: C_10  and  C_12
REMARK    8  A    between atoms: C_24  and  C_25
REMARK    9  A    between atoms: C_25  and  N_26
REMARK   10  A    between atoms: C_27  and  C_29
REMARK                            x       y       z     vdW  Elec       q    Type
REMARK                         _______ _______ _______ _____ _____    ______ ____
ROOT
ATOM      1  C   UNL     1      45.087   5.089  12.801  0.00  0.00    +0.000 A 
ATOM      2  C   UNL     1      45.947   5.529  13.831  0.00  0.00    +0.000 A 
ATOM      3  C   UNL     1      46.882   4.681  14.436  0.00  0.00    +0.000 A 
ATOM      4  C   UNL     1      46.939   3.350  14.019  0.00  0.00    +0.000 A 
ATOM      5  C   UNL     1      46.095   2.893  13.000  0.00  0.00    +0.000 A 
ATOM      6  C   UNL     1      45.170   3.749  12.366  0.00  0.00    +0.000 A 
ENDROOT
BRANCH   1   7
ATOM      7  C   UNL     1      44.136   6.120  12.218  0.00  0.00    +0.000 C 
BRANCH   7   9
ATOM      8  C   UNL     1      45.128   8.334  11.910  0.00  0.00    +0.000 C 
ATOM      9  N   UNL     1      44.734   7.078  11.270  0.00  0.00    +0.000 NA
ATOM     10  C   UNL     1      45.908   6.458  10.646  0.00  0.00    +0.000 C 
ENDBRANCH   7   9
ENDBRANCH   1   7
BRANCH   3  11
ATOM     11  C   UNL     1      47.834   5.236  15.464  0.00  0.00    +0.000 C 
BRANCH  11  12
ATOM     12  N   UNL     1      48.236   6.580  15.123  0.00  0.00    +0.000 N 
ATOM     13  C   UNL     1      49.499   7.074  15.330  0.00  0.00    +0.000 C 
ATOM     14  O   UNL     1      50.390   6.390  15.827  0.00  0.00    +0.000 OA
ATOM     15  H   UNL     1      47.501   7.192  14.789  0.00  0.00    +0.000 HD
BRANCH  13  16
ATOM     16  C   UNL     1      49.744   8.468  14.913  0.00  0.00    +0.000 A 
ATOM     17  C   UNL     1      50.260   9.373  15.834  0.00  0.00    +0.000 A 
ATOM     18  S   UNL     1      50.525  10.932  15.200  0.00  0.00    +0.000 S 
ATOM     19  C   UNL     1      49.949  10.467  13.669  0.00  0.00    +0.000 A 
ATOM     20  N   UNL     1      49.907  11.359  12.643  0.00  0.00    +0.000 NA
ATOM     21  C   UNL     1      49.454  10.880  11.533  0.00  0.00    +0.000 A 
ATOM     22  N   UNL     1      49.039   9.586  11.359  0.00  0.00    +0.000 N 
ATOM     23  C   UNL     1      49.052   8.653  12.366  0.00  0.00    +0.000 A 
ATOM     24  O   UNL     1      48.650   7.510  12.168  0.00  0.00    +0.000 OA
ATOM     25  C   UNL     1      49.560   9.136  13.640  0.00  0.00    +0.000 A 
ATOM     26  H   UNL     1      48.686   9.273  10.466  0.00  0.00    +0.000 HD
ENDBRANCH  13  16
ENDBRANCH  11  12
ENDBRANCH   3  11
BRANCH   6  27
ATOM     27  C   UNL     1      44.333   3.183  11.241  0.00  0.00    +0.000 C 
BRANCH  27  28
ATOM     28  N   UNL     1      45.132   2.764  10.112  0.00  0.00    +0.000 N 
ATOM     29  C   UNL     1      44.990   3.369   8.878  0.00  0.00    +0.000 C 
ATOM     30  O   UNL     1      44.184   4.273   8.684  0.00  0.00    +0.000 OA
ATOM     31  H   UNL     1      45.816   2.025  10.212  0.00  0.00    +0.000 HD
BRANCH  29  32
ATOM     32  C   UNL     1      45.857   2.845   7.838  0.00  0.00    +0.000 A 
ATOM     33  C   UNL     1      46.564   1.657   7.764  0.00  0.00    +0.000 A 
ATOM     34  C   UNL     1      47.257   1.667   6.530  0.00  0.00    +0.000 A 
ATOM     35  C   UNL     1      46.934   2.858   5.921  0.00  0.00    +0.000 A 
ATOM     36  O   UNL     1      46.087   3.580   6.705  0.00  0.00    +0.000 OA
ENDBRANCH  29  32
ENDBRANCH  27  28
ENDBRANCH   6  27
TORSDOF 8
ENDMDL
MODEL 9
REMARK VINA RESULT:    -7.015      4.580      9.590
REMARK INTER + INTRA:         -11.200
REMARK INTER:                  -9.722
REMARK INTRA:                  -1.478
REMARK UNBOUND:                -0.905
REMARK  Name = 
REMARK  10 active torsions:
REMARK  status: ('A' for Active; 'I' for Inactive)
REMARK    1  A    between atoms: C_1  and  N_2
REMARK    2  A    between atoms: N_2  and  C_3
REMARK    3  A    between atoms: N_2  and  C_4
REMARK    4  A    between atoms: C_4  and  C_5
REMARK    5  A    between atoms: C_7  and  C_8
REMARK    6  A    between atoms: C_8  and  N_9
REMARK    7  A    between atoms: C_10  and  C_12
REMARK    8  A    between atoms: C_24  and  C_25
REMARK    9  A    between atoms: C_25  and  N_26
REMARK   10  A    between atoms: C_27  and  C_29
REMARK                            x       y       z     vdW  Elec       q    Type
REMARK                         _______ _______ _______ _____ _____    ______ ____
ROOT
ATOM      1  C   UNL     1      50.816   4.247  17.986  0.00  0.00    +0.000 A 
ATOM      2  C   UNL     1      49.462   4.423  17.627  0.00  0.00    +0.000 A 
ATOM      3  C   UNL     1      48.695   3.387  17.080  0.00  0.00    +0.000 A 
ATOM      4  C   UNL     1      49.307   2.153  16.860  0.00  0.00    +0.000 A 
ATOM      5  C   UNL     1      50.649   1.957  17.208  0.00  0.00    +0.000 A 
ATOM      6  C   UNL     1      51.419   2.987  17.785  0.00  0.00    +0.000 A 
ENDROOT
BRANCH   1   7
ATOM      7  C   UNL     1      51.524   5.449  18.589  0.00  0.00    +0.000 C 
BRANCH   7   9
ATOM      8  C   UNL     1      50.468   7.310  19.773  0.00  0.00    +0.000 C 
ATOM      9  N   UNL     1      50.812   6.735  18.472  0.00  0.00    +0.000 NA
ATOM     10  C   UNL     1      51.655   7.678  17.728  0.00  0.00    +0.000 C 
ENDBRANCH   7   9
ENDBRANCH   1   7
BRANCH   3  11
ATOM     11  C   UNL     1      47.230   3.612  16.806  0.00  0.00    +0.000 C 
BRANCH  11  12
ATOM     12  N   UNL     1      47.043   4.616  15.785  0.00  0.00    +0.000 N 
ATOM     13  C   UNL     1      47.037   4.345  14.441  0.00  0.00    +0.000 C 
ATOM     14  O   UNL     1      47.192   3.206  14.007  0.00  0.00    +0.000 OA
ATOM     15  H   UNL     1      46.996   5.574  16.109  0.00  0.00    +0.000 HD
BRANCH  13  16
ATOM     16  C   UNL     1      46.821   5.488  13.533  0.00  0.00    +0.000 A 
ATOM     17  C   UNL     1      45.714   5.489  12.692  0.00  0.00    +0.000 A 
ATOM     18  S   UNL     1      45.576   6.888  11.729  0.00  0.00    +0.000 S 
ATOM     19  C   UNL     1      46.999   7.547  12.387  0.00  0.00    +0.000 A 
ATOM     20  N   UNL     1      47.454   8.762  11.978  0.00  0.00    +0.000 NA
ATOM     21  C   UNL     1      48.541   9.151  12.558  0.00  0.00    +0.000 A 
ATOM     22  N   UNL     1      49.212   8.431  13.511  0.00  0.00    +0.000 N 
ATOM     23  C   UNL     1      48.798   7.197  13.948  0.00  0.00    +0.000 A 
ATOM     24  O   UNL     1      49.445   6.579  14.788  0.00  0.00    +0.000 OA
ATOM     25  C   UNL     1      47.573   6.711  13.332  0.00  0.00    +0.000 A 
ATOM     26  H   UNL     1      50.063   8.787  13.921  0.00  0.00    +0.000 HD
ENDBRANCH  13  16
ENDBRANCH  11  12
ENDBRANCH   3  11
BRANCH   6  27
ATOM     27  C   UNL     1      52.847   2.674  18.175  0.00  0.00    +0.000 C 
BRANCH  27  28
ATOM     28  N   UNL     1      53.048   1.272  18.461  0.00  0.00    +0.000 N 
ATOM     29  C   UNL     1      54.081   0.568  17.872  0.00  0.00    +0.000 C 
ATOM     30  O   UNL     1      54.860   1.092  17.084  0.00  0.00    +0.000 OA
ATOM     31  H   UNL     1      52.438   0.785  19.106  0.00  0.00    +0.000 HD
BRANCH  29  32
ATOM     32  C   UNL     1      54.160  -0.831  18.251  0.00  0.00    +0.000 A 
ATOM     33  C   UNL     1      54.893  -1.874  17.712  0.00  0.00    +0.000 A 
ATOM     34  C   UNL     1      54.577  -3.030  18.464  0.00  0.00    +0.000 A 
ATOM     35  C   UNL     1      53.671  -2.630  19.419  0.00  0.00    +0.000 A 
ATOM     36  O   UNL     1      53.410  -1.298  19.299  0.00  0.00    +0.000 OA
ENDBRANCH  29  32
ENDBRANCH  27  28
ENDBRANCH   6  27
TORSDOF 8
ENDMDL
