MODEL 1
REMARK VINA RESULT:    -8.774      0.000      0.000
REMARK INTER + INTRA:         -13.373
REMARK INTER:                 -12.365
REMARK INTRA:                  -1.008
REMARK UNBOUND:                -1.008
REMARK  Name = 
REMARK  8 active torsions:
REMARK  status: ('A' for Active; 'I' for Inactive)
REMARK    1  A    between atoms: C_1  and  C_2
REMARK    2  A    between atoms: C_5  and  C_6
REMARK    3  A    between atoms: C_6  and  O_7
REMARK    4  A    between atoms: O_7  and  C_8
REMARK    5  A    between atoms: C_8  and  C_9
REMARK    6  A    between atoms: C_12  and  C_13
REMARK    7  A    between atoms: C_13  and  N_14
REMARK    8  A    between atoms: C_15  and  C_17
REMARK                            x       y       z     vdW  Elec       q    Type
REMARK                         _______ _______ _______ _____ _____    ______ ____
ROOT
ATOM      1  C   UNL     1      44.607   4.545  11.941  0.00  0.00    +0.000 A 
ATOM      2  C   UNL     1      45.140   5.591  11.190  0.00  0.00    +0.000 A 
ATOM      3  C   UNL     1      46.254   6.277  11.672  0.00  0.00    +0.000 A 
ATOM      4  C   UNL     1      46.825   5.897  12.887  0.00  0.00    +0.000 A 
ATOM      5  C   UNL     1      46.210   4.859  13.581  0.00  0.00    +0.000 A 
ATOM      6  N   UNL     1      45.125   4.182  13.143  0.00  0.00    +0.000 NA
ENDROOT
BRANCH   1   7
ATOM      7  C   UNL     1      43.411   3.776  11.427  0.00  0.00    +0.000 C 
BRANCH   7   8
ATOM      8  O   UNL     1      43.639   3.417  10.065  0.00  0.00    +0.000 OA
BRANCH   8   9
ATOM      9  C   UNL     1      44.418   2.224   9.948  0.00  0.00    +0.000 C 
BRANCH   9  14
ATOM     10  C   UNL     1      47.954   2.391   5.395  0.00  0.00    +0.000 C 
ATOM     11  C   UNL     1      47.033   2.401   6.572  0.00  0.00    +0.000 A 
ATOM     12  C   UNL     1      46.307   3.536   6.924  0.00  0.00    +0.000 A 
ATOM     13  C   UNL     1      45.455   3.494   8.025  0.00  0.00    +0.000 A 
ATOM     14  C   UNL     1      45.333   2.307   8.747  0.00  0.00    +0.000 A 
ATOM     15  N   UNL     1      46.046   1.195   8.433  0.00  0.00    +0.000 NA
ATOM     16  C   UNL     1      46.869   1.268   7.360  0.00  0.00    +0.000 A 
ENDBRANCH   9  14
ENDBRANCH   8   9
ENDBRANCH   7   8
ENDBRANCH   1   7
BRANCH   4  17
ATOM     17  C   UNL     1      48.027   6.596  13.453  0.00  0.00    +0.000 C 
BRANCH  17  18
ATOM     18  N   UNL     1      47.941   6.709  14.887  0.00  0.00    +0.000 N 
ATOM     19  C   UNL     1      49.066   6.727  15.671  0.00  0.00    +0.000 C 
ATOM     20  O   UNL     1      50.196   6.698  15.192  0.00  0.00    +0.000 OA
ATOM     21  H   UNL     1      47.045   6.498  15.314  0.00  0.00    +0.000 HD
BRANCH  19  22
ATOM     22  C   UNL     1      48.846   6.846  17.118  0.00  0.00    +0.000 A 
ATOM     23  C   UNL     1      48.556   8.084  17.676  0.00  0.00    +0.000 A 
ATOM     24  S   UNL     1      48.288   8.028  19.360  0.00  0.00    +0.000 S 
ATOM     25  C   UNL     1      48.600   6.356  19.410  0.00  0.00    +0.000 A 
ATOM     26  N   UNL     1      48.563   5.671  20.585  0.00  0.00    +0.000 NA
ATOM     27  C   UNL     1      48.843   4.414  20.479  0.00  0.00    +0.000 A 
ATOM     28  N   UNL     1      49.153   3.779  19.304  0.00  0.00    +0.000 N 
ATOM     29  C   UNL     1      49.175   4.424  18.091  0.00  0.00    +0.000 A 
ATOM     30  O   UNL     1      49.403   3.817  17.049  0.00  0.00    +0.000 OA
ATOM     31  C   UNL     1      48.881   5.843  18.156  0.00  0.00    +0.000 A 
ATOM     32  H   UNL     1      49.349   2.789  19.286  0.00  0.00    +0.000 HD
ENDBRANCH  19  22
ENDBRANCH  17  18
ENDBRANCH   4  17
TORSDOF 7
ENDMDL
MODEL 2
REMARK VINA RESULT:    -8.231      1.492      2.136
REMARK INTER + INTRA:         -12.608
REMARK INTER:                 -11.614
REMARK INTRA:                  -0.994
REMARK UNBOUND:                -1.008
REMARK  Name = 
REMARK  8 active torsions:
REMARK  status: ('A' for Active; 'I' for Inactive)
REMARK    1  A    between atoms: C_1  and  C_2
REMARK    2  A    between atoms: C_5  and  C_6
REMARK    3  A    between atoms: C_6  and  O_7
REMARK    4  A    between atoms: O_7  and  C_8
REMARK    5  A    between atoms: C_8  and  C_9
REMARK    6  A    between atoms: C_12  and  C_13
REMARK    7  A    between atoms: C_13  and  N_14
REMARK    8  A    between atoms: C_15  and  C_17
REMARK                            x       y       z     vdW  Elec       q    Type
REMARK                         _______ _______ _______ _____ _____    ______ ____
ROOT
ATOM      1  C   UNL     1      44.446   5.479  12.082  0.00  0.00    +0.000 A 
ATOM      2  C   UNL     1      45.099   6.634  11.658  0.00  0.00    +0.000 A 
ATOM      3  C   UNL     1      46.281   7.020  12.289  0.00  0.00    +0.000 A 
ATOM      4  C   UNL     1      46.797   6.238  13.323  0.00  0.00    +0.000 A 
ATOM      5  C   UNL     1      46.064   5.117  13.697  0.00  0.00    +0.000 A 
ATOM      6  N   UNL     1      44.912   4.723  13.110  0.00  0.00    +0.000 NA
ENDROOT
BRANCH   1   7
ATOM      7  C   UNL     1      43.174   5.033  11.398  0.00  0.00    +0.000 C 
BRANCH   7   8
ATOM      8  O   UNL     1      43.500   4.489  10.119  0.00  0.00    +0.000 OA
BRANCH   8   9
ATOM      9  C   UNL     1      44.071   3.183  10.222  0.00  0.00    +0.000 C 
BRANCH   9  14
ATOM     10  C   UNL     1      47.883   2.158   6.017  0.00  0.00    +0.000 C 
ATOM     11  C   UNL     1      46.903   2.477   7.100  0.00  0.00    +0.000 A 
ATOM     12  C   UNL     1      46.431   3.770   7.304  0.00  0.00    +0.000 A 
ATOM     13  C   UNL     1      45.512   4.016   8.321  0.00  0.00    +0.000 A 
ATOM     14  C   UNL     1      45.068   2.954   9.108  0.00  0.00    +0.000 A 
ATOM     15  N   UNL     1      45.531   1.689   8.939  0.00  0.00    +0.000 NA
ATOM     16  C   UNL     1      46.426   1.482   7.946  0.00  0.00    +0.000 A 
ENDBRANCH   9  14
ENDBRANCH   8   9
ENDBRANCH   7   8
ENDBRANCH   1   7
BRANCH   4  17
ATOM     17  C   UNL     1      48.067   6.602  14.036  0.00  0.00    +0.000 C 
BRANCH  17  18
ATOM     18  N   UNL     1      47.934   6.435  15.461  0.00  0.00    +0.000 N 
ATOM     19  C   UNL     1      49.030   6.243  16.263  0.00  0.00    +0.000 C 
ATOM     20  O   UNL     1      50.175   6.254  15.818  0.00  0.00    +0.000 OA
ATOM     21  H   UNL     1      47.016   6.188  15.814  0.00  0.00    +0.000 HD
BRANCH  19  22
ATOM     22  C   UNL     1      48.764   6.085  17.698  0.00  0.00    +0.000 A 
ATOM     23  C   UNL     1      48.987   4.861  18.313  0.00  0.00    +0.000 A 
ATOM     24  S   UNL     1      48.668   4.870  19.989  0.00  0.00    +0.000 S 
ATOM     25  C   UNL     1      48.173   6.498  19.943  0.00  0.00    +0.000 A 
ATOM     26  N   UNL     1      47.739   7.130  21.066  0.00  0.00    +0.000 NA
ATOM     27  C   UNL     1      47.372   8.356  20.879  0.00  0.00    +0.000 A 
ATOM     28  N   UNL     1      47.405   9.006  19.673  0.00  0.00    +0.000 N 
ATOM     29  C   UNL     1      47.862   8.416  18.520  0.00  0.00    +0.000 A 
ATOM     30  O   UNL     1      47.929   9.041  17.465  0.00  0.00    +0.000 OA
ATOM     31  C   UNL     1      48.272   7.033  18.670  0.00  0.00    +0.000 A 
ATOM     32  H   UNL     1      47.116   9.971  19.596  0.00  0.00    +0.000 HD
ENDBRANCH  19  22
ENDBRANCH  17  18
ENDBRANCH   4  17
TORSDOF 7
ENDMDL
MODEL 3
REMARK VINA RESULT:    -8.175      2.431      3.107
REMARK INTER + INTRA:         -12.528
REMARK INTER:                 -11.686
REMARK INTRA:                  -0.842
REMARK UNBOUND:                -1.008
REMARK  Name = 
REMARK  8 active torsions:
REMARK  status: ('A' for Active; 'I' for Inactive)
REMARK    1  A    between atoms: C_1  and  C_2
REMARK    2  A    between atoms: C_5  and  C_6
REMARK    3  A    between atoms: C_6  and  O_7
REMARK    4  A    between atoms: O_7  and  C_8
REMARK    5  A    between atoms: C_8  and  C_9
REMARK    6  A    between atoms: C_12  and  C_13
REMARK    7  A    between atoms: C_13  and  N_14
REMARK    8  A    between atoms: C_15  and  C_17
REMARK                            x       y       z     vdW  Elec       q    Type
REMARK                         _______ _______ _______ _____ _____    ______ ____
ROOT
ATOM      1  C   UNL     1      46.259   4.762  13.030  0.00  0.00    +0.000 A 
ATOM      2  C   UNL     1      46.772   5.966  12.549  0.00  0.00    +0.000 A 
ATOM      3  C   UNL     1      47.612   6.722  13.364  0.00  0.00    +0.000 A 
ATOM      4  C   UNL     1      47.938   6.257  14.639  0.00  0.00    +0.000 A 
ATOM      5  C   UNL     1      47.359   5.059  15.044  0.00  0.00    +0.000 A 
ATOM      6  N   UNL     1      46.534   4.308  14.280  0.00  0.00    +0.000 NA
ENDROOT
BRANCH   1   7
ATOM      7  C   UNL     1      45.361   3.918  12.154  0.00  0.00    +0.000 C 
BRANCH   7   8
ATOM      8  O   UNL     1      44.821   4.735  11.117  0.00  0.00    +0.000 OA
BRANCH   8   9
ATOM      9  C   UNL     1      44.123   3.965  10.136  0.00  0.00    +0.000 C 
BRANCH   9  14
ATOM     10  C   UNL     1      47.814   2.068   6.132  0.00  0.00    +0.000 C 
ATOM     11  C   UNL     1      46.844   2.508   7.179  0.00  0.00    +0.000 A 
ATOM     12  C   UNL     1      46.264   1.606   8.067  0.00  0.00    +0.000 A 
ATOM     13  C   UNL     1      45.371   2.066   9.032  0.00  0.00    +0.000 A 
ATOM     14  C   UNL     1      45.087   3.429   9.101  0.00  0.00    +0.000 A 
ATOM     15  N   UNL     1      45.625   4.323   8.233  0.00  0.00    +0.000 NA
ATOM     16  C   UNL     1      46.486   3.846   7.304  0.00  0.00    +0.000 A 
ENDBRANCH   9  14
ENDBRANCH   8   9
ENDBRANCH   7   8
ENDBRANCH   1   7
BRANCH   4  17
ATOM     17  C   UNL     1      48.841   7.027  15.558  0.00  0.00    +0.000 C 
BRANCH  17  18
ATOM     18  N   UNL     1      49.899   6.194  16.071  0.00  0.00    +0.000 N 
ATOM     19  C   UNL     1      49.888   5.741  17.365  0.00  0.00    +0.000 C 
ATOM     20  O   UNL     1      48.959   5.978  18.133  0.00  0.00    +0.000 OA
ATOM     21  H   UNL     1      50.771   6.183  15.553  0.00  0.00    +0.000 HD
BRANCH  19  22
ATOM     22  C   UNL     1      51.023   4.902  17.769  0.00  0.00    +0.000 A 
ATOM     23  C   UNL     1      52.140   5.482  18.356  0.00  0.00    +0.000 A 
ATOM     24  S   UNL     1      53.341   4.355  18.801  0.00  0.00    +0.000 S 
ATOM     25  C   UNL     1      52.431   3.057  18.180  0.00  0.00    +0.000 A 
ATOM     26  N   UNL     1      52.910   1.784  18.220  0.00  0.00    +0.000 NA
ATOM     27  C   UNL     1      52.125   0.903  17.692  0.00  0.00    +0.000 A 
ATOM     28  N   UNL     1      50.905   1.179  17.132  0.00  0.00    +0.000 N 
ATOM     29  C   UNL     1      50.370   2.444  17.095  0.00  0.00    +0.000 A 
ATOM     30  O   UNL     1      49.252   2.652  16.634  0.00  0.00    +0.000 OA
ATOM     31  C   UNL     1      51.218   3.475  17.662  0.00  0.00    +0.000 A 
ATOM     32  H   UNL     1      50.333   0.442  16.747  0.00  0.00    +0.000 HD
ENDBRANCH  19  22
ENDBRANCH  17  18
ENDBRANCH   4  17
TORSDOF 7
ENDMDL
MODEL 4
REMARK VINA RESULT:    -7.669      1.898      2.163
REMARK INTER + INTRA:         -11.815
REMARK INTER:                 -10.683
REMARK INTRA:                  -1.133
REMARK UNBOUND:                -1.008
REMARK  Name = 
REMARK  8 active torsions:
REMARK  status: ('A' for Active; 'I' for Inactive)
REMARK    1  A    between atoms: C_1  and  C_2
REMARK    2  A    between atoms: C_5  and  C_6
REMARK    3  A    between atoms: C_6  and  O_7
REMARK    4  A    between atoms: O_7  and  C_8
REMARK    5  A    between atoms: C_8  and  C_9
REMARK    6  A    between atoms: C_12  and  C_13
REMARK    7  A    between atoms: C_13  and  N_14
REMARK    8  A    between atoms: C_15  and  C_17
REMARK                            x       y       z     vdW  Elec       q    Type
REMARK                         _______ _______ _______ _____ _____    ______ ____
ROOT
ATOM      1  C   UNL     1      45.384   4.928  12.164  0.00  0.00    +0.000 A 
ATOM      2  C   UNL     1      45.701   5.857  11.173  0.00  0.00    +0.000 A 
ATOM      3  C   UNL     1      46.745   6.755  11.391  0.00  0.00    +0.000 A 
ATOM      4  C   UNL     1      47.463   6.702  12.586  0.00  0.00    +0.000 A 
ATOM      5  C   UNL     1      47.059   5.760  13.527  0.00  0.00    +0.000 A 
ATOM      6  N   UNL     1      46.047   4.882  13.348  0.00  0.00    +0.000 NA
ENDROOT
BRANCH   1   7
ATOM      7  C   UNL     1      44.269   3.933  11.940  0.00  0.00    +0.000 C 
BRANCH   7   8
ATOM      8  O   UNL     1      44.788   2.800  11.244  0.00  0.00    +0.000 OA
BRANCH   8   9
ATOM      9  C   UNL     1      44.135   2.596   9.989  0.00  0.00    +0.000 C 
BRANCH   9  14
ATOM     10  C   UNL     1      48.032   2.260   5.751  0.00  0.00    +0.000 C 
ATOM     11  C   UNL     1      47.023   2.401   6.844  0.00  0.00    +0.000 A 
ATOM     12  C   UNL     1      46.374   3.607   7.091  0.00  0.00    +0.000 A 
ATOM     13  C   UNL     1      45.434   3.687   8.116  0.00  0.00    +0.000 A 
ATOM     14  C   UNL     1      45.149   2.548   8.868  0.00  0.00    +0.000 A 
ATOM     15  N   UNL     1      45.785   1.367   8.657  0.00  0.00    +0.000 NA
ATOM     16  C   UNL     1      46.696   1.321   7.657  0.00  0.00    +0.000 A 
ENDBRANCH   9  14
ENDBRANCH   8   9
ENDBRANCH   7   8
ENDBRANCH   1   7
BRANCH   4  17
ATOM     17  C   UNL     1      48.598   7.640  12.873  0.00  0.00    +0.000 C 
BRANCH  17  18
ATOM     18  N   UNL     1      49.536   7.061  13.800  0.00  0.00    +0.000 N 
ATOM     19  C   UNL     1      50.043   7.784  14.850  0.00  0.00    +0.000 C 
ATOM     20  O   UNL     1      49.688   8.937  15.080  0.00  0.00    +0.000 OA
ATOM     21  H   UNL     1      50.017   6.217  13.506  0.00  0.00    +0.000 HD
BRANCH  19  22
ATOM     22  C   UNL     1      50.991   7.082  15.724  0.00  0.00    +0.000 A 
ATOM     23  C   UNL     1      52.343   7.392  15.670  0.00  0.00    +0.000 A 
ATOM     24  S   UNL     1      53.290   6.512  16.784  0.00  0.00    +0.000 S 
ATOM     25  C   UNL     1      51.933   5.651  17.343  0.00  0.00    +0.000 A 
ATOM     26  N   UNL     1      52.056   4.698  18.305  0.00  0.00    +0.000 NA
ATOM     27  C   UNL     1      50.948   4.108  18.616  0.00  0.00    +0.000 A 
ATOM     28  N   UNL     1      49.730   4.389  18.055  0.00  0.00    +0.000 N 
ATOM     29  C   UNL     1      49.554   5.362  17.102  0.00  0.00    +0.000 A 
ATOM     30  O   UNL     1      48.441   5.628  16.657  0.00  0.00    +0.000 OA
ATOM     31  C   UNL     1      50.770   6.046  16.705  0.00  0.00    +0.000 A 
ATOM     32  H   UNL     1      48.898   3.900  18.352  0.00  0.00    +0.000 HD
ENDBRANCH  19  22
ENDBRANCH  17  18
ENDBRANCH   4  17
TORSDOF 7
ENDMDL
MODEL 5
REMARK VINA RESULT:    -6.998      4.991      9.594
REMARK INTER + INTRA:         -10.870
REMARK INTER:                 -10.000
REMARK INTRA:                  -0.870
REMARK UNBOUND:                -1.008
REMARK  Name = 
REMARK  8 active torsions:
REMARK  status: ('A' for Active; 'I' for Inactive)
REMARK    1  A    between atoms: C_1  and  C_2
REMARK    2  A    between atoms: C_5  and  C_6
REMARK    3  A    between atoms: C_6  and  O_7
REMARK    4  A    between atoms: O_7  and  C_8
REMARK    5  A    between atoms: C_8  and  C_9
REMARK    6  A    between atoms: C_12  and  C_13
REMARK    7  A    between atoms: C_13  and  N_14
REMARK    8  A    between atoms: C_15  and  C_17
REMARK                            x       y       z     vdW  Elec       q    Type
REMARK                         _______ _______ _______ _____ _____    ______ ____
ROOT
ATOM      1  C   UNL     1      51.174   2.331  17.380  0.00  0.00    +0.000 A 
ATOM      2  C   UNL     1      51.791   3.562  17.597  0.00  0.00    +0.000 A 
ATOM      3  C   UNL     1      51.023   4.725  17.561  0.00  0.00    +0.000 A 
ATOM      4  C   UNL     1      49.651   4.637  17.325  0.00  0.00    +0.000 A 
ATOM      5  C   UNL     1      49.126   3.370  17.094  0.00  0.00    +0.000 A 
ATOM      6  N   UNL     1      49.847   2.226  17.113  0.00  0.00    +0.000 NA
ENDROOT
BRANCH   1   7
ATOM      7  C   UNL     1      51.986   1.057  17.434  0.00  0.00    +0.000 C 
BRANCH   7   8
ATOM      8  O   UNL     1      52.910   1.139  18.519  0.00  0.00    +0.000 OA
BRANCH   8   9
ATOM      9  C   UNL     1      54.211   0.675  18.152  0.00  0.00    +0.000 C 
BRANCH   9  14
ATOM     10  C   UNL     1      54.401  -5.067  18.654  0.00  0.00    +0.000 C 
ATOM     11  C   UNL     1      54.389  -3.582  18.485  0.00  0.00    +0.000 A 
ATOM     12  C   UNL     1      54.994  -2.964  17.394  0.00  0.00    +0.000 A 
ATOM     13  C   UNL     1      54.948  -1.577  17.275  0.00  0.00    +0.000 A 
ATOM     14  C   UNL     1      54.281  -0.832  18.247  0.00  0.00    +0.000 A 
ATOM     15  N   UNL     1      53.702  -1.413  19.329  0.00  0.00    +0.000 NA
ATOM     16  C   UNL     1      53.766  -2.762  19.419  0.00  0.00    +0.000 A 
ENDBRANCH   9  14
ENDBRANCH   8   9
ENDBRANCH   7   8
ENDBRANCH   1   7
BRANCH   4  17
ATOM     17  C   UNL     1      48.774   5.854  17.280  0.00  0.00    +0.000 C 
BRANCH  17  18
ATOM     18  N   UNL     1      47.909   5.834  16.127  0.00  0.00    +0.000 N 
ATOM     19  C   UNL     1      48.344   6.267  14.901  0.00  0.00    +0.000 C 
ATOM     20  O   UNL     1      49.497   6.644  14.712  0.00  0.00    +0.000 OA
ATOM     21  H   UNL     1      46.912   5.760  16.298  0.00  0.00    +0.000 HD
BRANCH  19  22
ATOM     22  C   UNL     1      47.369   6.198  13.805  0.00  0.00    +0.000 A 
ATOM     23  C   UNL     1      46.989   7.357  13.141  0.00  0.00    +0.000 A 
ATOM     24  S   UNL     1      45.884   7.085  11.870  0.00  0.00    +0.000 S 
ATOM     25  C   UNL     1      45.836   5.415  12.194  0.00  0.00    +0.000 A 
ATOM     26  N   UNL     1      45.043   4.583  11.467  0.00  0.00    +0.000 NA
ATOM     27  C   UNL     1      45.088   3.345  11.837  0.00  0.00    +0.000 A 
ATOM     28  N   UNL     1      45.857   2.865  12.866  0.00  0.00    +0.000 N 
ATOM     29  C   UNL     1      46.693   3.663  13.608  0.00  0.00    +0.000 A 
ATOM     30  O   UNL     1      47.409   3.195  14.488  0.00  0.00    +0.000 OA
ATOM     31  C   UNL     1      46.670   5.067  13.242  0.00  0.00    +0.000 A 
ATOM     32  H   UNL     1      45.857   1.882  13.097  0.00  0.00    +0.000 HD
ENDBRANCH  19  22
ENDBRANCH  17  18
ENDBRANCH   4  17
TORSDOF 7
ENDMDL
MODEL 6
REMARK VINA RESULT:    -6.986      4.234      5.934
REMARK INTER + INTRA:         -10.852
REMARK INTER:                  -9.681
REMARK INTRA:                  -1.171
REMARK UNBOUND:                -1.008
REMARK  Name = 
REMARK  8 active torsions:
REMARK  status: ('A' for Active; 'I' for Inactive)
REMARK    1  A    between atoms: C_1  and  C_2
REMARK    2  A    between atoms: C_5  and  C_6
REMARK    3  A    between atoms: C_6  and  O_7
REMARK    4  A    between atoms: O_7  and  C_8
REMARK    5  A    between atoms: C_8  and  C_9
REMARK    6  A    between atoms: C_12  and  C_13
REMARK    7  A    between atoms: C_13  and  N_14
REMARK    8  A    between atoms: C_15  and  C_17
REMARK                            x       y       z     vdW  Elec       q    Type
REMARK                         _______ _______ _______ _____ _____    ______ ____
ROOT
ATOM      1  C   UNL     1      46.392   5.453  12.701  0.00  0.00    +0.000 A 
ATOM      2  C   UNL     1      46.906   6.556  12.020  0.00  0.00    +0.000 A 
ATOM      3  C   UNL     1      47.930   7.300  12.604  0.00  0.00    +0.000 A 
ATOM      4  C   UNL     1      48.434   6.921  13.849  0.00  0.00    +0.000 A 
ATOM      5  C   UNL     1      47.842   5.824  14.466  0.00  0.00    +0.000 A 
ATOM      6  N   UNL     1      46.842   5.089  13.929  0.00  0.00    +0.000 NA
ENDROOT
BRANCH   1   7
ATOM      7  C   UNL     1      45.294   4.622  12.076  0.00  0.00    +0.000 C 
BRANCH   7   8
ATOM      8  O   UNL     1      44.731   5.343  10.980  0.00  0.00    +0.000 OA
BRANCH   8   9
ATOM      9  C   UNL     1      44.035   4.484  10.074  0.00  0.00    +0.000 C 
BRANCH   9  14
ATOM     10  C   UNL     1      47.786   2.016   6.455  0.00  0.00    +0.000 C 
ATOM     11  C   UNL     1      46.794   2.606   7.403  0.00  0.00    +0.000 A 
ATOM     12  C   UNL     1      46.044   1.813   8.268  0.00  0.00    +0.000 A 
ATOM     13  C   UNL     1      45.138   2.411   9.140  0.00  0.00    +0.000 A 
ATOM     14  C   UNL     1      45.010   3.799   9.142  0.00  0.00    +0.000 A 
ATOM     15  N   UNL     1      45.716   4.590   8.294  0.00  0.00    +0.000 NA
ATOM     16  C   UNL     1      46.586   3.980   7.455  0.00  0.00    +0.000 A 
ENDBRANCH   9  14
ENDBRANCH   8   9
ENDBRANCH   7   8
ENDBRANCH   1   7
BRANCH   4  17
ATOM     17  C   UNL     1      49.538   7.681  14.523  0.00  0.00    +0.000 C 
BRANCH  17  18
ATOM     18  N   UNL     1      50.755   7.631  13.754  0.00  0.00    +0.000 N 
ATOM     19  C   UNL     1      51.449   8.771  13.438  0.00  0.00    +0.000 C 
ATOM     20  O   UNL     1      51.099   9.880  13.834  0.00  0.00    +0.000 OA
ATOM     21  H   UNL     1      50.933   6.784  13.225  0.00  0.00    +0.000 HD
BRANCH  19  22
ATOM     22  C   UNL     1      52.673   8.588  12.649  0.00  0.00    +0.000 A 
ATOM     23  C   UNL     1      53.896   9.001  13.161  0.00  0.00    +0.000 A 
ATOM     24  S   UNL     1      55.215   8.672  12.130  0.00  0.00    +0.000 S 
ATOM     25  C   UNL     1      54.192   8.010  10.941  0.00  0.00    +0.000 A 
ATOM     26  N   UNL     1      54.693   7.550   9.763  0.00  0.00    +0.000 NA
ATOM     27  C   UNL     1      53.800   7.097   8.945  0.00  0.00    +0.000 A 
ATOM     28  N   UNL     1      52.454   7.059   9.201  0.00  0.00    +0.000 N 
ATOM     29  C   UNL     1      51.907   7.486  10.386  0.00  0.00    +0.000 A 
ATOM     30  O   UNL     1      50.704   7.390  10.606  0.00  0.00    +0.000 OA
ATOM     31  C   UNL     1      52.865   8.019  11.336  0.00  0.00    +0.000 A 
ATOM     32  H   UNL     1      51.809   6.680   8.523  0.00  0.00    +0.000 HD
ENDBRANCH  19  22
ENDBRANCH  17  18
ENDBRANCH   4  17
TORSDOF 7
ENDMDL
MODEL 7
REMARK VINA RESULT:    -6.897      3.274      4.041
REMARK INTER + INTRA:         -10.727
REMARK INTER:                  -9.735
REMARK INTRA:                  -0.992
REMARK UNBOUND:                -1.008
REMARK  Name = 
REMARK  8 active torsions:
REMARK  status: ('A' for Active; 'I' for Inactive)
REMARK    1  A    between atoms: C_1  and  C_2
REMARK    2  A    between atoms: C_5  and  C_6
REMARK    3  A    between atoms: C_6  and  O_7
REMARK    4  A    between atoms: O_7  and  C_8
REMARK    5  A    between atoms: C_8  and  C_9
REMARK    6  A    between atoms: C_12  and  C_13
REMARK    7  A    between atoms: C_13  and  N_14
REMARK    8  A    between atoms: C_15  and  C_17
REMARK                            x       y       z     vdW  Elec       q    Type
REMARK                         _______ _______ _______ _____ _____    ______ ____
ROOT
ATOM      1  C   UNL     1      46.261   5.460  12.491  0.00  0.00    +0.000 A 
ATOM      2  C   UNL     1      46.784   5.224  13.761  0.00  0.00    +0.000 A 
ATOM      3  C   UNL     1      47.822   6.028  14.231  0.00  0.00    +0.000 A 
ATOM      4  C   UNL     1      48.309   7.063  13.432  0.00  0.00    +0.000 A 
ATOM      5  C   UNL     1      47.744   7.208  12.169  0.00  0.00    +0.000 A 
ATOM      6  N   UNL     1      46.744   6.439  11.683  0.00  0.00    +0.000 NA
ENDROOT
BRANCH   1   7
ATOM      7  C   UNL     1      45.123   4.612  11.970  0.00  0.00    +0.000 C 
BRANCH   7   8
ATOM      8  O   UNL     1      44.497   5.291  10.882  0.00  0.00    +0.000 OA
BRANCH   8   9
ATOM      9  C   UNL     1      43.847   4.385   9.988  0.00  0.00    +0.000 C 
BRANCH   9  14
ATOM     10  C   UNL     1      47.758   1.846   6.594  0.00  0.00    +0.000 C 
ATOM     11  C   UNL     1      46.726   2.455   7.486  0.00  0.00    +0.000 A 
ATOM     12  C   UNL     1      45.986   1.687   8.381  0.00  0.00    +0.000 A 
ATOM     13  C   UNL     1      45.041   2.302   9.199  0.00  0.00    +0.000 A 
ATOM     14  C   UNL     1      44.864   3.683   9.116  0.00  0.00    +0.000 A 
ATOM     15  N   UNL     1      45.561   4.447   8.237  0.00  0.00    +0.000 NA
ATOM     16  C   UNL     1      46.469   3.821   7.453  0.00  0.00    +0.000 A 
ENDBRANCH   9  14
ENDBRANCH   8   9
ENDBRANCH   7   8
ENDBRANCH   1   7
BRANCH   4  17
ATOM     17  C   UNL     1      49.420   7.962  13.887  0.00  0.00    +0.000 C 
BRANCH  17  18
ATOM     18  N   UNL     1      50.452   7.219  14.565  0.00  0.00    +0.000 N 
ATOM     19  C   UNL     1      50.610   7.294  15.925  0.00  0.00    +0.000 C 
ATOM     20  O   UNL     1      49.855   7.954  16.635  0.00  0.00    +0.000 OA
ATOM     21  H   UNL     1      51.217   6.867  13.999  0.00  0.00    +0.000 HD
BRANCH  19  22
ATOM     22  C   UNL     1      51.697   6.491  16.498  0.00  0.00    +0.000 A 
ATOM     23  C   UNL     1      51.436   5.618  17.546  0.00  0.00    +0.000 A 
ATOM     24  S   UNL     1      52.804   4.735  18.056  0.00  0.00    +0.000 S 
ATOM     25  C   UNL     1      53.803   5.523  16.927  0.00  0.00    +0.000 A 
ATOM     26  N   UNL     1      55.133   5.244  16.852  0.00  0.00    +0.000 NA
ATOM     27  C   UNL     1      55.774   5.933  15.967  0.00  0.00    +0.000 A 
ATOM     28  N   UNL     1      55.205   6.873  15.146  0.00  0.00    +0.000 N 
ATOM     29  C   UNL     1      53.863   7.167  15.167  0.00  0.00    +0.000 A 
ATOM     30  O   UNL     1      53.374   7.975  14.383  0.00  0.00    +0.000 OA
ATOM     31  C   UNL     1      53.098   6.431  16.155  0.00  0.00    +0.000 A 
ATOM     32  H   UNL     1      55.760   7.369  14.464  0.00  0.00    +0.000 HD
ENDBRANCH  19  22
ENDBRANCH  17  18
ENDBRANCH   4  17
TORSDOF 7
ENDMDL
MODEL 8
REMARK VINA RESULT:    -6.860      4.064      5.358
REMARK INTER + INTRA:         -10.674
REMARK INTER:                  -9.600
REMARK INTRA:                  -1.075
REMARK UNBOUND:                -1.008
REMARK  Name = 
REMARK  8 active torsions:
REMARK  status: ('A' for Active; 'I' for Inactive)
REMARK    1  A    between atoms: C_1  and  C_2
REMARK    2  A    between atoms: C_5  and  C_6
REMARK    3  A    between atoms: C_6  and  O_7
REMARK    4  A    between atoms: O_7  and  C_8
REMARK    5  A    between atoms: C_8  and  C_9
REMARK    6  A    between atoms: C_12  and  C_13
REMARK    7  A    between atoms: C_13  and  N_14
REMARK    8  A    between atoms: C_15  and  C_17
REMARK                            x       y       z     vdW  Elec       q    Type
REMARK                         _______ _______ _______ _____ _____    ______ ____
ROOT
ATOM      1  C   UNL     1      45.191   6.112  11.737  0.00  0.00    +0.000 A 
ATOM      2  C   UNL     1      46.339   5.667  12.391  0.00  0.00    +0.000 A 
ATOM      3  C   UNL     1      47.090   6.571  13.141  0.00  0.00    +0.000 A 
ATOM      4  C   UNL     1      46.674   7.900  13.237  0.00  0.00    +0.000 A 
ATOM      5  C   UNL     1      45.531   8.260  12.530  0.00  0.00    +0.000 A 
ATOM      6  N   UNL     1      44.788   7.408  11.788  0.00  0.00    +0.000 NA
ENDROOT
BRANCH   1   7
ATOM      7  C   UNL     1      44.353   5.143  10.934  0.00  0.00    +0.000 C 
BRANCH   7   8
ATOM      8  O   UNL     1      44.949   3.848  10.998  0.00  0.00    +0.000 OA
BRANCH   8   9
ATOM      9  C   UNL     1      44.381   2.948  10.044  0.00  0.00    +0.000 C 
BRANCH   9  14
ATOM     10  C   UNL     1      47.949   2.144   5.585  0.00  0.00    +0.000 C 
ATOM     11  C   UNL     1      47.026   2.406   6.731  0.00  0.00    +0.000 A 
ATOM     12  C   UNL     1      46.432   3.650   6.925  0.00  0.00    +0.000 A 
ATOM     13  C   UNL     1      45.572   3.842   8.003  0.00  0.00    +0.000 A 
ATOM     14  C   UNL     1      45.309   2.776   8.863  0.00  0.00    +0.000 A 
ATOM     15  N   UNL     1      45.893   1.561   8.704  0.00  0.00    +0.000 NA
ATOM     16  C   UNL     1      46.727   1.405   7.650  0.00  0.00    +0.000 A 
ENDBRANCH   9  14
ENDBRANCH   8   9
ENDBRANCH   7   8
ENDBRANCH   1   7
BRANCH   4  17
ATOM     17  C   UNL     1      47.440   8.915  14.033  0.00  0.00    +0.000 C 
BRANCH  17  18
ATOM     18  N   UNL     1      48.825   8.953  13.641  0.00  0.00    +0.000 N 
ATOM     19  C   UNL     1      49.318   9.963  12.856  0.00  0.00    +0.000 C 
ATOM     20  O   UNL     1      48.622  10.907  12.491  0.00  0.00    +0.000 OA
ATOM     21  H   UNL     1      49.353   8.090  13.722  0.00  0.00    +0.000 HD
BRANCH  19  22
ATOM     22  C   UNL     1      50.747   9.889  12.523  0.00  0.00    +0.000 A 
ATOM     23  C   UNL     1      51.610  10.891  12.947  0.00  0.00    +0.000 A 
ATOM     24  S   UNL     1      53.237  10.620  12.510  0.00  0.00    +0.000 S 
ATOM     25  C   UNL     1      52.837   9.180  11.697  0.00  0.00    +0.000 A 
ATOM     26  N   UNL     1      53.790   8.447  11.060  0.00  0.00    +0.000 NA
ATOM     27  C   UNL     1      53.342   7.391  10.465  0.00  0.00    +0.000 A 
ATOM     28  N   UNL     1      52.028   7.000  10.452  0.00  0.00    +0.000 N 
ATOM     29  C   UNL     1      51.037   7.693  11.104  0.00  0.00    +0.000 A 
ATOM     30  O   UNL     1      49.878   7.289  11.119  0.00  0.00    +0.000 OA
ATOM     31  C   UNL     1      51.485   8.897  11.777  0.00  0.00    +0.000 A 
ATOM     32  H   UNL     1      51.743   6.155   9.978  0.00  0.00    +0.000 HD
ENDBRANCH  19  22
ENDBRANCH  17  18
ENDBRANCH   4  17
TORSDOF 7
ENDMDL
MODEL 9
REMARK VINA RESULT:    -6.765      3.088      9.283
REMARK INTER + INTRA:         -10.541
REMARK INTER:                  -9.844
REMARK INTRA:                  -0.697
REMARK UNBOUND:                -1.008
REMARK  Name = 
REMARK  8 active torsions:
REMARK  status: ('A' for Active; 'I' for Inactive)
REMARK    1  A    between atoms: C_1  and  C_2
REMARK    2  A    between atoms: C_5  and  C_6
REMARK    3  A    between atoms: C_6  and  O_7
REMARK    4  A    between atoms: O_7  and  C_8
REMARK    5  A    between atoms: C_8  and  C_9
REMARK    6  A    between atoms: C_12  and  C_13
REMARK    7  A    between atoms: C_13  and  N_14
REMARK    8  A    between atoms: C_15  and  C_17
REMARK                            x       y       z     vdW  Elec       q    Type
REMARK                         _______ _______ _______ _____ _____    ______ ____
ROOT
ATOM      1  C   UNL     1      49.091   7.652  15.995  0.00  0.00    +0.000 A 
ATOM      2  C   UNL     1      48.433   8.813  15.592  0.00  0.00    +0.000 A 
ATOM      3  C   UNL     1      47.866   8.868  14.319  0.00  0.00    +0.000 A 
ATOM      4  C   UNL     1      47.952   7.758  13.478  0.00  0.00    +0.000 A 
ATOM      5  C   UNL     1      48.650   6.653  13.954  0.00  0.00    +0.000 A 
ATOM      6  N   UNL     1      49.217   6.574  15.179  0.00  0.00    +0.000 NA
ENDROOT
BRANCH   1   7
ATOM      7  C   UNL     1      49.696   7.565  17.377  0.00  0.00    +0.000 C 
BRANCH   7   8
ATOM      8  O   UNL     1      50.547   6.421  17.442  0.00  0.00    +0.000 OA
BRANCH   8   9
ATOM      9  C   UNL     1      49.878   5.286  17.995  0.00  0.00    +0.000 C 
BRANCH   9  14
ATOM     10  C   UNL     1      53.111   0.529  17.565  0.00  0.00    +0.000 C 
ATOM     11  C   UNL     1      52.308   1.781  17.713  0.00  0.00    +0.000 A 
ATOM     12  C   UNL     1      52.805   2.895  18.384  0.00  0.00    +0.000 A 
ATOM     13  C   UNL     1      52.022   4.042  18.488  0.00  0.00    +0.000 A 
ATOM     14  C   UNL     1      50.756   4.058  17.902  0.00  0.00    +0.000 A 
ATOM     15  N   UNL     1      50.245   2.977  17.260  0.00  0.00    +0.000 NA
ATOM     16  C   UNL     1      51.028   1.876  17.179  0.00  0.00    +0.000 A 
ENDBRANCH   9  14
ENDBRANCH   8   9
ENDBRANCH   7   8
ENDBRANCH   1   7
BRANCH   4  17
ATOM     17  C   UNL     1      47.357   7.759  12.100  0.00  0.00    +0.000 C 
BRANCH  17  18
ATOM     18  N   UNL     1      46.697   6.511  11.814  0.00  0.00    +0.000 N 
ATOM     19  C   UNL     1      45.334   6.439  11.674  0.00  0.00    +0.000 C 
ATOM     20  O   UNL     1      44.617   7.434  11.736  0.00  0.00    +0.000 OA
ATOM     21  H   UNL     1      47.219   5.659  11.992  0.00  0.00    +0.000 HD
BRANCH  19  22
ATOM     22  C   UNL     1      44.781   5.110  11.384  0.00  0.00    +0.000 A 
ATOM     23  C   UNL     1      44.021   4.452  12.342  0.00  0.00    +0.000 A 
ATOM     24  S   UNL     1      43.423   2.942  11.820  0.00  0.00    +0.000 S 
ATOM     25  C   UNL     1      44.199   3.092  10.313  0.00  0.00    +0.000 A 
ATOM     26  N   UNL     1      44.112   2.107   9.379  0.00  0.00    +0.000 NA
ATOM     27  C   UNL     1      44.770   2.344   8.291  0.00  0.00    +0.000 A 
ATOM     28  N   UNL     1      45.502   3.479   8.053  0.00  0.00    +0.000 N 
ATOM     29  C   UNL     1      45.594   4.510   8.955  0.00  0.00    +0.000 A 
ATOM     30  O   UNL     1      46.214   5.537   8.692  0.00  0.00    +0.000 OA
ATOM     31  C   UNL     1      44.886   4.289  10.201  0.00  0.00    +0.000 A 
ATOM     32  H   UNL     1      45.983   3.610   7.175  0.00  0.00    +0.000 HD
ENDBRANCH  19  22
ENDBRANCH  17  18
ENDBRANCH   4  17
TORSDOF 7
ENDMDL
