MODEL 1
REMARK VINA RESULT:    -7.331      0.000      0.000
REMARK INTER + INTRA:         -12.768
REMARK INTER:                 -11.830
REMARK INTRA:                  -0.937
REMARK UNBOUND:                -0.937
REMARK  Name = 
REMARK  12 active torsions:
REMARK  status: ('A' for Active; 'I' for Inactive)
REMARK    1  A    between atoms: C_1  and  O_2
REMARK    2  A    between atoms: O_2  and  C_3
REMARK    3  A    between atoms: C_10  and  C_11
REMARK    4  A    between atoms: N_13  and  C_14
REMARK    5  A    between atoms: C_14  and  C_15
REMARK    6  A    between atoms: C_18  and  N_19
REMARK    7  A    between atoms: N_19  and  C_20
REMARK    8  A    between atoms: C_20  and  C_21
REMARK    9  A    between atoms: C_21  and  N_22
REMARK   10  A    between atoms: N_25  and  C_26
REMARK   11  A    between atoms: C_26  and  C_27
REMARK   12  A    between atoms: C_27  and  O_28
REMARK                            x       y       z     vdW  Elec       q    Type
REMARK                         _______ _______ _______ _____ _____    ______ ____
ROOT
ATOM      1  C   UNL     1      46.824   6.676  13.390  0.00  0.00    +0.000 A 
ATOM      2  C   UNL     1      45.561   6.992  12.875  0.00  0.00    +0.000 A 
ATOM      3  C   UNL     1      44.608   5.990  12.650  0.00  0.00    +0.000 A 
ATOM      4  C   UNL     1      44.888   4.649  12.924  0.00  0.00    +0.000 A 
ATOM      5  C   UNL     1      46.175   4.339  13.391  0.00  0.00    +0.000 A 
ATOM      6  C   UNL     1      47.135   5.333  13.613  0.00  0.00    +0.000 A 
ENDROOT
BRANCH   4   7
ATOM      7  N   UNL     1      43.921   3.643  12.920  0.00  0.00    +0.000 N 
ATOM      8  H   UNL     1      44.129   2.903  13.585  0.00  0.00    +0.000 HD
BRANCH   7   9
ATOM      9  C   UNL     1      43.353   3.150  11.660  0.00  0.00    +0.000 C 
BRANCH   9  10
ATOM     10  C   UNL     1      44.497   2.932  10.642  0.00  0.00    +0.000 C 
BRANCH  10  11
ATOM     11  N   UNL     1      44.130   2.885   9.211  0.00  0.00    +0.000 NA
ATOM     12  C   UNL     1      44.685   1.655   8.593  0.00  0.00    +0.000 C 
ATOM     13  C   UNL     1      46.220   1.700   8.350  0.00  0.00    +0.000 C 
ATOM     14  N   UNL     1      46.688   2.870   7.563  0.00  0.00    +0.000 NA
ATOM     15  C   UNL     1      46.115   4.095   8.163  0.00  0.00    +0.000 C 
ATOM     16  C   UNL     1      44.591   4.049   8.431  0.00  0.00    +0.000 C 
BRANCH  14  17
ATOM     17  C   UNL     1      46.333   2.688   6.136  0.00  0.00    +0.000 C 
BRANCH  17  18
ATOM     18  C   UNL     1      47.543   2.611   5.189  0.00  0.00    +0.000 C 
BRANCH  18  19
ATOM     19  O   UNL     1      48.526   1.716   5.698  0.00  0.00    +0.000 OA
ATOM     20  H   UNL     1      48.058   0.872   5.847  0.00  0.00    +0.000 HD
ENDBRANCH  18  19
ENDBRANCH  17  18
ENDBRANCH  14  17
ENDBRANCH  10  11
ENDBRANCH   9  10
ENDBRANCH   7   9
ENDBRANCH   4   7
BRANCH   1  21
ATOM     21  C   UNL     1      47.779   7.767  13.799  0.00  0.00    +0.000 C 
BRANCH  21  24
ATOM     22  C   UNL     1      49.064   7.194  15.811  0.00  0.00    +0.000 C 
ATOM     23  O   UNL     1      49.911   6.632  15.124  0.00  0.00    +0.000 OA
ATOM     24  N   UNL     1      47.971   7.772  15.235  0.00  0.00    +0.000 N 
ATOM     25  H   UNL     1      47.278   8.239  15.809  0.00  0.00    +0.000 HD
BRANCH  22  33
ATOM     26  C   UNL     1      48.807   4.854  18.339  0.00  0.00    +0.000 A 
ATOM     27  N   UNL     1      48.727   4.174  19.505  0.00  0.00    +0.000 NA
ATOM     28  C   UNL     1      48.926   4.846  20.641  0.00  0.00    +0.000 A 
ATOM     29  N   UNL     1      49.211   6.138  20.765  0.00  0.00    +0.000 NA
ATOM     30  C   UNL     1      49.269   6.776  19.587  0.00  0.00    +0.000 A 
ATOM     31  S   UNL     1      49.633   8.437  19.551  0.00  0.00    +0.000 S 
ATOM     32  C   UNL     1      49.520   8.479  17.860  0.00  0.00    +0.000 A 
ATOM     33  C   UNL     1      49.204   7.251  17.282  0.00  0.00    +0.000 A 
ATOM     34  C   UNL     1      49.081   6.227  18.321  0.00  0.00    +0.000 A 
BRANCH  26  36
ATOM     35  C   UNL     1      47.524   3.234  17.258  0.00  0.00    +0.000 C 
ATOM     36  O   UNL     1      48.611   4.154  17.165  0.00  0.00    +0.000 OA
ENDBRANCH  26  36
ENDBRANCH  22  33
ENDBRANCH  21  24
ENDBRANCH   1  21
TORSDOF 11
ENDMDL
MODEL 2
REMARK VINA RESULT:    -7.150      1.743      2.595
REMARK INTER + INTRA:         -12.476
REMARK INTER:                 -11.200
REMARK INTRA:                  -1.276
REMARK UNBOUND:                -0.937
REMARK  Name = 
REMARK  12 active torsions:
REMARK  status: ('A' for Active; 'I' for Inactive)
REMARK    1  A    between atoms: C_1  and  O_2
REMARK    2  A    between atoms: O_2  and  C_3
REMARK    3  A    between atoms: C_10  and  C_11
REMARK    4  A    between atoms: N_13  and  C_14
REMARK    5  A    between atoms: C_14  and  C_15
REMARK    6  A    between atoms: C_18  and  N_19
REMARK    7  A    between atoms: N_19  and  C_20
REMARK    8  A    between atoms: C_20  and  C_21
REMARK    9  A    between atoms: C_21  and  N_22
REMARK   10  A    between atoms: N_25  and  C_26
REMARK   11  A    between atoms: C_26  and  C_27
REMARK   12  A    between atoms: C_27  and  O_28
REMARK                            x       y       z     vdW  Elec       q    Type
REMARK                         _______ _______ _______ _____ _____    ______ ____
ROOT
ATOM      1  C   UNL     1      47.396   8.404  13.417  0.00  0.00    +0.000 A 
ATOM      2  C   UNL     1      46.201   9.133  13.428  0.00  0.00    +0.000 A 
ATOM      3  C   UNL     1      45.149   8.799  12.564  0.00  0.00    +0.000 A 
ATOM      4  C   UNL     1      45.261   7.737  11.663  0.00  0.00    +0.000 A 
ATOM      5  C   UNL     1      46.482   7.047  11.626  0.00  0.00    +0.000 A 
ATOM      6  C   UNL     1      47.540   7.377  12.481  0.00  0.00    +0.000 A 
ENDROOT
BRANCH   4   7
ATOM      7  N   UNL     1      44.185   7.228  10.935  0.00  0.00    +0.000 N 
ATOM      8  H   UNL     1      43.644   7.959  10.481  0.00  0.00    +0.000 HD
BRANCH   7   9
ATOM      9  C   UNL     1      43.359   6.142  11.474  0.00  0.00    +0.000 C 
BRANCH   9  10
ATOM     10  C   UNL     1      43.543   4.883  10.593  0.00  0.00    +0.000 C 
BRANCH  10  11
ATOM     11  N   UNL     1      44.889   4.273  10.559  0.00  0.00    +0.000 NA
ATOM     12  C   UNL     1      45.570   4.634   9.291  0.00  0.00    +0.000 C 
ATOM     13  C   UNL     1      45.035   3.881   8.041  0.00  0.00    +0.000 C 
ATOM     14  N   UNL     1      45.034   2.401   8.163  0.00  0.00    +0.000 NA
ATOM     15  C   UNL     1      44.377   2.039   9.439  0.00  0.00    +0.000 C 
ATOM     16  C   UNL     1      44.888   2.803  10.685  0.00  0.00    +0.000 C 
BRANCH  14  17
ATOM     17  C   UNL     1      46.419   1.887   8.045  0.00  0.00    +0.000 C 
BRANCH  17  18
ATOM     18  C   UNL     1      47.228   2.512   6.896  0.00  0.00    +0.000 C 
BRANCH  18  19
ATOM     19  O   UNL     1      48.110   1.555   6.320  0.00  0.00    +0.000 OA
ATOM     20  H   UNL     1      47.548   0.791   6.086  0.00  0.00    +0.000 HD
ENDBRANCH  18  19
ENDBRANCH  17  18
ENDBRANCH  14  17
ENDBRANCH  10  11
ENDBRANCH   9  10
ENDBRANCH   7   9
ENDBRANCH   4   7
BRANCH   1  21
ATOM     21  C   UNL     1      48.451   8.647  14.464  0.00  0.00    +0.000 C 
BRANCH  21  24
ATOM     22  C   UNL     1      49.606   7.099  15.980  0.00  0.00    +0.000 C 
ATOM     23  O   UNL     1      50.693   7.527  15.607  0.00  0.00    +0.000 OA
ATOM     24  N   UNL     1      48.446   7.592  15.456  0.00  0.00    +0.000 N 
ATOM     25  H   UNL     1      47.551   7.238  15.773  0.00  0.00    +0.000 HD
BRANCH  22  33
ATOM     26  C   UNL     1      47.594   4.323  16.398  0.00  0.00    +0.000 A 
ATOM     27  N   UNL     1      46.939   3.220  16.825  0.00  0.00    +0.000 NA
ATOM     28  C   UNL     1      47.330   2.659  17.971  0.00  0.00    +0.000 A 
ATOM     29  N   UNL     1      48.320   3.063  18.760  0.00  0.00    +0.000 NA
ATOM     30  C   UNL     1      48.934   4.165  18.307  0.00  0.00    +0.000 A 
ATOM     31  S   UNL     1      50.235   4.821  19.184  0.00  0.00    +0.000 S 
ATOM     32  C   UNL     1      50.431   6.074  18.060  0.00  0.00    +0.000 A 
ATOM     33  C   UNL     1      49.525   6.033  17.002  0.00  0.00    +0.000 A 
ATOM     34  C   UNL     1      48.646   4.870  17.141  0.00  0.00    +0.000 A 
BRANCH  26  36
ATOM     35  C   UNL     1      46.876   3.917  14.216  0.00  0.00    +0.000 C 
ATOM     36  O   UNL     1      47.194   4.894  15.206  0.00  0.00    +0.000 OA
ENDBRANCH  26  36
ENDBRANCH  22  33
ENDBRANCH  21  24
ENDBRANCH   1  21
TORSDOF 11
ENDMDL
MODEL 3
REMARK VINA RESULT:    -6.693      1.798      1.985
REMARK INTER + INTRA:         -11.739
REMARK INTER:                 -10.600
REMARK INTRA:                  -1.139
REMARK UNBOUND:                -0.937
REMARK  Name = 
REMARK  12 active torsions:
REMARK  status: ('A' for Active; 'I' for Inactive)
REMARK    1  A    between atoms: C_1  and  O_2
REMARK    2  A    between atoms: O_2  and  C_3
REMARK    3  A    between atoms: C_10  and  C_11
REMARK    4  A    between atoms: N_13  and  C_14
REMARK    5  A    between atoms: C_14  and  C_15
REMARK    6  A    between atoms: C_18  and  N_19
REMARK    7  A    between atoms: N_19  and  C_20
REMARK    8  A    between atoms: C_20  and  C_21
REMARK    9  A    between atoms: C_21  and  N_22
REMARK   10  A    between atoms: N_25  and  C_26
REMARK   11  A    between atoms: C_26  and  C_27
REMARK   12  A    between atoms: C_27  and  O_28
REMARK                            x       y       z     vdW  Elec       q    Type
REMARK                         _______ _______ _______ _____ _____    ______ ____
ROOT
ATOM      1  C   UNL     1      46.582   7.465  13.156  0.00  0.00    +0.000 A 
ATOM      2  C   UNL     1      45.285   7.514  12.632  0.00  0.00    +0.000 A 
ATOM      3  C   UNL     1      44.523   6.347  12.493  0.00  0.00    +0.000 A 
ATOM      4  C   UNL     1      45.032   5.100  12.866  0.00  0.00    +0.000 A 
ATOM      5  C   UNL     1      46.351   5.058  13.342  0.00  0.00    +0.000 A 
ATOM      6  C   UNL     1      47.122   6.218  13.479  0.00  0.00    +0.000 A 
ENDROOT
BRANCH   4   7
ATOM      7  N   UNL     1      44.256   3.944  12.949  0.00  0.00    +0.000 N 
ATOM      8  H   UNL     1      44.678   3.236  13.543  0.00  0.00    +0.000 HD
BRANCH   7   9
ATOM      9  C   UNL     1      43.602   3.390  11.757  0.00  0.00    +0.000 C 
BRANCH   9  10
ATOM     10  C   UNL     1      44.687   2.987  10.729  0.00  0.00    +0.000 C 
BRANCH  10  11
ATOM     11  N   UNL     1      44.265   2.855   9.318  0.00  0.00    +0.000 NA
ATOM     12  C   UNL     1      44.868   1.635   8.728  0.00  0.00    +0.000 C 
ATOM     13  C   UNL     1      46.386   1.758   8.418  0.00  0.00    +0.000 C 
ATOM     14  N   UNL     1      46.751   2.918   7.564  0.00  0.00    +0.000 NA
ATOM     15  C   UNL     1      46.130   4.133   8.137  0.00  0.00    +0.000 C 
ATOM     16  C   UNL     1      44.623   4.009   8.471  0.00  0.00    +0.000 C 
BRANCH  14  17
ATOM     17  C   UNL     1      46.350   2.653   6.162  0.00  0.00    +0.000 C 
BRANCH  17  18
ATOM     18  C   UNL     1      47.511   2.695   5.155  0.00  0.00    +0.000 C 
BRANCH  18  19
ATOM     19  O   UNL     1      48.501   1.726   5.484  0.00  0.00    +0.000 OA
ATOM     20  H   UNL     1      48.010   0.970   5.858  0.00  0.00    +0.000 HD
ENDBRANCH  18  19
ENDBRANCH  17  18
ENDBRANCH  14  17
ENDBRANCH  10  11
ENDBRANCH   9  10
ENDBRANCH   7   9
ENDBRANCH   4   7
BRANCH   1  21
ATOM     21  C   UNL     1      47.329   8.734  13.472  0.00  0.00    +0.000 C 
BRANCH  21  24
ATOM     22  C   UNL     1      48.783   8.680  15.450  0.00  0.00    +0.000 C 
ATOM     23  O   UNL     1      47.891   9.170  16.134  0.00  0.00    +0.000 OA
ATOM     24  N   UNL     1      48.591   8.442  14.119  0.00  0.00    +0.000 N 
ATOM     25  H   UNL     1      49.331   8.031  13.562  0.00  0.00    +0.000 HD
BRANCH  22  33
ATOM     26  C   UNL     1      50.203   5.756  16.618  0.00  0.00    +0.000 A 
ATOM     27  N   UNL     1      50.972   4.792  17.171  0.00  0.00    +0.000 NA
ATOM     28  C   UNL     1      52.178   5.133  17.630  0.00  0.00    +0.000 A 
ATOM     29  N   UNL     1      52.732   6.341  17.598  0.00  0.00    +0.000 NA
ATOM     30  C   UNL     1      51.931   7.269  17.054  0.00  0.00    +0.000 A 
ATOM     31  S   UNL     1      52.478   8.873  16.920  0.00  0.00    +0.000 S 
ATOM     32  C   UNL     1      51.024   9.366  16.202  0.00  0.00    +0.000 A 
ATOM     33  C   UNL     1      50.092   8.341  16.048  0.00  0.00    +0.000 A 
ATOM     34  C   UNL     1      50.652   7.079  16.536  0.00  0.00    +0.000 A 
BRANCH  26  36
ATOM     35  C   UNL     1      48.091   4.934  17.166  0.00  0.00    +0.000 C 
ATOM     36  O   UNL     1      48.961   5.397  16.134  0.00  0.00    +0.000 OA
ENDBRANCH  26  36
ENDBRANCH  22  33
ENDBRANCH  21  24
ENDBRANCH   1  21
TORSDOF 11
ENDMDL
MODEL 4
REMARK VINA RESULT:    -6.589      2.306      2.888
REMARK INTER + INTRA:         -11.572
REMARK INTER:                 -10.317
REMARK INTRA:                  -1.255
REMARK UNBOUND:                -0.937
REMARK  Name = 
REMARK  12 active torsions:
REMARK  status: ('A' for Active; 'I' for Inactive)
REMARK    1  A    between atoms: C_1  and  O_2
REMARK    2  A    between atoms: O_2  and  C_3
REMARK    3  A    between atoms: C_10  and  C_11
REMARK    4  A    between atoms: N_13  and  C_14
REMARK    5  A    between atoms: C_14  and  C_15
REMARK    6  A    between atoms: C_18  and  N_19
REMARK    7  A    between atoms: N_19  and  C_20
REMARK    8  A    between atoms: C_20  and  C_21
REMARK    9  A    between atoms: C_21  and  N_22
REMARK   10  A    between atoms: N_25  and  C_26
REMARK   11  A    between atoms: C_26  and  C_27
REMARK   12  A    between atoms: C_27  and  O_28
REMARK                            x       y       z     vdW  Elec       q    Type
REMARK                         _______ _______ _______ _____ _____    ______ ____
ROOT
ATOM      1  C   UNL     1      47.985   7.623  13.087  0.00  0.00    +0.000 A 
ATOM      2  C   UNL     1      47.744   6.263  13.312  0.00  0.00    +0.000 A 
ATOM      3  C   UNL     1      46.441   5.749  13.267  0.00  0.00    +0.000 A 
ATOM      4  C   UNL     1      45.345   6.574  13.004  0.00  0.00    +0.000 A 
ATOM      5  C   UNL     1      45.595   7.944  12.831  0.00  0.00    +0.000 A 
ATOM      6  C   UNL     1      46.892   8.468  12.879  0.00  0.00    +0.000 A 
ENDROOT
BRANCH   4   7
ATOM      7  N   UNL     1      44.063   6.092  12.740  0.00  0.00    +0.000 N 
ATOM      8  H   UNL     1      43.896   5.183  13.164  0.00  0.00    +0.000 HD
BRANCH   7   9
ATOM      9  C   UNL     1      43.467   6.231  11.406  0.00  0.00    +0.000 C 
BRANCH   9  10
ATOM     10  C   UNL     1      43.627   4.895  10.641  0.00  0.00    +0.000 C 
BRANCH  10  11
ATOM     11  N   UNL     1      44.982   4.306  10.586  0.00  0.00    +0.000 NA
ATOM     12  C   UNL     1      45.660   4.727   9.335  0.00  0.00    +0.000 C 
ATOM     13  C   UNL     1      45.138   4.017   8.055  0.00  0.00    +0.000 C 
ATOM     14  N   UNL     1      45.158   2.533   8.119  0.00  0.00    +0.000 NA
ATOM     15  C   UNL     1      44.504   2.111   9.378  0.00  0.00    +0.000 C 
ATOM     16  C   UNL     1      45.002   2.832  10.654  0.00  0.00    +0.000 C 
BRANCH  14  17
ATOM     17  C   UNL     1      46.550   2.044   7.983  0.00  0.00    +0.000 C 
BRANCH  17  18
ATOM     18  C   UNL     1      47.336   2.689   6.830  0.00  0.00    +0.000 C 
BRANCH  18  19
ATOM     19  O   UNL     1      48.318   1.791   6.324  0.00  0.00    +0.000 OA
ATOM     20  H   UNL     1      49.136   1.998   6.817  0.00  0.00    +0.000 HD
ENDBRANCH  18  19
ENDBRANCH  17  18
ENDBRANCH  14  17
ENDBRANCH  10  11
ENDBRANCH   9  10
ENDBRANCH   7   9
ENDBRANCH   4   7
BRANCH   1  21
ATOM     21  C   UNL     1      49.394   8.140  12.956  0.00  0.00    +0.000 C 
BRANCH  21  24
ATOM     22  C   UNL     1      50.894   7.991  14.894  0.00  0.00    +0.000 C 
ATOM     23  O   UNL     1      50.699   9.174  15.151  0.00  0.00    +0.000 OA
ATOM     24  N   UNL     1      50.295   7.403  13.818  0.00  0.00    +0.000 N 
ATOM     25  H   UNL     1      50.457   6.423  13.615  0.00  0.00    +0.000 HD
BRANCH  22  33
ATOM     26  C   UNL     1      50.421   5.248  16.939  0.00  0.00    +0.000 A 
ATOM     27  N   UNL     1      50.516   4.225  17.817  0.00  0.00    +0.000 NA
ATOM     28  C   UNL     1      51.712   3.958  18.348  0.00  0.00    +0.000 A 
ATOM     29  N   UNL     1      52.854   4.591  18.099  0.00  0.00    +0.000 NA
ATOM     30  C   UNL     1      52.713   5.605  17.234  0.00  0.00    +0.000 A 
ATOM     31  S   UNL     1      54.073   6.523  16.789  0.00  0.00    +0.000 S 
ATOM     32  C   UNL     1      53.143   7.507  15.770  0.00  0.00    +0.000 A 
ATOM     33  C   UNL     1      51.790   7.174  15.740  0.00  0.00    +0.000 A 
ATOM     34  C   UNL     1      51.543   6.014  16.600  0.00  0.00    +0.000 A 
BRANCH  26  36
ATOM     35  C   UNL     1      48.315   6.183  17.296  0.00  0.00    +0.000 C 
ATOM     36  O   UNL     1      49.185   5.514  16.384  0.00  0.00    +0.000 OA
ENDBRANCH  26  36
ENDBRANCH  22  33
ENDBRANCH  21  24
ENDBRANCH   1  21
TORSDOF 11
ENDMDL
MODEL 5
REMARK VINA RESULT:    -6.449      3.607      8.783
REMARK INTER + INTRA:         -11.345
REMARK INTER:                  -9.593
REMARK INTRA:                  -1.752
REMARK UNBOUND:                -0.937
REMARK  Name = 
REMARK  12 active torsions:
REMARK  status: ('A' for Active; 'I' for Inactive)
REMARK    1  A    between atoms: C_1  and  O_2
REMARK    2  A    between atoms: O_2  and  C_3
REMARK    3  A    between atoms: C_10  and  C_11
REMARK    4  A    between atoms: N_13  and  C_14
REMARK    5  A    between atoms: C_14  and  C_15
REMARK    6  A    between atoms: C_18  and  N_19
REMARK    7  A    between atoms: N_19  and  C_20
REMARK    8  A    between atoms: C_20  and  C_21
REMARK    9  A    between atoms: C_21  and  N_22
REMARK   10  A    between atoms: N_25  and  C_26
REMARK   11  A    between atoms: C_26  and  C_27
REMARK   12  A    between atoms: C_27  and  O_28
REMARK                            x       y       z     vdW  Elec       q    Type
REMARK                         _______ _______ _______ _____ _____    ______ ____
ROOT
ATOM      1  C   UNL     1      49.319   8.869  15.982  0.00  0.00    +0.000 A 
ATOM      2  C   UNL     1      50.396   8.782  16.872  0.00  0.00    +0.000 A 
ATOM      3  C   UNL     1      50.217   9.018  18.241  0.00  0.00    +0.000 A 
ATOM      4  C   UNL     1      48.964   9.355  18.760  0.00  0.00    +0.000 A 
ATOM      5  C   UNL     1      47.903   9.490  17.851  0.00  0.00    +0.000 A 
ATOM      6  C   UNL     1      48.074   9.260  16.481  0.00  0.00    +0.000 A 
ENDROOT
BRANCH   4   7
ATOM      7  N   UNL     1      48.681   9.395  20.126  0.00  0.00    +0.000 N 
ATOM      8  H   UNL     1      49.488   9.665  20.681  0.00  0.00    +0.000 HD
BRANCH   7   9
ATOM      9  C   UNL     1      47.865   8.350  20.755  0.00  0.00    +0.000 C 
BRANCH   9  10
ATOM     10  C   UNL     1      48.735   7.088  20.963  0.00  0.00    +0.000 C 
BRANCH  10  11
ATOM     11  N   UNL     1      48.134   5.785  20.604  0.00  0.00    +0.000 NA
ATOM     12  C   UNL     1      49.161   4.719  20.694  0.00  0.00    +0.000 C 
ATOM     13  C   UNL     1      50.194   4.728  19.533  0.00  0.00    +0.000 C 
ATOM     14  N   UNL     1      49.598   4.688  18.173  0.00  0.00    +0.000 NA
ATOM     15  C   UNL     1      48.555   5.735  18.090  0.00  0.00    +0.000 C 
ATOM     16  C   UNL     1      47.537   5.747  19.256  0.00  0.00    +0.000 C 
BRANCH  14  17
ATOM     17  C   UNL     1      49.092   3.326  17.888  0.00  0.00    +0.000 C 
BRANCH  17  18
ATOM     18  C   UNL     1      50.146   2.369  17.306  0.00  0.00    +0.000 C 
BRANCH  18  19
ATOM     19  O   UNL     1      49.677   1.773  16.101  0.00  0.00    +0.000 OA
ATOM     20  H   UNL     1      49.028   1.099  16.380  0.00  0.00    +0.000 HD
ENDBRANCH  18  19
ENDBRANCH  17  18
ENDBRANCH  14  17
ENDBRANCH  10  11
ENDBRANCH   9  10
ENDBRANCH   7   9
ENDBRANCH   4   7
BRANCH   1  21
ATOM     21  C   UNL     1      49.474   8.440  14.547  0.00  0.00    +0.000 C 
BRANCH  21  24
ATOM     22  C   UNL     1      48.044   7.006  13.159  0.00  0.00    +0.000 C 
ATOM     23  O   UNL     1      49.006   6.299  12.878  0.00  0.00    +0.000 OA
ATOM     24  N   UNL     1      48.191   8.093  13.971  0.00  0.00    +0.000 N 
ATOM     25  H   UNL     1      47.391   8.669  14.204  0.00  0.00    +0.000 HD
BRANCH  22  33
ATOM     26  C   UNL     1      46.090   4.160  13.055  0.00  0.00    +0.000 A 
ATOM     27  N   UNL     1      45.153   3.210  12.839  0.00  0.00    +0.000 NA
ATOM     28  C   UNL     1      44.044   3.556  12.182  0.00  0.00    +0.000 A 
ATOM     29  N   UNL     1      43.739   4.761  11.710  0.00  0.00    +0.000 NA
ATOM     30  C   UNL     1      44.700   5.669  11.934  0.00  0.00    +0.000 A 
ATOM     31  S   UNL     1      44.478   7.270  11.408  0.00  0.00    +0.000 S 
ATOM     32  C   UNL     1      45.992   7.735  12.012  0.00  0.00    +0.000 A 
ATOM     33  C   UNL     1      46.702   6.701  12.620  0.00  0.00    +0.000 A 
ATOM     34  C   UNL     1      45.910   5.469  12.594  0.00  0.00    +0.000 A 
BRANCH  26  36
ATOM     35  C   UNL     1      47.124   4.061  15.143  0.00  0.00    +0.000 C 
ATOM     36  O   UNL     1      47.231   3.800  13.744  0.00  0.00    +0.000 OA
ENDBRANCH  26  36
ENDBRANCH  22  33
ENDBRANCH  21  24
ENDBRANCH   1  21
TORSDOF 11
ENDMDL
MODEL 6
REMARK VINA RESULT:    -6.298      2.836      9.302
REMARK INTER + INTRA:         -11.102
REMARK INTER:                  -9.574
REMARK INTRA:                  -1.528
REMARK UNBOUND:                -0.937
REMARK  Name = 
REMARK  12 active torsions:
REMARK  status: ('A' for Active; 'I' for Inactive)
REMARK    1  A    between atoms: C_1  and  O_2
REMARK    2  A    between atoms: O_2  and  C_3
REMARK    3  A    between atoms: C_10  and  C_11
REMARK    4  A    between atoms: N_13  and  C_14
REMARK    5  A    between atoms: C_14  and  C_15
REMARK    6  A    between atoms: C_18  and  N_19
REMARK    7  A    between atoms: N_19  and  C_20
REMARK    8  A    between atoms: C_20  and  C_21
REMARK    9  A    between atoms: C_21  and  N_22
REMARK   10  A    between atoms: N_25  and  C_26
REMARK   11  A    between atoms: C_26  and  C_27
REMARK   12  A    between atoms: C_27  and  O_28
REMARK                            x       y       z     vdW  Elec       q    Type
REMARK                         _______ _______ _______ _____ _____    ______ ____
ROOT
ATOM      1  C   UNL     1      48.501   8.191  13.073  0.00  0.00    +0.000 A 
ATOM      2  C   UNL     1      47.681   8.572  14.141  0.00  0.00    +0.000 A 
ATOM      3  C   UNL     1      48.236   9.019  15.347  0.00  0.00    +0.000 A 
ATOM      4  C   UNL     1      49.620   9.093  15.525  0.00  0.00    +0.000 A 
ATOM      5  C   UNL     1      50.432   8.660  14.465  0.00  0.00    +0.000 A 
ATOM      6  C   UNL     1      49.886   8.206  13.259  0.00  0.00    +0.000 A 
ENDROOT
BRANCH   4   7
ATOM      7  N   UNL     1      50.225   9.723  16.613  0.00  0.00    +0.000 N 
ATOM      8  H   UNL     1      51.214   9.897  16.459  0.00  0.00    +0.000 HD
BRANCH   7   9
ATOM      9  C   UNL     1      49.914   9.312  17.988  0.00  0.00    +0.000 C 
BRANCH   9  10
ATOM     10  C   UNL     1      50.527   7.916  18.248  0.00  0.00    +0.000 C 
BRANCH  10  11
ATOM     11  N   UNL     1      49.639   6.884  18.826  0.00  0.00    +0.000 NA
ATOM     12  C   UNL     1      50.432   5.678  19.170  0.00  0.00    +0.000 C 
ATOM     13  C   UNL     1      50.866   4.828  17.943  0.00  0.00    +0.000 C 
ATOM     14  N   UNL     1      49.753   4.415  17.050  0.00  0.00    +0.000 NA
ATOM     15  C   UNL     1      48.946   5.613  16.726  0.00  0.00    +0.000 C 
ATOM     16  C   UNL     1      48.531   6.477  17.941  0.00  0.00    +0.000 C 
BRANCH  14  17
ATOM     17  C   UNL     1      48.972   3.332  17.692  0.00  0.00    +0.000 C 
BRANCH  17  18
ATOM     18  C   UNL     1      47.702   2.929  16.924  0.00  0.00    +0.000 C 
BRANCH  18  19
ATOM     19  O   UNL     1      46.534   3.317  17.639  0.00  0.00    +0.000 OA
ATOM     20  H   UNL     1      46.765   3.224  18.584  0.00  0.00    +0.000 HD
ENDBRANCH  18  19
ENDBRANCH  17  18
ENDBRANCH  14  17
ENDBRANCH  10  11
ENDBRANCH   9  10
ENDBRANCH   7   9
ENDBRANCH   4   7
BRANCH   1  21
ATOM     21  C   UNL     1      47.908   7.884  11.723  0.00  0.00    +0.000 C 
BRANCH  21  24
ATOM     22  C   UNL     1      45.832   6.588  11.526  0.00  0.00    +0.000 C 
ATOM     23  O   UNL     1      45.198   7.615  11.310  0.00  0.00    +0.000 OA
ATOM     24  N   UNL     1      47.178   6.633  11.753  0.00  0.00    +0.000 N 
ATOM     25  H   UNL     1      47.696   5.780  11.925  0.00  0.00    +0.000 HD
BRANCH  22  33
ATOM     26  C   UNL     1      45.342   4.089   9.193  0.00  0.00    +0.000 A 
ATOM     27  N   UNL     1      44.972   2.997   8.486  0.00  0.00    +0.000 NA
ATOM     28  C   UNL     1      44.247   2.063   9.104  0.00  0.00    +0.000 A 
ATOM     29  N   UNL     1      43.840   2.075  10.369  0.00  0.00    +0.000 NA
ATOM     30  C   UNL     1      44.216   3.179  11.029  0.00  0.00    +0.000 A 
ATOM     31  S   UNL     1      43.793   3.363  12.665  0.00  0.00    +0.000 S 
ATOM     32  C   UNL     1      44.563   4.871  12.751  0.00  0.00    +0.000 A 
ATOM     33  C   UNL     1      45.153   5.274  11.555  0.00  0.00    +0.000 A 
ATOM     34  C   UNL     1      44.965   4.243  10.532  0.00  0.00    +0.000 A 
BRANCH  26  36
ATOM     35  C   UNL     1      46.901   4.498   7.508  0.00  0.00    +0.000 C 
ATOM     36  O   UNL     1      46.102   5.048   8.553  0.00  0.00    +0.000 OA
ENDBRANCH  26  36
ENDBRANCH  22  33
ENDBRANCH  21  24
ENDBRANCH   1  21
TORSDOF 11
ENDMDL
MODEL 7
REMARK VINA RESULT:    -6.211      3.331      5.416
REMARK INTER + INTRA:         -10.961
REMARK INTER:                  -9.764
REMARK INTRA:                  -1.197
REMARK UNBOUND:                -0.937
REMARK  Name = 
REMARK  12 active torsions:
REMARK  status: ('A' for Active; 'I' for Inactive)
REMARK    1  A    between atoms: C_1  and  O_2
REMARK    2  A    between atoms: O_2  and  C_3
REMARK    3  A    between atoms: C_10  and  C_11
REMARK    4  A    between atoms: N_13  and  C_14
REMARK    5  A    between atoms: C_14  and  C_15
REMARK    6  A    between atoms: C_18  and  N_19
REMARK    7  A    between atoms: N_19  and  C_20
REMARK    8  A    between atoms: C_20  and  C_21
REMARK    9  A    between atoms: C_21  and  N_22
REMARK   10  A    between atoms: N_25  and  C_26
REMARK   11  A    between atoms: C_26  and  C_27
REMARK   12  A    between atoms: C_27  and  O_28
REMARK                            x       y       z     vdW  Elec       q    Type
REMARK                         _______ _______ _______ _____ _____    ______ ____
ROOT
ATOM      1  C   UNL     1      48.753   7.601  17.553  0.00  0.00    +0.000 A 
ATOM      2  C   UNL     1      48.923   6.696  16.499  0.00  0.00    +0.000 A 
ATOM      3  C   UNL     1      48.700   7.090  15.173  0.00  0.00    +0.000 A 
ATOM      4  C   UNL     1      48.297   8.391  14.862  0.00  0.00    +0.000 A 
ATOM      5  C   UNL     1      48.082   9.274  15.931  0.00  0.00    +0.000 A 
ATOM      6  C   UNL     1      48.296   8.888  17.259  0.00  0.00    +0.000 A 
ENDROOT
BRANCH   4   7
ATOM      7  N   UNL     1      48.264   8.897  13.562  0.00  0.00    +0.000 N 
ATOM      8  H   UNL     1      48.968   9.615  13.408  0.00  0.00    +0.000 HD
BRANCH   7   9
ATOM      9  C   UNL     1      46.987   9.182  12.897  0.00  0.00    +0.000 C 
BRANCH   9  10
ATOM     10  C   UNL     1      46.064   7.947  13.028  0.00  0.00    +0.000 C 
BRANCH  10  11
ATOM     11  N   UNL     1      46.260   6.850  12.057  0.00  0.00    +0.000 NA
ATOM     12  C   UNL     1      44.944   6.402  11.537  0.00  0.00    +0.000 C 
ATOM     13  C   UNL     1      44.113   5.560  12.544  0.00  0.00    +0.000 C 
ATOM     14  N   UNL     1      44.823   4.378  13.097  0.00  0.00    +0.000 NA
ATOM     15  C   UNL     1      46.146   4.818  13.594  0.00  0.00    +0.000 C 
ATOM     16  C   UNL     1      46.969   5.678  12.604  0.00  0.00    +0.000 C 
BRANCH  14  17
ATOM     17  C   UNL     1      44.902   3.314  12.069  0.00  0.00    +0.000 C 
BRANCH  17  18
ATOM     18  C   UNL     1      43.604   3.112  11.269  0.00  0.00    +0.000 C 
BRANCH  18  19
ATOM     19  O   UNL     1      42.910   1.953  11.718  0.00  0.00    +0.000 OA
ATOM     20  H   UNL     1      43.568   1.434  12.221  0.00  0.00    +0.000 HD
ENDBRANCH  18  19
ENDBRANCH  17  18
ENDBRANCH  14  17
ENDBRANCH  10  11
ENDBRANCH   9  10
ENDBRANCH   7   9
ENDBRANCH   4   7
BRANCH   1  21
ATOM     21  C   UNL     1      49.165   7.232  18.954  0.00  0.00    +0.000 C 
BRANCH  21  24
ATOM     22  C   UNL     1      51.337   6.092  18.850  0.00  0.00    +0.000 C 
ATOM     23  O   UNL     1      51.911   7.170  18.733  0.00  0.00    +0.000 OA
ATOM     24  N   UNL     1      49.978   6.033  18.954  0.00  0.00    +0.000 N 
ATOM     25  H   UNL     1      49.511   5.139  19.055  0.00  0.00    +0.000 HD
BRANCH  22  33
ATOM     26  C   UNL     1      50.846   2.960  17.479  0.00  0.00    +0.000 A 
ATOM     27  N   UNL     1      50.888   1.660  17.108  0.00  0.00    +0.000 NA
ATOM     28  C   UNL     1      51.922   0.921  17.514  0.00  0.00    +0.000 A 
ATOM     29  N   UNL     1      52.950   1.325  18.254  0.00  0.00    +0.000 NA
ATOM     30  C   UNL     1      52.863   2.615  18.611  0.00  0.00    +0.000 A 
ATOM     31  S   UNL     1      54.097   3.309  19.552  0.00  0.00    +0.000 S 
ATOM     32  C   UNL     1      53.312   4.811  19.570  0.00  0.00    +0.000 A 
ATOM     33  C   UNL     1      52.105   4.829  18.873  0.00  0.00    +0.000 A 
ATOM     34  C   UNL     1      51.854   3.515  18.277  0.00  0.00    +0.000 A 
BRANCH  26  36
ATOM     35  C   UNL     1      48.530   3.059  17.225  0.00  0.00    +0.000 C 
ATOM     36  O   UNL     1      49.780   3.724  17.048  0.00  0.00    +0.000 OA
ENDBRANCH  26  36
ENDBRANCH  22  33
ENDBRANCH  21  24
ENDBRANCH   1  21
TORSDOF 11
ENDMDL
MODEL 8
REMARK VINA RESULT:    -6.061      3.695      5.768
REMARK INTER + INTRA:         -10.719
REMARK INTER:                  -9.720
REMARK INTRA:                  -0.999
REMARK UNBOUND:                -0.937
REMARK  Name = 
REMARK  12 active torsions:
REMARK  status: ('A' for Active; 'I' for Inactive)
REMARK    1  A    between atoms: C_1  and  O_2
REMARK    2  A    between atoms: O_2  and  C_3
REMARK    3  A    between atoms: C_10  and  C_11
REMARK    4  A    between atoms: N_13  and  C_14
REMARK    5  A    between atoms: C_14  and  C_15
REMARK    6  A    between atoms: C_18  and  N_19
REMARK    7  A    between atoms: N_19  and  C_20
REMARK    8  A    between atoms: C_20  and  C_21
REMARK    9  A    between atoms: C_21  and  N_22
REMARK   10  A    between atoms: N_25  and  C_26
REMARK   11  A    between atoms: C_26  and  C_27
REMARK   12  A    between atoms: C_27  and  O_28
REMARK                            x       y       z     vdW  Elec       q    Type
REMARK                         _______ _______ _______ _____ _____    ______ ____
ROOT
ATOM      1  C   UNL     1      48.083   4.254  16.851  0.00  0.00    +0.000 A 
ATOM      2  C   UNL     1      47.364   4.113  15.658  0.00  0.00    +0.000 A 
ATOM      3  C   UNL     1      47.386   5.121  14.685  0.00  0.00    +0.000 A 
ATOM      4  C   UNL     1      48.117   6.296  14.875  0.00  0.00    +0.000 A 
ATOM      5  C   UNL     1      48.792   6.447  16.096  0.00  0.00    +0.000 A 
ATOM      6  C   UNL     1      48.771   5.449  17.076  0.00  0.00    +0.000 A 
ENDROOT
BRANCH   4   7
ATOM      7  N   UNL     1      48.347   7.232  13.866  0.00  0.00    +0.000 N 
ATOM      8  H   UNL     1      48.188   8.186  14.179  0.00  0.00    +0.000 HD
BRANCH   7   9
ATOM      9  C   UNL     1      47.889   6.987  12.493  0.00  0.00    +0.000 C 
BRANCH   9  10
ATOM     10  C   UNL     1      46.568   7.756  12.257  0.00  0.00    +0.000 C 
BRANCH  10  11
ATOM     11  N   UNL     1      45.630   7.201  11.259  0.00  0.00    +0.000 NA
ATOM     12  C   UNL     1      44.257   7.179  11.820  0.00  0.00    +0.000 C 
ATOM     13  C   UNL     1      44.018   6.068  12.880  0.00  0.00    +0.000 C 
ATOM     14  N   UNL     1      44.358   4.695  12.426  0.00  0.00    +0.000 NA
ATOM     15  C   UNL     1      45.718   4.720  11.843  0.00  0.00    +0.000 C 
ATOM     16  C   UNL     1      45.970   5.839  10.804  0.00  0.00    +0.000 C 
BRANCH  14  17
ATOM     17  C   UNL     1      43.321   4.207  11.487  0.00  0.00    +0.000 C 
BRANCH  17  18
ATOM     18  C   UNL     1      43.173   2.677  11.448  0.00  0.00    +0.000 C 
BRANCH  18  19
ATOM     19  O   UNL     1      43.737   2.085  12.613  0.00  0.00    +0.000 OA
ATOM     20  H   UNL     1      44.502   2.647  12.846  0.00  0.00    +0.000 HD
ENDBRANCH  18  19
ENDBRANCH  17  18
ENDBRANCH  14  17
ENDBRANCH  10  11
ENDBRANCH   9  10
ENDBRANCH   7   9
ENDBRANCH   4   7
BRANCH   1  21
ATOM     21  C   UNL     1      48.204   3.101  17.812  0.00  0.00    +0.000 C 
BRANCH  21  24
ATOM     22  C   UNL     1      50.412   2.168  17.282  0.00  0.00    +0.000 C 
ATOM     23  O   UNL     1      49.987   1.738  16.215  0.00  0.00    +0.000 OA
ATOM     24  N   UNL     1      49.592   2.845  18.138  0.00  0.00    +0.000 N 
ATOM     25  H   UNL     1      49.952   3.202  19.015  0.00  0.00    +0.000 HD
BRANCH  22  33
ATOM     26  C   UNL     1      52.740   4.065  18.989  0.00  0.00    +0.000 A 
ATOM     27  N   UNL     1      53.838   4.595  19.573  0.00  0.00    +0.000 NA
ATOM     28  C   UNL     1      54.960   3.873  19.577  0.00  0.00    +0.000 A 
ATOM     29  N   UNL     1      55.128   2.656  19.070  0.00  0.00    +0.000 NA
ATOM     30  C   UNL     1      54.020   2.173  18.490  0.00  0.00    +0.000 A 
ATOM     31  S   UNL     1      54.045   0.622  17.795  0.00  0.00    +0.000 S 
ATOM     32  C   UNL     1      52.423   0.748  17.322  0.00  0.00    +0.000 A 
ATOM     33  C   UNL     1      51.823   1.957  17.671  0.00  0.00    +0.000 A 
ATOM     34  C   UNL     1      52.779   2.797  18.396  0.00  0.00    +0.000 A 
BRANCH  26  36
ATOM     35  C   UNL     1      51.834   6.213  19.054  0.00  0.00    +0.000 C 
ATOM     36  O   UNL     1      51.578   4.810  18.996  0.00  0.00    +0.000 OA
ENDBRANCH  26  36
ENDBRANCH  22  33
ENDBRANCH  21  24
ENDBRANCH   1  21
TORSDOF 11
ENDMDL
MODEL 9
REMARK VINA RESULT:    -5.860      3.836      8.928
REMARK INTER + INTRA:         -10.394
REMARK INTER:                  -8.465
REMARK INTRA:                  -1.929
REMARK UNBOUND:                -0.937
REMARK  Name = 
REMARK  12 active torsions:
REMARK  status: ('A' for Active; 'I' for Inactive)
REMARK    1  A    between atoms: C_1  and  O_2
REMARK    2  A    between atoms: O_2  and  C_3
REMARK    3  A    between atoms: C_10  and  C_11
REMARK    4  A    between atoms: N_13  and  C_14
REMARK    5  A    between atoms: C_14  and  C_15
REMARK    6  A    between atoms: C_18  and  N_19
REMARK    7  A    between atoms: N_19  and  C_20
REMARK    8  A    between atoms: C_20  and  C_21
REMARK    9  A    between atoms: C_21  and  N_22
REMARK   10  A    between atoms: N_25  and  C_26
REMARK   11  A    between atoms: C_26  and  C_27
REMARK   12  A    between atoms: C_27  and  O_28
REMARK                            x       y       z     vdW  Elec       q    Type
REMARK                         _______ _______ _______ _____ _____    ______ ____
ROOT
ATOM      1  C   UNL     1      50.145   9.276  13.004  0.00  0.00    +0.000 A 
ATOM      2  C   UNL     1      51.228   8.396  13.111  0.00  0.00    +0.000 A 
ATOM      3  C   UNL     1      52.031   8.384  14.260  0.00  0.00    +0.000 A 
ATOM      4  C   UNL     1      51.782   9.251  15.327  0.00  0.00    +0.000 A 
ATOM      5  C   UNL     1      50.725  10.163  15.185  0.00  0.00    +0.000 A 
ATOM      6  C   UNL     1      49.921  10.186  14.040  0.00  0.00    +0.000 A 
ENDROOT
BRANCH   4   7
ATOM      7  N   UNL     1      52.408   9.144  16.569  0.00  0.00    +0.000 N 
ATOM      8  H   UNL     1      53.159   8.459  16.567  0.00  0.00    +0.000 HD
BRANCH   7   9
ATOM      9  C   UNL     1      51.622   9.141  17.809  0.00  0.00    +0.000 C 
BRANCH   9  10
ATOM     10  C   UNL     1      51.339   7.677  18.224  0.00  0.00    +0.000 C 
BRANCH  10  11
ATOM     11  N   UNL     1      49.931   7.306  18.478  0.00  0.00    +0.000 NA
ATOM     12  C   UNL     1      49.846   5.861  18.801  0.00  0.00    +0.000 C 
ATOM     13  C   UNL     1      50.027   4.921  17.578  0.00  0.00    +0.000 C 
ATOM     14  N   UNL     1      49.111   5.199  16.442  0.00  0.00    +0.000 NA
ATOM     15  C   UNL     1      49.176   6.645  16.133  0.00  0.00    +0.000 C 
ATOM     16  C   UNL     1      49.020   7.587  17.352  0.00  0.00    +0.000 C 
BRANCH  14  17
ATOM     17  C   UNL     1      47.746   4.726  16.771  0.00  0.00    +0.000 C 
BRANCH  17  18
ATOM     18  C   UNL     1      47.602   3.195  16.815  0.00  0.00    +0.000 C 
BRANCH  18  19
ATOM     19  O   UNL     1      46.584   2.810  17.732  0.00  0.00    +0.000 OA
ATOM     20  H   UNL     1      46.952   2.989  18.619  0.00  0.00    +0.000 HD
ENDBRANCH  18  19
ENDBRANCH  17  18
ENDBRANCH  14  17
ENDBRANCH  10  11
ENDBRANCH   9  10
ENDBRANCH   7   9
ENDBRANCH   4   7
BRANCH   1  21
ATOM     21  C   UNL     1      49.179   9.164  11.854  0.00  0.00    +0.000 C 
BRANCH  21  24
ATOM     22  C   UNL     1      47.224   7.900  12.634  0.00  0.00    +0.000 C 
ATOM     23  O   UNL     1      46.795   8.895  13.209  0.00  0.00    +0.000 OA
ATOM     24  N   UNL     1      48.403   7.944  11.948  0.00  0.00    +0.000 N 
ATOM     25  H   UNL     1      48.748   7.120  11.471  0.00  0.00    +0.000 HD
BRANCH  22  33
ATOM     26  C   UNL     1      44.121   6.901  11.491  0.00  0.00    +0.000 A 
ATOM     27  N   UNL     1      42.966   6.264  11.195  0.00  0.00    +0.000 NA
ATOM     28  C   UNL     1      42.837   4.989  11.567  0.00  0.00    +0.000 A 
ATOM     29  N   UNL     1      43.738   4.247  12.204  0.00  0.00    +0.000 NA
ATOM     30  C   UNL     1      44.862   4.921  12.489  0.00  0.00    +0.000 A 
ATOM     31  S   UNL     1      46.132   4.128  13.293  0.00  0.00    +0.000 S 
ATOM     32  C   UNL     1      47.087   5.529  13.280  0.00  0.00    +0.000 A 
ATOM     33  C   UNL     1      46.475   6.625  12.675  0.00  0.00    +0.000 A 
ATOM     34  C   UNL     1      45.151   6.247  12.178  0.00  0.00    +0.000 A 
BRANCH  26  36
ATOM     35  C   UNL     1      42.994   8.850  10.883  0.00  0.00    +0.000 C 
ATOM     36  O   UNL     1      44.255   8.217  11.095  0.00  0.00    +0.000 OA
ENDBRANCH  26  36
ENDBRANCH  22  33
ENDBRANCH  21  24
ENDBRANCH   1  21
TORSDOF 11
ENDMDL
