MODEL 1
REMARK VINA RESULT:    -8.142      0.000      0.000
REMARK INTER + INTRA:         -11.510
REMARK INTER:                 -10.522
REMARK INTRA:                  -0.989
REMARK UNBOUND:                -0.989
REMARK  Name = 
REMARK  5 active torsions:
REMARK  status: ('A' for Active; 'I' for Inactive)
REMARK    1  A    between atoms: C_2  and  C_5
REMARK    2  A    between atoms: C_9  and  N_10
REMARK    3  A    between atoms: N_10  and  C_11
REMARK    4  A    between atoms: C_11  and  C_12
REMARK    5  A    between atoms: C_16  and  C_17
REMARK                            x       y       z     vdW  Elec       q    Type
REMARK                         _______ _______ _______ _____ _____    ______ ____
ROOT
ATOM      1  C   UNL     1      43.536   6.197  11.027  0.00  0.00    +0.000 C 
ENDROOT
BRANCH   1   2
ATOM      2  C   UNL     1      43.830   4.765  10.679  0.00  0.00    +0.000 A 
ATOM      3  C   UNL     1      43.205   3.727  11.355  0.00  0.00    +0.000 A 
ATOM      4  N   UNL     1      43.381   2.424  11.056  0.00  0.00    +0.000 NA
ATOM      5  C   UNL     1      44.226   2.139  10.036  0.00  0.00    +0.000 A 
ATOM      6  C   UNL     1      44.921   3.083   9.274  0.00  0.00    +0.000 A 
ATOM      7  C   UNL     1      44.709   4.423   9.639  0.00  0.00    +0.000 A 
BRANCH   6   8
ATOM      8  C   UNL     1      45.802   2.694   8.153  0.00  0.00    +0.000 A 
ATOM      9  C   UNL     1      46.106   3.565   7.096  0.00  0.00    +0.000 A 
ATOM     10  C   UNL     1      46.950   3.163   6.058  0.00  0.00    +0.000 A 
ATOM     11  C   UNL     1      47.481   1.888   6.098  0.00  0.00    +0.000 A 
ATOM     12  N   UNL     1      47.218   1.006   7.081  0.00  0.00    +0.000 NA
ATOM     13  C   UNL     1      46.390   1.427   8.070  0.00  0.00    +0.000 A 
ENDBRANCH   6   8
ENDBRANCH   1   2
BRANCH   1  14
ATOM     14  N   UNL     1      44.090   6.564  12.307  0.00  0.00    +0.000 N 
ATOM     15  H   UNL     1      43.552   7.124  12.960  0.00  0.00    +0.000 HD
BRANCH  14  20
ATOM     16  C   UNL     1      46.995   5.367  13.998  0.00  0.00    +0.000 A 
ATOM     17  C   UNL     1      48.050   6.011  13.354  0.00  0.00    +0.000 A 
ATOM     18  C   UNL     1      47.761   6.894  12.327  0.00  0.00    +0.000 A 
ATOM     19  C   UNL     1      46.435   7.107  11.965  0.00  0.00    +0.000 A 
ATOM     20  C   UNL     1      45.417   6.435  12.631  0.00  0.00    +0.000 A 
ATOM     21  N   UNL     1      45.693   5.580  13.636  0.00  0.00    +0.000 NA
BRANCH  16  23
ATOM     22  F   UNL     1      46.289   4.325  16.060  0.00  0.00    +0.000 F 
ATOM     23  C   UNL     1      47.297   4.401  15.136  0.00  0.00    +0.000 C 
ATOM     24  F   UNL     1      48.409   4.739  15.850  0.00  0.00    +0.000 F 
ATOM     25  F   UNL     1      47.492   3.117  14.717  0.00  0.00    +0.000 F 
ENDBRANCH  16  23
ENDBRANCH  14  20
ENDBRANCH   1  14
TORSDOF 5
ENDMDL
MODEL 2
REMARK VINA RESULT:    -7.991      2.136      2.606
REMARK INTER + INTRA:         -11.315
REMARK INTER:                 -10.426
REMARK INTRA:                  -0.890
REMARK UNBOUND:                -0.989
REMARK  Name = 
REMARK  5 active torsions:
REMARK  status: ('A' for Active; 'I' for Inactive)
REMARK    1  A    between atoms: C_2  and  C_5
REMARK    2  A    between atoms: C_9  and  N_10
REMARK    3  A    between atoms: N_10  and  C_11
REMARK    4  A    between atoms: C_11  and  C_12
REMARK    5  A    between atoms: C_16  and  C_17
REMARK                            x       y       z     vdW  Elec       q    Type
REMARK                         _______ _______ _______ _____ _____    ______ ____
ROOT
ATOM      1  C   UNL     1      43.540   6.213  11.102  0.00  0.00    +0.000 C 
ENDROOT
BRANCH   1   2
ATOM      2  C   UNL     1      43.817   4.782  10.734  0.00  0.00    +0.000 A 
ATOM      3  C   UNL     1      43.173   3.743  11.390  0.00  0.00    +0.000 A 
ATOM      4  N   UNL     1      43.333   2.442  11.074  0.00  0.00    +0.000 NA
ATOM      5  C   UNL     1      44.182   2.161  10.055  0.00  0.00    +0.000 A 
ATOM      6  C   UNL     1      44.896   3.107   9.312  0.00  0.00    +0.000 A 
ATOM      7  C   UNL     1      44.698   4.444   9.696  0.00  0.00    +0.000 A 
BRANCH   6   8
ATOM      8  C   UNL     1      45.779   2.723   8.192  0.00  0.00    +0.000 A 
ATOM      9  C   UNL     1      46.106   3.606   7.152  0.00  0.00    +0.000 A 
ATOM     10  C   UNL     1      46.952   3.208   6.115  0.00  0.00    +0.000 A 
ATOM     11  C   UNL     1      47.462   1.924   6.137  0.00  0.00    +0.000 A 
ATOM     12  N   UNL     1      47.176   1.030   7.102  0.00  0.00    +0.000 NA
ATOM     13  C   UNL     1      46.347   1.447   8.092  0.00  0.00    +0.000 A 
ENDBRANCH   6   8
ENDBRANCH   1   2
BRANCH   1  14
ATOM     14  N   UNL     1      44.073   6.549  12.399  0.00  0.00    +0.000 N 
ATOM     15  H   UNL     1      43.540   7.125  13.042  0.00  0.00    +0.000 HD
BRANCH  14  20
ATOM     16  C   UNL     1      47.572   7.196  12.648  0.00  0.00    +0.000 A 
ATOM     17  C   UNL     1      48.049   6.167  13.457  0.00  0.00    +0.000 A 
ATOM     18  C   UNL     1      47.155   5.213  13.916  0.00  0.00    +0.000 A 
ATOM     19  C   UNL     1      45.814   5.313  13.562  0.00  0.00    +0.000 A 
ATOM     20  C   UNL     1      45.383   6.363  12.759  0.00  0.00    +0.000 A 
ATOM     21  N   UNL     1      46.251   7.289  12.304  0.00  0.00    +0.000 NA
BRANCH  16  23
ATOM     22  F   UNL     1      49.300   8.819  13.118  0.00  0.00    +0.000 F 
ATOM     23  C   UNL     1      48.547   8.245  12.128  0.00  0.00    +0.000 C 
ATOM     24  F   UNL     1      47.932   9.289  11.501  0.00  0.00    +0.000 F 
ATOM     25  F   UNL     1      49.452   7.747  11.237  0.00  0.00    +0.000 F 
ENDBRANCH  16  23
ENDBRANCH  14  20
ENDBRANCH   1  14
TORSDOF 5
ENDMDL
MODEL 3
REMARK VINA RESULT:    -7.836      3.432      6.798
REMARK INTER + INTRA:         -11.115
REMARK INTER:                 -10.491
REMARK INTRA:                  -0.624
REMARK UNBOUND:                -0.989
REMARK  Name = 
REMARK  5 active torsions:
REMARK  status: ('A' for Active; 'I' for Inactive)
REMARK    1  A    between atoms: C_2  and  C_5
REMARK    2  A    between atoms: C_9  and  N_10
REMARK    3  A    between atoms: N_10  and  C_11
REMARK    4  A    between atoms: C_11  and  C_12
REMARK    5  A    between atoms: C_16  and  C_17
REMARK                            x       y       z     vdW  Elec       q    Type
REMARK                         _______ _______ _______ _____ _____    ______ ____
ROOT
ATOM      1  C   UNL     1      43.764   3.217  11.890  0.00  0.00    +0.000 C 
ENDROOT
BRANCH   1   2
ATOM      2  C   UNL     1      44.964   3.910  12.473  0.00  0.00    +0.000 A 
ATOM      3  C   UNL     1      45.915   3.199  13.191  0.00  0.00    +0.000 A 
ATOM      4  N   UNL     1      47.041   3.746  13.692  0.00  0.00    +0.000 NA
ATOM      5  C   UNL     1      47.226   5.071  13.473  0.00  0.00    +0.000 A 
ATOM      6  C   UNL     1      46.350   5.905  12.772  0.00  0.00    +0.000 A 
ATOM      7  C   UNL     1      45.190   5.282  12.283  0.00  0.00    +0.000 A 
BRANCH   6   8
ATOM      8  C   UNL     1      46.639   7.337  12.546  0.00  0.00    +0.000 A 
ATOM      9  C   UNL     1      47.907   7.798  12.159  0.00  0.00    +0.000 A 
ATOM     10  C   UNL     1      48.138   9.159  11.947  0.00  0.00    +0.000 A 
ATOM     11  C   UNL     1      47.089  10.041  12.125  0.00  0.00    +0.000 A 
ATOM     12  N   UNL     1      45.855   9.658  12.504  0.00  0.00    +0.000 NA
ATOM     13  C   UNL     1      45.666   8.330  12.707  0.00  0.00    +0.000 A 
ENDBRANCH   6   8
ENDBRANCH   1   2
BRANCH   1  14
ATOM     14  N   UNL     1      44.125   2.337  10.806  0.00  0.00    +0.000 N 
ATOM     15  H   UNL     1      44.077   1.330  10.923  0.00  0.00    +0.000 HD
BRANCH  14  20
ATOM     16  C   UNL     1      46.218   2.126   7.925  0.00  0.00    +0.000 A 
ATOM     17  C   UNL     1      46.131   3.393   7.351  0.00  0.00    +0.000 A 
ATOM     18  C   UNL     1      45.351   4.354   7.975  0.00  0.00    +0.000 A 
ATOM     19  C   UNL     1      44.677   4.025   9.147  0.00  0.00    +0.000 A 
ATOM     20  C   UNL     1      44.788   2.745   9.678  0.00  0.00    +0.000 A 
ATOM     21  N   UNL     1      45.551   1.810   9.077  0.00  0.00    +0.000 NA
BRANCH  16  23
ATOM     22  F   UNL     1      46.777   0.882   5.930  0.00  0.00    +0.000 F 
ATOM     23  C   UNL     1      47.080   1.064   7.254  0.00  0.00    +0.000 C 
ATOM     24  F   UNL     1      46.953  -0.170   7.820  0.00  0.00    +0.000 F 
ATOM     25  F   UNL     1      48.412   1.357   7.277  0.00  0.00    +0.000 F 
ENDBRANCH  16  23
ENDBRANCH  14  20
ENDBRANCH   1  14
TORSDOF 5
ENDMDL
MODEL 4
REMARK VINA RESULT:    -7.737      2.060      2.550
REMARK INTER + INTRA:         -10.987
REMARK INTER:                 -10.188
REMARK INTRA:                  -0.799
REMARK UNBOUND:                -0.989
REMARK  Name = 
REMARK  5 active torsions:
REMARK  status: ('A' for Active; 'I' for Inactive)
REMARK    1  A    between atoms: C_2  and  C_5
REMARK    2  A    between atoms: C_9  and  N_10
REMARK    3  A    between atoms: N_10  and  C_11
REMARK    4  A    between atoms: C_11  and  C_12
REMARK    5  A    between atoms: C_16  and  C_17
REMARK                            x       y       z     vdW  Elec       q    Type
REMARK                         _______ _______ _______ _____ _____    ______ ____
ROOT
ATOM      1  C   UNL     1      43.529   6.478  11.230  0.00  0.00    +0.000 C 
ENDROOT
BRANCH   1   2
ATOM      2  C   UNL     1      43.765   5.028  10.912  0.00  0.00    +0.000 A 
ATOM      3  C   UNL     1      43.109   4.030  11.618  0.00  0.00    +0.000 A 
ATOM      4  N   UNL     1      43.232   2.715  11.348  0.00  0.00    +0.000 NA
ATOM      5  C   UNL     1      44.056   2.375  10.326  0.00  0.00    +0.000 A 
ATOM      6  C   UNL     1      44.778   3.275   9.536  0.00  0.00    +0.000 A 
ATOM      7  C   UNL     1      44.619   4.630   9.872  0.00  0.00    +0.000 A 
BRANCH   6   8
ATOM      8  C   UNL     1      45.632   2.828   8.416  0.00  0.00    +0.000 A 
ATOM      9  C   UNL     1      46.016   3.684   7.373  0.00  0.00    +0.000 A 
ATOM     10  C   UNL     1      46.831   3.225   6.336  0.00  0.00    +0.000 A 
ATOM     11  C   UNL     1      47.254   1.909   6.362  0.00  0.00    +0.000 A 
ATOM     12  N   UNL     1      46.910   1.041   7.331  0.00  0.00    +0.000 NA
ATOM     13  C   UNL     1      46.112   1.517   8.320  0.00  0.00    +0.000 A 
ENDBRANCH   6   8
ENDBRANCH   1   2
BRANCH   1  14
ATOM     14  N   UNL     1      44.300   6.913  12.369  0.00  0.00    +0.000 N 
ATOM     15  H   UNL     1      43.979   6.719  13.312  0.00  0.00    +0.000 HD
BRANCH  14  20
ATOM     16  C   UNL     1      47.658   8.110  12.244  0.00  0.00    +0.000 A 
ATOM     17  C   UNL     1      47.519   9.488  12.084  0.00  0.00    +0.000 A 
ATOM     18  C   UNL     1      46.244  10.026  12.036  0.00  0.00    +0.000 A 
ATOM     19  C   UNL     1      45.144   9.181  12.143  0.00  0.00    +0.000 A 
ATOM     20  C   UNL     1      45.332   7.812  12.294  0.00  0.00    +0.000 A 
ATOM     21  N   UNL     1      46.572   7.284  12.348  0.00  0.00    +0.000 NA
BRANCH  16  23
ATOM     22  F   UNL     1      49.827   8.040  13.307  0.00  0.00    +0.000 F 
ATOM     23  C   UNL     1      49.055   7.507  12.309  0.00  0.00    +0.000 C 
ATOM     24  F   UNL     1      49.776   7.691  11.166  0.00  0.00    +0.000 F 
ATOM     25  F   UNL     1      49.052   6.163  12.543  0.00  0.00    +0.000 F 
ENDBRANCH  16  23
ENDBRANCH  14  20
ENDBRANCH   1  14
TORSDOF 5
ENDMDL
MODEL 5
REMARK VINA RESULT:    -7.668      3.602      6.820
REMARK INTER + INTRA:         -10.898
REMARK INTER:                 -10.072
REMARK INTRA:                  -0.826
REMARK UNBOUND:                -0.989
REMARK  Name = 
REMARK  5 active torsions:
REMARK  status: ('A' for Active; 'I' for Inactive)
REMARK    1  A    between atoms: C_2  and  C_5
REMARK    2  A    between atoms: C_9  and  N_10
REMARK    3  A    between atoms: N_10  and  C_11
REMARK    4  A    between atoms: C_11  and  C_12
REMARK    5  A    between atoms: C_16  and  C_17
REMARK                            x       y       z     vdW  Elec       q    Type
REMARK                         _______ _______ _______ _____ _____    ______ ____
ROOT
ATOM      1  C   UNL     1      43.951   5.721  11.356  0.00  0.00    +0.000 C 
ENDROOT
BRANCH   1   2
ATOM      2  C   UNL     1      45.105   5.571  12.307  0.00  0.00    +0.000 A 
ATOM      3  C   UNL     1      45.085   4.601  13.300  0.00  0.00    +0.000 A 
ATOM      4  N   UNL     1      46.107   4.376  14.149  0.00  0.00    +0.000 NA
ATOM      5  C   UNL     1      47.204   5.160  14.007  0.00  0.00    +0.000 A 
ATOM      6  C   UNL     1      47.356   6.173  13.055  0.00  0.00    +0.000 A 
ATOM      7  C   UNL     1      46.254   6.370  12.206  0.00  0.00    +0.000 A 
BRANCH   6   8
ATOM      8  C   UNL     1      48.599   6.965  12.942  0.00  0.00    +0.000 A 
ATOM      9  C   UNL     1      49.060   7.473  11.718  0.00  0.00    +0.000 A 
ATOM     10  C   UNL     1      50.235   8.225  11.653  0.00  0.00    +0.000 A 
ATOM     11  C   UNL     1      50.933   8.459  12.824  0.00  0.00    +0.000 A 
ATOM     12  N   UNL     1      50.544   7.990  14.024  0.00  0.00    +0.000 NA
ATOM     13  C   UNL     1      49.402   7.258  14.051  0.00  0.00    +0.000 A 
ENDBRANCH   6   8
ENDBRANCH   1   2
BRANCH   1  14
ATOM     14  N   UNL     1      44.350   5.504   9.987  0.00  0.00    +0.000 N 
ATOM     15  H   UNL     1      44.216   6.229   9.290  0.00  0.00    +0.000 HD
BRANCH  14  20
ATOM     16  C   UNL     1      45.913   3.100   7.865  0.00  0.00    +0.000 A 
ATOM     17  C   UNL     1      45.477   1.874   8.365  0.00  0.00    +0.000 A 
ATOM     18  C   UNL     1      44.609   1.867   9.445  0.00  0.00    +0.000 A 
ATOM     19  C   UNL     1      44.205   3.077  10.000  0.00  0.00    +0.000 A 
ATOM     20  C   UNL     1      44.673   4.275   9.472  0.00  0.00    +0.000 A 
ATOM     21  N   UNL     1      45.512   4.286   8.416  0.00  0.00    +0.000 NA
BRANCH  16  23
ATOM     22  F   UNL     1      46.560   2.172   5.730  0.00  0.00    +0.000 F 
ATOM     23  C   UNL     1      46.859   3.121   6.671  0.00  0.00    +0.000 C 
ATOM     24  F   UNL     1      48.160   2.889   7.009  0.00  0.00    +0.000 F 
ATOM     25  F   UNL     1      46.848   4.307   5.995  0.00  0.00    +0.000 F 
ENDBRANCH  16  23
ENDBRANCH  14  20
ENDBRANCH   1  14
TORSDOF 5
ENDMDL
MODEL 6
REMARK VINA RESULT:    -7.529      3.589      7.589
REMARK INTER + INTRA:         -10.718
REMARK INTER:                  -9.932
REMARK INTRA:                  -0.786
REMARK UNBOUND:                -0.989
REMARK  Name = 
REMARK  5 active torsions:
REMARK  status: ('A' for Active; 'I' for Inactive)
REMARK    1  A    between atoms: C_2  and  C_5
REMARK    2  A    between atoms: C_9  and  N_10
REMARK    3  A    between atoms: N_10  and  C_11
REMARK    4  A    between atoms: C_11  and  C_12
REMARK    5  A    between atoms: C_16  and  C_17
REMARK                            x       y       z     vdW  Elec       q    Type
REMARK                         _______ _______ _______ _____ _____    ______ ____
ROOT
ATOM      1  C   UNL     1      45.014   6.236  11.222  0.00  0.00    +0.000 C 
ENDROOT
BRANCH   1   2
ATOM      2  C   UNL     1      46.293   6.344  12.004  0.00  0.00    +0.000 A 
ATOM      3  C   UNL     1      47.356   7.098  11.527  0.00  0.00    +0.000 A 
ATOM      4  N   UNL     1      48.508   7.282  12.203  0.00  0.00    +0.000 NA
ATOM      5  C   UNL     1      48.610   6.680  13.413  0.00  0.00    +0.000 A 
ATOM      6  C   UNL     1      47.621   5.893  14.010  0.00  0.00    +0.000 A 
ATOM      7  C   UNL     1      46.448   5.726  13.255  0.00  0.00    +0.000 A 
BRANCH   6   8
ATOM      8  C   UNL     1      47.795   5.296  15.351  0.00  0.00    +0.000 A 
ATOM      9  C   UNL     1      47.171   4.097  15.729  0.00  0.00    +0.000 A 
ATOM     10  C   UNL     1      47.367   3.561  17.003  0.00  0.00    +0.000 A 
ATOM     11  C   UNL     1      48.193   4.235  17.883  0.00  0.00    +0.000 A 
ATOM     12  N   UNL     1      48.810   5.393  17.579  0.00  0.00    +0.000 NA
ATOM     13  C   UNL     1      48.593   5.890  16.335  0.00  0.00    +0.000 A 
ENDBRANCH   6   8
ENDBRANCH   1   2
BRANCH   1  14
ATOM     14  N   UNL     1      45.251   5.842   9.855  0.00  0.00    +0.000 N 
ATOM     15  H   UNL     1      45.240   6.531   9.111  0.00  0.00    +0.000 HD
BRANCH  14  20
ATOM     16  C   UNL     1      46.098   2.989   7.886  0.00  0.00    +0.000 A 
ATOM     17  C   UNL     1      45.382   1.949   8.475  0.00  0.00    +0.000 A 
ATOM     18  C   UNL     1      44.573   2.231   9.563  0.00  0.00    +0.000 A 
ATOM     19  C   UNL     1      44.501   3.536  10.037  0.00  0.00    +0.000 A 
ATOM     20  C   UNL     1      45.240   4.540   9.422  0.00  0.00    +0.000 A 
ATOM     21  N   UNL     1      46.024   4.271   8.358  0.00  0.00    +0.000 NA
BRANCH  16  23
ATOM     22  F   UNL     1      46.730   3.513   5.613  0.00  0.00    +0.000 F 
ATOM     23  C   UNL     1      46.984   2.695   6.683  0.00  0.00    +0.000 C 
ATOM     24  F   UNL     1      46.838   1.427   6.202  0.00  0.00    +0.000 F 
ATOM     25  F   UNL     1      48.315   2.852   6.941  0.00  0.00    +0.000 F 
ENDBRANCH  16  23
ENDBRANCH  14  20
ENDBRANCH   1  14
TORSDOF 5
ENDMDL
MODEL 7
REMARK VINA RESULT:    -7.307      1.791      2.467
REMARK INTER + INTRA:         -10.431
REMARK INTER:                  -9.823
REMARK INTRA:                  -0.608
REMARK UNBOUND:                -0.989
REMARK  Name = 
REMARK  5 active torsions:
REMARK  status: ('A' for Active; 'I' for Inactive)
REMARK    1  A    between atoms: C_2  and  C_5
REMARK    2  A    between atoms: C_9  and  N_10
REMARK    3  A    between atoms: N_10  and  C_11
REMARK    4  A    between atoms: C_11  and  C_12
REMARK    5  A    between atoms: C_16  and  C_17
REMARK                            x       y       z     vdW  Elec       q    Type
REMARK                         _______ _______ _______ _____ _____    ______ ____
ROOT
ATOM      1  C   UNL     1      45.181   5.208  13.312  0.00  0.00    +0.000 C 
ENDROOT
BRANCH   1   2
ATOM      2  C   UNL     1      44.733   4.189  12.302  0.00  0.00    +0.000 A 
ATOM      3  C   UNL     1      43.597   3.424  12.522  0.00  0.00    +0.000 A 
ATOM      4  N   UNL     1      43.108   2.534  11.635  0.00  0.00    +0.000 NA
ATOM      5  C   UNL     1      43.789   2.394  10.470  0.00  0.00    +0.000 A 
ATOM      6  C   UNL     1      44.946   3.097  10.121  0.00  0.00    +0.000 A 
ATOM      7  C   UNL     1      45.415   4.001  11.090  0.00  0.00    +0.000 A 
BRANCH   6   8
ATOM      8  C   UNL     1      45.614   2.912   8.816  0.00  0.00    +0.000 A 
ATOM      9  C   UNL     1      46.083   1.664   8.379  0.00  0.00    +0.000 A 
ATOM     10  C   UNL     1      46.702   1.529   7.135  0.00  0.00    +0.000 A 
ATOM     11  C   UNL     1      46.839   2.652   6.341  0.00  0.00    +0.000 A 
ATOM     12  N   UNL     1      46.416   3.876   6.711  0.00  0.00    +0.000 NA
ATOM     13  C   UNL     1      45.825   3.974   7.928  0.00  0.00    +0.000 A 
ENDBRANCH   6   8
ENDBRANCH   1   2
BRANCH   1  14
ATOM     14  N   UNL     1      46.610   5.405  13.280  0.00  0.00    +0.000 N 
ATOM     15  H   UNL     1      47.129   5.274  12.418  0.00  0.00    +0.000 HD
BRANCH  14  20
ATOM     16  C   UNL     1      48.081   4.501  16.402  0.00  0.00    +0.000 A 
ATOM     17  C   UNL     1      48.960   5.547  16.676  0.00  0.00    +0.000 A 
ATOM     18  C   UNL     1      49.039   6.601  15.781  0.00  0.00    +0.000 A 
ATOM     19  C   UNL     1      48.248   6.582  14.637  0.00  0.00    +0.000 A 
ATOM     20  C   UNL     1      47.391   5.513  14.401  0.00  0.00    +0.000 A 
ATOM     21  N   UNL     1      47.306   4.488  15.274  0.00  0.00    +0.000 NA
BRANCH  16  23
ATOM     22  F   UNL     1      48.292   3.693  18.669  0.00  0.00    +0.000 F 
ATOM     23  C   UNL     1      47.977   3.341  17.383  0.00  0.00    +0.000 C 
ATOM     24  F   UNL     1      48.811   2.304  17.084  0.00  0.00    +0.000 F 
ATOM     25  F   UNL     1      46.723   2.809  17.459  0.00  0.00    +0.000 F 
ENDBRANCH  16  23
ENDBRANCH  14  20
ENDBRANCH   1  14
TORSDOF 5
ENDMDL
MODEL 8
REMARK VINA RESULT:    -7.052      2.675      3.378
REMARK INTER + INTRA:         -10.102
REMARK INTER:                  -9.336
REMARK INTRA:                  -0.767
REMARK UNBOUND:                -0.989
REMARK  Name = 
REMARK  5 active torsions:
REMARK  status: ('A' for Active; 'I' for Inactive)
REMARK    1  A    between atoms: C_2  and  C_5
REMARK    2  A    between atoms: C_9  and  N_10
REMARK    3  A    between atoms: N_10  and  C_11
REMARK    4  A    between atoms: C_11  and  C_12
REMARK    5  A    between atoms: C_16  and  C_17
REMARK                            x       y       z     vdW  Elec       q    Type
REMARK                         _______ _______ _______ _____ _____    ______ ____
ROOT
ATOM      1  C   UNL     1      44.352   5.875  12.881  0.00  0.00    +0.000 C 
ENDROOT
BRANCH   1   2
ATOM      2  C   UNL     1      44.243   4.620  12.060  0.00  0.00    +0.000 A 
ATOM      3  C   UNL     1      43.358   3.613  12.417  0.00  0.00    +0.000 A 
ATOM      4  N   UNL     1      43.170   2.489  11.697  0.00  0.00    +0.000 NA
ATOM      5  C   UNL     1      43.906   2.358  10.565  0.00  0.00    +0.000 A 
ATOM      6  C   UNL     1      44.834   3.290  10.092  0.00  0.00    +0.000 A 
ATOM      7  C   UNL     1      44.995   4.435  10.890  0.00  0.00    +0.000 A 
BRANCH   6   8
ATOM      8  C   UNL     1      45.575   3.090   8.830  0.00  0.00    +0.000 A 
ATOM      9  C   UNL     1      46.100   1.844   8.452  0.00  0.00    +0.000 A 
ATOM     10  C   UNL     1      46.788   1.693   7.247  0.00  0.00    +0.000 A 
ATOM     11  C   UNL     1      46.938   2.798   6.431  0.00  0.00    +0.000 A 
ATOM     12  N   UNL     1      46.464   4.019   6.744  0.00  0.00    +0.000 NA
ATOM     13  C   UNL     1      45.807   4.133   7.925  0.00  0.00    +0.000 A 
ENDBRANCH   6   8
ENDBRANCH   1   2
BRANCH   1  14
ATOM     14  N   UNL     1      45.725   6.235  13.134  0.00  0.00    +0.000 N 
ATOM     15  H   UNL     1      46.294   5.684  13.767  0.00  0.00    +0.000 HD
BRANCH  14  20
ATOM     16  C   UNL     1      48.222   8.580  12.136  0.00  0.00    +0.000 A 
ATOM     17  C   UNL     1      47.522   9.776  11.987  0.00  0.00    +0.000 A 
ATOM     18  C   UNL     1      46.162   9.788  12.253  0.00  0.00    +0.000 A 
ATOM     19  C   UNL     1      45.538   8.611  12.654  0.00  0.00    +0.000 A 
ATOM     20  C   UNL     1      46.276   7.440  12.781  0.00  0.00    +0.000 A 
ATOM     21  N   UNL     1      47.601   7.426  12.530  0.00  0.00    +0.000 NA
BRANCH  16  23
ATOM     22  F   UNL     1      50.126   9.556  11.014  0.00  0.00    +0.000 F 
ATOM     23  C   UNL     1      49.719   8.556  11.857  0.00  0.00    +0.000 C 
ATOM     24  F   UNL     1      50.139   7.401  11.266  0.00  0.00    +0.000 F 
ATOM     25  F   UNL     1      50.480   8.706  12.979  0.00  0.00    +0.000 F 
ENDBRANCH  16  23
ENDBRANCH  14  20
ENDBRANCH   1  14
TORSDOF 5
ENDMDL
MODEL 9
REMARK VINA RESULT:    -6.794      2.320      4.546
REMARK INTER + INTRA:          -9.769
REMARK INTER:                  -9.043
REMARK INTRA:                  -0.725
REMARK UNBOUND:                -0.989
REMARK  Name = 
REMARK  5 active torsions:
REMARK  status: ('A' for Active; 'I' for Inactive)
REMARK    1  A    between atoms: C_2  and  C_5
REMARK    2  A    between atoms: C_9  and  N_10
REMARK    3  A    between atoms: N_10  and  C_11
REMARK    4  A    between atoms: C_11  and  C_12
REMARK    5  A    between atoms: C_16  and  C_17
REMARK                            x       y       z     vdW  Elec       q    Type
REMARK                         _______ _______ _______ _____ _____    ______ ____
ROOT
ATOM      1  C   UNL     1      48.596   7.252  13.809  0.00  0.00    +0.000 C 
ENDROOT
BRANCH   1   2
ATOM      2  C   UNL     1      47.292   7.244  13.061  0.00  0.00    +0.000 A 
ATOM      3  C   UNL     1      46.440   8.338  13.109  0.00  0.00    +0.000 A 
ATOM      4  N   UNL     1      45.284   8.419  12.419  0.00  0.00    +0.000 NA
ATOM      5  C   UNL     1      44.957   7.355  11.646  0.00  0.00    +0.000 A 
ATOM      6  C   UNL     1      45.719   6.191  11.509  0.00  0.00    +0.000 A 
ATOM      7  C   UNL     1      46.906   6.158  12.260  0.00  0.00    +0.000 A 
BRANCH   6   8
ATOM      8  C   UNL     1      45.310   5.084  10.620  0.00  0.00    +0.000 A 
ATOM      9  C   UNL     1      45.625   5.059   9.252  0.00  0.00    +0.000 A 
ATOM     10  C   UNL     1      45.228   3.991   8.446  0.00  0.00    +0.000 A 
ATOM     11  C   UNL     1      44.519   2.955   9.026  0.00  0.00    +0.000 A 
ATOM     12  N   UNL     1      44.181   2.929  10.329  0.00  0.00    +0.000 NA
ATOM     13  C   UNL     1      44.577   3.985  11.083  0.00  0.00    +0.000 A 
ENDBRANCH   6   8
ENDBRANCH   1   2
BRANCH   1  14
ATOM     14  N   UNL     1      48.412   7.542  15.209  0.00  0.00    +0.000 N 
ATOM     15  H   UNL     1      48.262   8.495  15.522  0.00  0.00    +0.000 HD
BRANCH  14  20
ATOM     16  C   UNL     1      48.586   4.415  16.918  0.00  0.00    +0.000 A 
ATOM     17  C   UNL     1      49.223   4.722  18.119  0.00  0.00    +0.000 A 
ATOM     18  C   UNL     1      49.588   6.036  18.362  0.00  0.00    +0.000 A 
ATOM     19  C   UNL     1      49.313   7.005  17.403  0.00  0.00    +0.000 A 
ATOM     20  C   UNL     1      48.682   6.650  16.216  0.00  0.00    +0.000 A 
ATOM     21  N   UNL     1      48.319   5.373  15.979  0.00  0.00    +0.000 NA
BRANCH  16  23
ATOM     22  F   UNL     1      49.196   2.080  16.799  0.00  0.00    +0.000 F 
ATOM     23  C   UNL     1      48.171   2.975  16.644  0.00  0.00    +0.000 C 
ATOM     24  F   UNL     1      47.716   2.777  15.373  0.00  0.00    +0.000 F 
ATOM     25  F   UNL     1      47.183   2.530  17.473  0.00  0.00    +0.000 F 
ENDBRANCH  16  23
ENDBRANCH  14  20
ENDBRANCH   1  14
TORSDOF 5
ENDMDL
