MODEL 1
REMARK VINA RESULT:    -7.593      0.000      0.000
REMARK INTER + INTRA:         -12.466
REMARK INTER:                 -11.365
REMARK INTRA:                  -1.100
REMARK UNBOUND:                -1.100
REMARK  Name = 
REMARK  9 active torsions:
REMARK  status: ('A' for Active; 'I' for Inactive)
REMARK    1  A    between atoms: C_2  and  C_22
REMARK    2  A    between atoms: N_3  and  C_4
REMARK    3  A    between atoms: C_4  and  C_5
REMARK    4  A    between atoms: C_8  and  C_9
REMARK    5  A    between atoms: C_9  and  O_10
REMARK    6  A    between atoms: O_10  and  C_11
REMARK    7  A    between atoms: C_11  and  C_12
REMARK    8  A    between atoms: C_17  and  C_18
REMARK    9  A    between atoms: C_18  and  O_19
REMARK                            x       y       z     vdW  Elec       q    Type
REMARK                         _______ _______ _______ _____ _____    ______ ____
ROOT
ATOM      1  C   UNL     1      46.245   7.017  12.783  0.00  0.00    +0.000 A 
ATOM      2  C   UNL     1      46.591   5.678  13.003  0.00  0.00    +0.000 A 
ATOM      3  C   UNL     1      45.822   4.647  12.460  0.00  0.00    +0.000 A 
ATOM      4  C   UNL     1      44.693   4.936  11.681  0.00  0.00    +0.000 A 
ATOM      5  C   UNL     1      44.363   6.274  11.438  0.00  0.00    +0.000 A 
ATOM      6  C   UNL     1      45.135   7.306  11.979  0.00  0.00    +0.000 A 
ENDROOT
BRANCH   1   7
ATOM      7  C   UNL     1      47.084   8.122  13.367  0.00  0.00    +0.000 C 
BRANCH   7  10
ATOM      8  O   UNL     1      49.629   7.098  13.986  0.00  0.00    +0.000 OA
ATOM      9  C   UNL     1      48.843   7.332  14.900  0.00  0.00    +0.000 C 
ATOM     10  N   UNL     1      47.562   7.763  14.678  0.00  0.00    +0.000 N 
ATOM     11  H   UNL     1      47.021   8.122  15.456  0.00  0.00    +0.000 HD
BRANCH   9  12
ATOM     12  C   UNL     1      49.215   7.105  16.303  0.00  0.00    +0.000 A 
ATOM     13  C   UNL     1      49.923   8.082  16.992  0.00  0.00    +0.000 A 
ATOM     14  S   UNL     1      50.297   7.651  18.598  0.00  0.00    +0.000 S 
ATOM     15  C   UNL     1      49.485   6.163  18.446  0.00  0.00    +0.000 A 
ATOM     16  N   UNL     1      49.405   5.300  19.494  0.00  0.00    +0.000 NA
ATOM     17  C   UNL     1      48.723   4.230  19.255  0.00  0.00    +0.000 A 
ATOM     18  N   UNL     1      48.122   3.940  18.059  0.00  0.00    +0.000 N 
ATOM     19  C   UNL     1      48.237   4.747  16.952  0.00  0.00    +0.000 A 
ATOM     20  O   UNL     1      47.788   4.395  15.865  0.00  0.00    +0.000 OA
ATOM     21  C   UNL     1      48.957   5.986  17.179  0.00  0.00    +0.000 A 
ATOM     22  H   UNL     1      47.624   3.073  17.927  0.00  0.00    +0.000 HD
ENDBRANCH   9  12
ENDBRANCH   7  10
ENDBRANCH   1   7
BRANCH   4  23
ATOM     23  C   UNL     1      43.867   3.823  11.092  0.00  0.00    +0.000 C 
BRANCH  23  24
ATOM     24  O   UNL     1      44.730   2.757  10.696  0.00  0.00    +0.000 OA
BRANCH  24  25
ATOM     25  C   UNL     1      44.327   2.221   9.432  0.00  0.00    +0.000 C 
BRANCH  25  26
ATOM     26  C   UNL     1      45.518   2.093   8.509  0.00  0.00    +0.000 A 
ATOM     27  N   UNL     1      46.018   0.836   8.359  0.00  0.00    +0.000 NA
ATOM     28  C   UNL     1      47.091   0.676   7.555  0.00  0.00    +0.000 A 
ATOM     29  C   UNL     1      47.699   1.711   6.873  0.00  0.00    +0.000 A 
ATOM     30  C   UNL     1      47.174   2.989   7.020  0.00  0.00    +0.000 A 
ATOM     31  C   UNL     1      46.055   3.202   7.838  0.00  0.00    +0.000 A 
BRANCH  31  32
ATOM     32  C   UNL     1      45.511   4.593   8.000  0.00  0.00    +0.000 C 
BRANCH  32  33
ATOM     33  O   UNL     1      46.404   5.385   8.766  0.00  0.00    +0.000 OA
ATOM     34  H   UNL     1      45.879   5.749   9.508  0.00  0.00    +0.000 HD
ENDBRANCH  32  33
ENDBRANCH  31  32
ENDBRANCH  25  26
ENDBRANCH  24  25
ENDBRANCH  23  24
ENDBRANCH   4  23
TORSDOF 9
ENDMDL
MODEL 2
REMARK VINA RESULT:    -7.430      2.753      8.556
REMARK INTER + INTRA:         -12.223
REMARK INTER:                 -10.954
REMARK INTRA:                  -1.269
REMARK UNBOUND:                -1.100
REMARK  Name = 
REMARK  9 active torsions:
REMARK  status: ('A' for Active; 'I' for Inactive)
REMARK    1  A    between atoms: C_2  and  C_22
REMARK    2  A    between atoms: N_3  and  C_4
REMARK    3  A    between atoms: C_4  and  C_5
REMARK    4  A    between atoms: C_8  and  C_9
REMARK    5  A    between atoms: C_9  and  O_10
REMARK    6  A    between atoms: O_10  and  C_11
REMARK    7  A    between atoms: C_11  and  C_12
REMARK    8  A    between atoms: C_17  and  C_18
REMARK    9  A    between atoms: C_18  and  O_19
REMARK                            x       y       z     vdW  Elec       q    Type
REMARK                         _______ _______ _______ _____ _____    ______ ____
ROOT
ATOM      1  C   UNL     1      48.244   7.921  13.214  0.00  0.00    +0.000 A 
ATOM      2  C   UNL     1      47.632   8.659  14.235  0.00  0.00    +0.000 A 
ATOM      3  C   UNL     1      48.227   8.759  15.494  0.00  0.00    +0.000 A 
ATOM      4  C   UNL     1      49.450   8.126  15.755  0.00  0.00    +0.000 A 
ATOM      5  C   UNL     1      50.076   7.411  14.726  0.00  0.00    +0.000 A 
ATOM      6  C   UNL     1      49.482   7.315  13.465  0.00  0.00    +0.000 A 
ENDROOT
BRANCH   1   7
ATOM      7  C   UNL     1      47.599   7.826  11.857  0.00  0.00    +0.000 C 
BRANCH   7  10
ATOM      8  O   UNL     1      44.803   7.534  11.917  0.00  0.00    +0.000 OA
ATOM      9  C   UNL     1      45.499   6.547  11.699  0.00  0.00    +0.000 C 
ATOM     10  N   UNL     1      46.869   6.591  11.724  0.00  0.00    +0.000 N 
ATOM     11  H   UNL     1      47.394   5.808  11.354  0.00  0.00    +0.000 HD
BRANCH   9  12
ATOM     12  C   UNL     1      44.900   5.229  11.451  0.00  0.00    +0.000 A 
ATOM     13  C   UNL     1      44.134   4.626  12.440  0.00  0.00    +0.000 A 
ATOM     14  S   UNL     1      43.535   3.091  12.001  0.00  0.00    +0.000 S 
ATOM     15  C   UNL     1      44.238   3.198  10.456  0.00  0.00    +0.000 A 
ATOM     16  N   UNL     1      44.081   2.199   9.546  0.00  0.00    +0.000 NA
ATOM     17  C   UNL     1      44.629   2.429   8.400  0.00  0.00    +0.000 A 
ATOM     18  N   UNL     1      45.328   3.565   8.083  0.00  0.00    +0.000 N 
ATOM     19  C   UNL     1      45.573   4.566   8.992  0.00  0.00    +0.000 A 
ATOM     20  O   UNL     1      46.306   5.509   8.710  0.00  0.00    +0.000 OA
ATOM     21  C   UNL     1      44.942   4.378  10.284  0.00  0.00    +0.000 A 
ATOM     22  H   UNL     1      45.755   3.673   7.176  0.00  0.00    +0.000 HD
ENDBRANCH   9  12
ENDBRANCH   7  10
ENDBRANCH   1   7
BRANCH   4  23
ATOM     23  C   UNL     1      50.094   8.238  17.112  0.00  0.00    +0.000 C 
BRANCH  23  24
ATOM     24  O   UNL     1      50.539   6.949  17.529  0.00  0.00    +0.000 OA
BRANCH  24  25
ATOM     25  C   UNL     1      49.428   6.118  17.883  0.00  0.00    +0.000 C 
BRANCH  25  26
ATOM     26  C   UNL     1      49.755   4.663  17.631  0.00  0.00    +0.000 A 
ATOM     27  N   UNL     1      51.056   4.308  17.819  0.00  0.00    +0.000 NA
ATOM     28  C   UNL     1      51.398   3.023  17.591  0.00  0.00    +0.000 A 
ATOM     29  C   UNL     1      50.503   2.050  17.190  0.00  0.00    +0.000 A 
ATOM     30  C   UNL     1      49.174   2.418  17.014  0.00  0.00    +0.000 A 
ATOM     31  C   UNL     1      48.771   3.740  17.247  0.00  0.00    +0.000 A 
BRANCH  31  32
ATOM     32  C   UNL     1      47.335   4.124  17.035  0.00  0.00    +0.000 C 
BRANCH  32  33
ATOM     33  O   UNL     1      46.475   3.116  17.543  0.00  0.00    +0.000 OA
ATOM     34  H   UNL     1      46.206   2.573  16.773  0.00  0.00    +0.000 HD
ENDBRANCH  32  33
ENDBRANCH  31  32
ENDBRANCH  25  26
ENDBRANCH  24  25
ENDBRANCH  23  24
ENDBRANCH   4  23
TORSDOF 9
ENDMDL
MODEL 3
REMARK VINA RESULT:    -7.376      3.309      8.193
REMARK INTER + INTRA:         -12.141
REMARK INTER:                 -10.834
REMARK INTRA:                  -1.308
REMARK UNBOUND:                -1.100
REMARK  Name = 
REMARK  9 active torsions:
REMARK  status: ('A' for Active; 'I' for Inactive)
REMARK    1  A    between atoms: C_2  and  C_22
REMARK    2  A    between atoms: N_3  and  C_4
REMARK    3  A    between atoms: C_4  and  C_5
REMARK    4  A    between atoms: C_8  and  C_9
REMARK    5  A    between atoms: C_9  and  O_10
REMARK    6  A    between atoms: O_10  and  C_11
REMARK    7  A    between atoms: C_11  and  C_12
REMARK    8  A    between atoms: C_17  and  C_18
REMARK    9  A    between atoms: C_18  and  O_19
REMARK                            x       y       z     vdW  Elec       q    Type
REMARK                         _______ _______ _______ _____ _____    ______ ____
ROOT
ATOM      1  C   UNL     1      48.551   8.007  13.529  0.00  0.00    +0.000 A 
ATOM      2  C   UNL     1      47.927   8.913  14.395  0.00  0.00    +0.000 A 
ATOM      3  C   UNL     1      48.123   8.828  15.775  0.00  0.00    +0.000 A 
ATOM      4  C   UNL     1      48.952   7.835  16.315  0.00  0.00    +0.000 A 
ATOM      5  C   UNL     1      49.598   6.946  15.448  0.00  0.00    +0.000 A 
ATOM      6  C   UNL     1      49.405   7.035  14.067  0.00  0.00    +0.000 A 
ENDROOT
BRANCH   1   7
ATOM      7  C   UNL     1      48.340   8.112  12.042  0.00  0.00    +0.000 C 
BRANCH   7  10
ATOM      8  O   UNL     1      45.546   7.913  11.796  0.00  0.00    +0.000 OA
ATOM      9  C   UNL     1      46.246   6.986  11.399  0.00  0.00    +0.000 C 
ATOM     10  N   UNL     1      47.608   6.974  11.548  0.00  0.00    +0.000 N 
ATOM     11  H   UNL     1      48.153   6.288  11.041  0.00  0.00    +0.000 HD
BRANCH   9  12
ATOM     12  C   UNL     1      45.653   5.791  10.784  0.00  0.00    +0.000 A 
ATOM     13  C   UNL     1      45.875   5.529   9.439  0.00  0.00    +0.000 A 
ATOM     14  S   UNL     1      45.095   4.120   8.878  0.00  0.00    +0.000 S 
ATOM     15  C   UNL     1      44.472   3.783  10.425  0.00  0.00    +0.000 A 
ATOM     16  N   UNL     1      43.715   2.675  10.647  0.00  0.00    +0.000 NA
ATOM     17  C   UNL     1      43.345   2.518  11.874  0.00  0.00    +0.000 A 
ATOM     18  N   UNL     1      43.654   3.375  12.898  0.00  0.00    +0.000 N 
ATOM     19  C   UNL     1      44.353   4.543  12.707  0.00  0.00    +0.000 A 
ATOM     20  O   UNL     1      44.506   5.344  13.623  0.00  0.00    +0.000 OA
ATOM     21  C   UNL     1      44.832   4.746  11.352  0.00  0.00    +0.000 A 
ATOM     22  H   UNL     1      43.311   3.209  13.832  0.00  0.00    +0.000 HD
ENDBRANCH   9  12
ENDBRANCH   7  10
ENDBRANCH   1   7
BRANCH   4  23
ATOM     23  C   UNL     1      49.166   7.747  17.803  0.00  0.00    +0.000 C 
BRANCH  23  24
ATOM     24  O   UNL     1      49.969   6.604  18.095  0.00  0.00    +0.000 OA
BRANCH  24  25
ATOM     25  C   UNL     1      49.161   5.527  18.581  0.00  0.00    +0.000 C 
BRANCH  25  26
ATOM     26  C   UNL     1      49.624   4.213  17.995  0.00  0.00    +0.000 A 
ATOM     27  N   UNL     1      50.923   3.884  18.234  0.00  0.00    +0.000 NA
ATOM     28  C   UNL     1      51.385   2.726  17.716  0.00  0.00    +0.000 A 
ATOM     29  C   UNL     1      50.613   1.857  16.970  0.00  0.00    +0.000 A 
ATOM     30  C   UNL     1      49.284   2.193  16.743  0.00  0.00    +0.000 A 
ATOM     31  C   UNL     1      48.758   3.382  17.268  0.00  0.00    +0.000 A 
BRANCH  31  32
ATOM     32  C   UNL     1      47.324   3.739  16.998  0.00  0.00    +0.000 C 
BRANCH  32  33
ATOM     33  O   UNL     1      46.458   2.868  17.707  0.00  0.00    +0.000 OA
ATOM     34  H   UNL     1      45.955   2.371  17.030  0.00  0.00    +0.000 HD
ENDBRANCH  32  33
ENDBRANCH  31  32
ENDBRANCH  25  26
ENDBRANCH  24  25
ENDBRANCH  23  24
ENDBRANCH   4  23
TORSDOF 9
ENDMDL
MODEL 4
REMARK VINA RESULT:    -7.344      3.463      4.669
REMARK INTER + INTRA:         -12.094
REMARK INTER:                 -11.066
REMARK INTRA:                  -1.028
REMARK UNBOUND:                -1.100
REMARK  Name = 
REMARK  9 active torsions:
REMARK  status: ('A' for Active; 'I' for Inactive)
REMARK    1  A    between atoms: C_2  and  C_22
REMARK    2  A    between atoms: N_3  and  C_4
REMARK    3  A    between atoms: C_4  and  C_5
REMARK    4  A    between atoms: C_8  and  C_9
REMARK    5  A    between atoms: C_9  and  O_10
REMARK    6  A    between atoms: O_10  and  C_11
REMARK    7  A    between atoms: C_11  and  C_12
REMARK    8  A    between atoms: C_17  and  C_18
REMARK    9  A    between atoms: C_18  and  O_19
REMARK                            x       y       z     vdW  Elec       q    Type
REMARK                         _______ _______ _______ _____ _____    ______ ____
ROOT
ATOM      1  C   UNL     1      48.135   5.100  16.223  0.00  0.00    +0.000 A 
ATOM      2  C   UNL     1      47.187   4.274  15.606  0.00  0.00    +0.000 A 
ATOM      3  C   UNL     1      46.687   4.588  14.341  0.00  0.00    +0.000 A 
ATOM      4  C   UNL     1      47.130   5.734  13.666  0.00  0.00    +0.000 A 
ATOM      5  C   UNL     1      48.099   6.544  14.270  0.00  0.00    +0.000 A 
ATOM      6  C   UNL     1      48.602   6.227  15.534  0.00  0.00    +0.000 A 
ENDROOT
BRANCH   1   7
ATOM      7  C   UNL     1      48.674   4.748  17.584  0.00  0.00    +0.000 C 
BRANCH   7  10
ATOM      8  O   UNL     1      50.632   4.986  19.589  0.00  0.00    +0.000 OA
ATOM      9  C   UNL     1      50.916   4.404  18.546  0.00  0.00    +0.000 C 
ATOM     10  N   UNL     1      50.043   4.308  17.494  0.00  0.00    +0.000 N 
ATOM     11  H   UNL     1      50.248   3.663  16.741  0.00  0.00    +0.000 HD
BRANCH   9  12
ATOM     12  C   UNL     1      52.246   3.817  18.338  0.00  0.00    +0.000 A 
ATOM     13  C   UNL     1      53.380   4.557  18.646  0.00  0.00    +0.000 A 
ATOM     14  S   UNL     1      54.840   3.740  18.321  0.00  0.00    +0.000 S 
ATOM     15  C   UNL     1      54.010   2.349  17.802  0.00  0.00    +0.000 A 
ATOM     16  N   UNL     1      54.687   1.240  17.400  0.00  0.00    +0.000 NA
ATOM     17  C   UNL     1      53.935   0.243  17.074  0.00  0.00    +0.000 A 
ATOM     18  N   UNL     1      52.565   0.257  17.104  0.00  0.00    +0.000 N 
ATOM     19  C   UNL     1      51.838   1.376  17.433  0.00  0.00    +0.000 A 
ATOM     20  O   UNL     1      50.616   1.388  17.331  0.00  0.00    +0.000 OA
ATOM     21  C   UNL     1      52.636   2.513  17.851  0.00  0.00    +0.000 A 
ATOM     22  H   UNL     1      52.033  -0.549  16.811  0.00  0.00    +0.000 HD
ENDBRANCH   9  12
ENDBRANCH   7  10
ENDBRANCH   1   7
BRANCH   4  23
ATOM     23  C   UNL     1      46.594   6.069  12.299  0.00  0.00    +0.000 C 
BRANCH  23  24
ATOM     24  O   UNL     1      45.350   5.397  12.105  0.00  0.00    +0.000 OA
BRANCH  24  25
ATOM     25  C   UNL     1      44.804   5.700  10.817  0.00  0.00    +0.000 C 
BRANCH  25  26
ATOM     26  C   UNL     1      45.025   4.546   9.865  0.00  0.00    +0.000 A 
ATOM     27  N   UNL     1      45.765   4.827   8.757  0.00  0.00    +0.000 NA
ATOM     28  C   UNL     1      45.975   3.831   7.871  0.00  0.00    +0.000 A 
ATOM     29  C   UNL     1      45.493   2.547   8.031  0.00  0.00    +0.000 A 
ATOM     30  C   UNL     1      44.752   2.264   9.173  0.00  0.00    +0.000 A 
ATOM     31  C   UNL     1      44.514   3.266  10.125  0.00  0.00    +0.000 A 
BRANCH  31  32
ATOM     32  C   UNL     1      43.696   2.948  11.344  0.00  0.00    +0.000 C 
BRANCH  32  33
ATOM     33  O   UNL     1      44.533   2.490  12.393  0.00  0.00    +0.000 OA
ATOM     34  H   UNL     1      45.185   1.888  11.979  0.00  0.00    +0.000 HD
ENDBRANCH  32  33
ENDBRANCH  31  32
ENDBRANCH  25  26
ENDBRANCH  24  25
ENDBRANCH  23  24
ENDBRANCH   4  23
TORSDOF 9
ENDMDL
MODEL 5
REMARK VINA RESULT:    -6.504      1.883      2.487
REMARK INTER + INTRA:         -10.836
REMARK INTER:                 -10.050
REMARK INTRA:                  -0.786
REMARK UNBOUND:                -1.100
REMARK  Name = 
REMARK  9 active torsions:
REMARK  status: ('A' for Active; 'I' for Inactive)
REMARK    1  A    between atoms: C_2  and  C_22
REMARK    2  A    between atoms: N_3  and  C_4
REMARK    3  A    between atoms: C_4  and  C_5
REMARK    4  A    between atoms: C_8  and  C_9
REMARK    5  A    between atoms: C_9  and  O_10
REMARK    6  A    between atoms: O_10  and  C_11
REMARK    7  A    between atoms: C_11  and  C_12
REMARK    8  A    between atoms: C_17  and  C_18
REMARK    9  A    between atoms: C_18  and  O_19
REMARK                            x       y       z     vdW  Elec       q    Type
REMARK                         _______ _______ _______ _____ _____    ______ ____
ROOT
ATOM      1  C   UNL     1      47.364   6.288  13.288  0.00  0.00    +0.000 A 
ATOM      2  C   UNL     1      46.403   6.744  12.377  0.00  0.00    +0.000 A 
ATOM      3  C   UNL     1      45.431   5.876  11.876  0.00  0.00    +0.000 A 
ATOM      4  C   UNL     1      45.400   4.534  12.280  0.00  0.00    +0.000 A 
ATOM      5  C   UNL     1      46.343   4.085  13.211  0.00  0.00    +0.000 A 
ATOM      6  C   UNL     1      47.313   4.955  13.716  0.00  0.00    +0.000 A 
ENDROOT
BRANCH   1   7
ATOM      7  C   UNL     1      48.403   7.234  13.829  0.00  0.00    +0.000 C 
BRANCH   7  10
ATOM      8  O   UNL     1      48.399   8.234  16.457  0.00  0.00    +0.000 OA
ATOM      9  C   UNL     1      48.972   7.174  16.225  0.00  0.00    +0.000 C 
ATOM     10  N   UNL     1      49.081   6.656  14.961  0.00  0.00    +0.000 N 
ATOM     11  H   UNL     1      49.390   5.698  14.846  0.00  0.00    +0.000 HD
BRANCH   9  12
ATOM     12  C   UNL     1      49.635   6.415  17.294  0.00  0.00    +0.000 A 
ATOM     13  C   UNL     1      48.883   5.912  18.347  0.00  0.00    +0.000 A 
ATOM     14  S   UNL     1      49.808   5.080  19.513  0.00  0.00    +0.000 S 
ATOM     15  C   UNL     1      51.241   5.320  18.627  0.00  0.00    +0.000 A 
ATOM     16  N   UNL     1      52.427   4.823  19.069  0.00  0.00    +0.000 NA
ATOM     17  C   UNL     1      53.425   5.039  18.280  0.00  0.00    +0.000 A 
ATOM     18  N   UNL     1      53.346   5.717  17.091  0.00  0.00    +0.000 N 
ATOM     19  C   UNL     1      52.185   6.298  16.640  0.00  0.00    +0.000 A 
ATOM     20  O   UNL     1      52.180   7.000  15.634  0.00  0.00    +0.000 OA
ATOM     21  C   UNL     1      51.022   6.047  17.470  0.00  0.00    +0.000 A 
ATOM     22  H   UNL     1      54.170   5.876  16.530  0.00  0.00    +0.000 HD
ENDBRANCH   9  12
ENDBRANCH   7  10
ENDBRANCH   1   7
BRANCH   4  23
ATOM     23  C   UNL     1      44.348   3.599  11.742  0.00  0.00    +0.000 C 
BRANCH  23  24
ATOM     24  O   UNL     1      44.985   2.485  11.119  0.00  0.00    +0.000 OA
BRANCH  24  25
ATOM     25  C   UNL     1      44.385   2.202   9.850  0.00  0.00    +0.000 C 
BRANCH  25  26
ATOM     26  C   UNL     1      45.438   2.160   8.766  0.00  0.00    +0.000 A 
ATOM     27  N   UNL     1      45.934   0.927   8.471  0.00  0.00    +0.000 NA
ATOM     28  C   UNL     1      46.888   0.842   7.520  0.00  0.00    +0.000 A 
ATOM     29  C   UNL     1      47.378   1.931   6.826  0.00  0.00    +0.000 A 
ATOM     30  C   UNL     1      46.856   3.185   7.122  0.00  0.00    +0.000 A 
ATOM     31  C   UNL     1      45.858   3.320   8.098  0.00  0.00    +0.000 A 
BRANCH  31  32
ATOM     32  C   UNL     1      45.318   4.684   8.419  0.00  0.00    +0.000 C 
BRANCH  32  33
ATOM     33  O   UNL     1      43.902   4.648   8.494  0.00  0.00    +0.000 OA
ATOM     34  H   UNL     1      43.683   4.345   9.399  0.00  0.00    +0.000 HD
ENDBRANCH  32  33
ENDBRANCH  31  32
ENDBRANCH  25  26
ENDBRANCH  24  25
ENDBRANCH  23  24
ENDBRANCH   4  23
TORSDOF 9
ENDMDL
MODEL 6
REMARK VINA RESULT:    -6.386      3.668      8.362
REMARK INTER + INTRA:         -10.660
REMARK INTER:                  -8.869
REMARK INTRA:                  -1.790
REMARK UNBOUND:                -1.100
REMARK  Name = 
REMARK  9 active torsions:
REMARK  status: ('A' for Active; 'I' for Inactive)
REMARK    1  A    between atoms: C_2  and  C_22
REMARK    2  A    between atoms: N_3  and  C_4
REMARK    3  A    between atoms: C_4  and  C_5
REMARK    4  A    between atoms: C_8  and  C_9
REMARK    5  A    between atoms: C_9  and  O_10
REMARK    6  A    between atoms: O_10  and  C_11
REMARK    7  A    between atoms: C_11  and  C_12
REMARK    8  A    between atoms: C_17  and  C_18
REMARK    9  A    between atoms: C_18  and  O_19
REMARK                            x       y       z     vdW  Elec       q    Type
REMARK                         _______ _______ _______ _____ _____    ______ ____
ROOT
ATOM      1  C   UNL     1      48.764   8.808  15.250  0.00  0.00    +0.000 A 
ATOM      2  C   UNL     1      49.953   8.071  15.178  0.00  0.00    +0.000 A 
ATOM      3  C   UNL     1      50.668   7.762  16.337  0.00  0.00    +0.000 A 
ATOM      4  C   UNL     1      50.206   8.182  17.592  0.00  0.00    +0.000 A 
ATOM      5  C   UNL     1      49.003   8.894  17.666  0.00  0.00    +0.000 A 
ATOM      6  C   UNL     1      48.285   9.199  16.507  0.00  0.00    +0.000 A 
ENDROOT
BRANCH   1   7
ATOM      7  C   UNL     1      47.996   9.129  13.996  0.00  0.00    +0.000 C 
BRANCH   7  10
ATOM      8  O   UNL     1      48.481   6.987  12.240  0.00  0.00    +0.000 OA
ATOM      9  C   UNL     1      47.419   7.024  12.855  0.00  0.00    +0.000 C 
ATOM     10  N   UNL     1      47.077   8.068  13.673  0.00  0.00    +0.000 N 
ATOM     11  H   UNL     1      46.287   7.965  14.299  0.00  0.00    +0.000 HD
BRANCH   9  12
ATOM     12  C   UNL     1      46.412   5.964  12.703  0.00  0.00    +0.000 A 
ATOM     13  C   UNL     1      46.707   4.673  13.120  0.00  0.00    +0.000 A 
ATOM     14  S   UNL     1      45.443   3.561  12.850  0.00  0.00    +0.000 S 
ATOM     15  C   UNL     1      44.438   4.776  12.209  0.00  0.00    +0.000 A 
ATOM     16  N   UNL     1      43.173   4.492  11.797  0.00  0.00    +0.000 NA
ATOM     17  C   UNL     1      42.507   5.513  11.375  0.00  0.00    +0.000 A 
ATOM     18  N   UNL     1      42.993   6.793  11.317  0.00  0.00    +0.000 N 
ATOM     19  C   UNL     1      44.287   7.114  11.654  0.00  0.00    +0.000 A 
ATOM     20  O   UNL     1      44.723   8.246  11.474  0.00  0.00    +0.000 OA
ATOM     21  C   UNL     1      45.067   6.009  12.178  0.00  0.00    +0.000 A 
ATOM     22  H   UNL     1      42.429   7.545  10.951  0.00  0.00    +0.000 HD
ENDBRANCH   9  12
ENDBRANCH   7  10
ENDBRANCH   1   7
BRANCH   4  23
ATOM     23  C   UNL     1      50.976   7.844  18.841  0.00  0.00    +0.000 C 
BRANCH  23  24
ATOM     24  O   UNL     1      51.308   6.456  18.827  0.00  0.00    +0.000 OA
BRANCH  24  25
ATOM     25  C   UNL     1      50.262   5.678  19.417  0.00  0.00    +0.000 C 
BRANCH  25  26
ATOM     26  C   UNL     1      49.833   4.573  18.478  0.00  0.00    +0.000 A 
ATOM     27  N   UNL     1      50.742   3.580  18.279  0.00  0.00    +0.000 NA
ATOM     28  C   UNL     1      50.408   2.579  17.436  0.00  0.00    +0.000 A 
ATOM     29  C   UNL     1      49.196   2.503  16.777  0.00  0.00    +0.000 A 
ATOM     30  C   UNL     1      48.267   3.514  16.998  0.00  0.00    +0.000 A 
ATOM     31  C   UNL     1      48.568   4.569  17.871  0.00  0.00    +0.000 A 
BRANCH  31  32
ATOM     32  C   UNL     1      47.560   5.662  18.084  0.00  0.00    +0.000 C 
BRANCH  32  33
ATOM     33  O   UNL     1      46.398   5.145  18.713  0.00  0.00    +0.000 OA
ATOM     34  H   UNL     1      46.662   4.291  19.114  0.00  0.00    +0.000 HD
ENDBRANCH  32  33
ENDBRANCH  31  32
ENDBRANCH  25  26
ENDBRANCH  24  25
ENDBRANCH  23  24
ENDBRANCH   4  23
TORSDOF 9
ENDMDL
MODEL 7
REMARK VINA RESULT:    -6.383      3.515      4.848
REMARK INTER + INTRA:         -10.655
REMARK INTER:                  -9.563
REMARK INTRA:                  -1.091
REMARK UNBOUND:                -1.100
REMARK  Name = 
REMARK  9 active torsions:
REMARK  status: ('A' for Active; 'I' for Inactive)
REMARK    1  A    between atoms: C_2  and  C_22
REMARK    2  A    between atoms: N_3  and  C_4
REMARK    3  A    between atoms: C_4  and  C_5
REMARK    4  A    between atoms: C_8  and  C_9
REMARK    5  A    between atoms: C_9  and  O_10
REMARK    6  A    between atoms: O_10  and  C_11
REMARK    7  A    between atoms: C_11  and  C_12
REMARK    8  A    between atoms: C_17  and  C_18
REMARK    9  A    between atoms: C_18  and  O_19
REMARK                            x       y       z     vdW  Elec       q    Type
REMARK                         _______ _______ _______ _____ _____    ______ ____
ROOT
ATOM      1  C   UNL     1      47.721   6.401  13.567  0.00  0.00    +0.000 A 
ATOM      2  C   UNL     1      47.315   6.950  12.344  0.00  0.00    +0.000 A 
ATOM      3  C   UNL     1      46.364   6.300  11.554  0.00  0.00    +0.000 A 
ATOM      4  C   UNL     1      45.798   5.089  11.975  0.00  0.00    +0.000 A 
ATOM      5  C   UNL     1      46.184   4.554  13.210  0.00  0.00    +0.000 A 
ATOM      6  C   UNL     1      47.132   5.208  14.003  0.00  0.00    +0.000 A 
ENDROOT
BRANCH   1   7
ATOM      7  C   UNL     1      48.741   7.113  14.415  0.00  0.00    +0.000 C 
BRANCH   7  10
ATOM      8  O   UNL     1      49.966   9.636  14.214  0.00  0.00    +0.000 OA
ATOM      9  C   UNL     1      50.486   8.676  13.654  0.00  0.00    +0.000 C 
ATOM     10  N   UNL     1      49.916   7.431  13.645  0.00  0.00    +0.000 N 
ATOM     11  H   UNL     1      50.468   6.638  13.339  0.00  0.00    +0.000 HD
BRANCH   9  12
ATOM     12  C   UNL     1      51.741   8.818  12.903  0.00  0.00    +0.000 A 
ATOM     13  C   UNL     1      52.795   9.535  13.455  0.00  0.00    +0.000 A 
ATOM     14  S   UNL     1      54.164   9.626  12.444  0.00  0.00    +0.000 S 
ATOM     15  C   UNL     1      53.415   8.671  11.252  0.00  0.00    +0.000 A 
ATOM     16  N   UNL     1      54.071   8.342  10.106  0.00  0.00    +0.000 NA
ATOM     17  C   UNL     1      53.404   7.577   9.309  0.00  0.00    +0.000 A 
ATOM     18  N   UNL     1      52.135   7.118   9.548  0.00  0.00    +0.000 N 
ATOM     19  C   UNL     1      51.407   7.483  10.657  0.00  0.00    +0.000 A 
ATOM     20  O   UNL     1      50.232   7.152  10.777  0.00  0.00    +0.000 OA
ATOM     21  C   UNL     1      52.128   8.308  11.608  0.00  0.00    +0.000 A 
ATOM     22  H   UNL     1      51.656   6.543   8.872  0.00  0.00    +0.000 HD
ENDBRANCH   9  12
ENDBRANCH   7  10
ENDBRANCH   1   7
BRANCH   4  23
ATOM     23  C   UNL     1      44.770   4.391  11.125  0.00  0.00    +0.000 C 
BRANCH  23  24
ATOM     24  O   UNL     1      45.245   3.089  10.787  0.00  0.00    +0.000 OA
BRANCH  24  25
ATOM     25  C   UNL     1      44.591   2.599   9.612  0.00  0.00    +0.000 C 
BRANCH  25  26
ATOM     26  C   UNL     1      45.610   2.164   8.583  0.00  0.00    +0.000 A 
ATOM     27  N   UNL     1      45.825   0.823   8.494  0.00  0.00    +0.000 NA
ATOM     28  C   UNL     1      46.738   0.388   7.599  0.00  0.00    +0.000 A 
ATOM     29  C   UNL     1      47.454   1.225   6.766  0.00  0.00    +0.000 A 
ATOM     30  C   UNL     1      47.219   2.592   6.853  0.00  0.00    +0.000 A 
ATOM     31  C   UNL     1      46.274   3.089   7.763  0.00  0.00    +0.000 A 
BRANCH  31  32
ATOM     32  C   UNL     1      46.045   4.570   7.856  0.00  0.00    +0.000 C 
BRANCH  32  33
ATOM     33  O   UNL     1      47.283   5.262   7.838  0.00  0.00    +0.000 OA
ATOM     34  H   UNL     1      47.886   4.728   7.281  0.00  0.00    +0.000 HD
ENDBRANCH  32  33
ENDBRANCH  31  32
ENDBRANCH  25  26
ENDBRANCH  24  25
ENDBRANCH  23  24
ENDBRANCH   4  23
TORSDOF 9
ENDMDL
MODEL 8
REMARK VINA RESULT:    -6.330      3.613      8.059
REMARK INTER + INTRA:         -10.575
REMARK INTER:                  -8.883
REMARK INTRA:                  -1.692
REMARK UNBOUND:                -1.100
REMARK  Name = 
REMARK  9 active torsions:
REMARK  status: ('A' for Active; 'I' for Inactive)
REMARK    1  A    between atoms: C_2  and  C_22
REMARK    2  A    between atoms: N_3  and  C_4
REMARK    3  A    between atoms: C_4  and  C_5
REMARK    4  A    between atoms: C_8  and  C_9
REMARK    5  A    between atoms: C_9  and  O_10
REMARK    6  A    between atoms: O_10  and  C_11
REMARK    7  A    between atoms: C_11  and  C_12
REMARK    8  A    between atoms: C_17  and  C_18
REMARK    9  A    between atoms: C_18  and  O_19
REMARK                            x       y       z     vdW  Elec       q    Type
REMARK                         _______ _______ _______ _____ _____    ______ ____
ROOT
ATOM      1  C   UNL     1      49.300   8.580  14.839  0.00  0.00    +0.000 A 
ATOM      2  C   UNL     1      50.570   8.079  14.530  0.00  0.00    +0.000 A 
ATOM      3  C   UNL     1      51.300   7.358  15.477  0.00  0.00    +0.000 A 
ATOM      4  C   UNL     1      50.769   7.121  16.753  0.00  0.00    +0.000 A 
ATOM      5  C   UNL     1      49.488   7.598  17.053  0.00  0.00    +0.000 A 
ATOM      6  C   UNL     1      48.756   8.315  16.103  0.00  0.00    +0.000 A 
ENDROOT
BRANCH   1   7
ATOM      7  C   UNL     1      48.518   9.349  13.809  0.00  0.00    +0.000 C 
BRANCH   7  10
ATOM      8  O   UNL     1      48.320   7.601  11.615  0.00  0.00    +0.000 OA
ATOM      9  C   UNL     1      47.353   7.734  12.359  0.00  0.00    +0.000 C 
ATOM     10  N   UNL     1      47.344   8.618  13.406  0.00  0.00    +0.000 N 
ATOM     11  H   UNL     1      46.606   8.556  14.097  0.00  0.00    +0.000 HD
BRANCH   9  12
ATOM     12  C   UNL     1      46.109   6.985  12.135  0.00  0.00    +0.000 A 
ATOM     13  C   UNL     1      45.039   7.604  11.502  0.00  0.00    +0.000 A 
ATOM     14  S   UNL     1      43.666   6.606  11.345  0.00  0.00    +0.000 S 
ATOM     15  C   UNL     1      44.468   5.295  12.074  0.00  0.00    +0.000 A 
ATOM     16  N   UNL     1      43.848   4.094  12.228  0.00  0.00    +0.000 NA
ATOM     17  C   UNL     1      44.585   3.175  12.755  0.00  0.00    +0.000 A 
ATOM     18  N   UNL     1      45.885   3.350  13.151  0.00  0.00    +0.000 N 
ATOM     19  C   UNL     1      46.529   4.563  13.082  0.00  0.00    +0.000 A 
ATOM     20  O   UNL     1      47.649   4.711  13.558  0.00  0.00    +0.000 OA
ATOM     21  C   UNL     1      45.758   5.621  12.456  0.00  0.00    +0.000 A 
ATOM     22  H   UNL     1      46.401   2.597  13.582  0.00  0.00    +0.000 HD
ENDBRANCH   9  12
ENDBRANCH   7  10
ENDBRANCH   1   7
BRANCH   4  23
ATOM     23  C   UNL     1      51.555   6.339  17.772  0.00  0.00    +0.000 C 
BRANCH  23  24
ATOM     24  O   UNL     1      50.741   6.115  18.922  0.00  0.00    +0.000 OA
BRANCH  24  25
ATOM     25  C   UNL     1      50.620   4.715  19.193  0.00  0.00    +0.000 C 
BRANCH  25  26
ATOM     26  C   UNL     1      49.549   4.099  18.321  0.00  0.00    +0.000 A 
ATOM     27  N   UNL     1      48.324   4.691  18.381  0.00  0.00    +0.000 NA
ATOM     28  C   UNL     1      47.333   4.165  17.631  0.00  0.00    +0.000 A 
ATOM     29  C   UNL     1      47.495   3.072  16.802  0.00  0.00    +0.000 A 
ATOM     30  C   UNL     1      48.752   2.484  16.734  0.00  0.00    +0.000 A 
ATOM     31  C   UNL     1      49.814   3.000  17.490  0.00  0.00    +0.000 A 
BRANCH  31  32
ATOM     32  C   UNL     1      51.162   2.340  17.420  0.00  0.00    +0.000 C 
BRANCH  32  33
ATOM     33  O   UNL     1      51.053   0.963  17.739  0.00  0.00    +0.000 OA
ATOM     34  H   UNL     1      51.970   0.631  17.834  0.00  0.00    +0.000 HD
ENDBRANCH  32  33
ENDBRANCH  31  32
ENDBRANCH  25  26
ENDBRANCH  24  25
ENDBRANCH  23  24
ENDBRANCH   4  23
TORSDOF 9
ENDMDL
MODEL 9
REMARK VINA RESULT:    -6.327      3.050      9.212
REMARK INTER + INTRA:         -10.571
REMARK INTER:                  -9.579
REMARK INTRA:                  -0.991
REMARK UNBOUND:                -1.100
REMARK  Name = 
REMARK  9 active torsions:
REMARK  status: ('A' for Active; 'I' for Inactive)
REMARK    1  A    between atoms: C_2  and  C_22
REMARK    2  A    between atoms: N_3  and  C_4
REMARK    3  A    between atoms: C_4  and  C_5
REMARK    4  A    between atoms: C_8  and  C_9
REMARK    5  A    between atoms: C_9  and  O_10
REMARK    6  A    between atoms: O_10  and  C_11
REMARK    7  A    between atoms: C_11  and  C_12
REMARK    8  A    between atoms: C_17  and  C_18
REMARK    9  A    between atoms: C_18  and  O_19
REMARK                            x       y       z     vdW  Elec       q    Type
REMARK                         _______ _______ _______ _____ _____    ______ ____
ROOT
ATOM      1  C   UNL     1      46.363   6.529  12.294  0.00  0.00    +0.000 A 
ATOM      2  C   UNL     1      46.905   7.795  12.549  0.00  0.00    +0.000 A 
ATOM      3  C   UNL     1      47.805   7.985  13.599  0.00  0.00    +0.000 A 
ATOM      4  C   UNL     1      48.184   6.909  14.414  0.00  0.00    +0.000 A 
ATOM      5  C   UNL     1      47.664   5.638  14.143  0.00  0.00    +0.000 A 
ATOM      6  C   UNL     1      46.766   5.448  13.088  0.00  0.00    +0.000 A 
ENDROOT
BRANCH   1   7
ATOM      7  C   UNL     1      45.399   6.333  11.155  0.00  0.00    +0.000 C 
BRANCH   7  10
ATOM      8  O   UNL     1      43.482   4.738   9.855  0.00  0.00    +0.000 OA
ATOM      9  C   UNL     1      44.661   4.398   9.821  0.00  0.00    +0.000 C 
ATOM     10  N   UNL     1      45.645   5.081  10.487  0.00  0.00    +0.000 N 
ATOM     11  H   UNL     1      46.615   4.878  10.275  0.00  0.00    +0.000 HD
BRANCH   9  12
ATOM     12  C   UNL     1      45.086   3.191   9.099  0.00  0.00    +0.000 A 
ATOM     13  C   UNL     1      44.470   1.976   9.370  0.00  0.00    +0.000 A 
ATOM     14  S   UNL     1      45.099   0.673   8.468  0.00  0.00    +0.000 S 
ATOM     15  C   UNL     1      46.185   1.695   7.648  0.00  0.00    +0.000 A 
ATOM     16  N   UNL     1      47.022   1.204   6.694  0.00  0.00    +0.000 NA
ATOM     17  C   UNL     1      47.760   2.094   6.121  0.00  0.00    +0.000 A 
ATOM     18  N   UNL     1      47.746   3.431   6.422  0.00  0.00    +0.000 N 
ATOM     19  C   UNL     1      46.971   3.960   7.427  0.00  0.00    +0.000 A 
ATOM     20  O   UNL     1      47.075   5.139   7.749  0.00  0.00    +0.000 OA
ATOM     21  C   UNL     1      46.088   3.008   8.074  0.00  0.00    +0.000 A 
ATOM     22  H   UNL     1      48.368   4.073   5.955  0.00  0.00    +0.000 HD
ENDBRANCH   9  12
ENDBRANCH   7  10
ENDBRANCH   1   7
BRANCH   4  23
ATOM     23  C   UNL     1      49.158   7.114  15.544  0.00  0.00    +0.000 C 
BRANCH  23  24
ATOM     24  O   UNL     1      48.462   7.026  16.786  0.00  0.00    +0.000 OA
BRANCH  24  25
ATOM     25  C   UNL     1      49.347   6.623  17.836  0.00  0.00    +0.000 C 
BRANCH  25  26
ATOM     26  C   UNL     1      49.707   5.161  17.692  0.00  0.00    +0.000 A 
ATOM     27  N   UNL     1      51.039   4.880  17.664  0.00  0.00    +0.000 NA
ATOM     28  C   UNL     1      51.408   3.590  17.521  0.00  0.00    +0.000 A 
ATOM     29  C   UNL     1      50.513   2.543  17.412  0.00  0.00    +0.000 A 
ATOM     30  C   UNL     1      49.156   2.837  17.456  0.00  0.00    +0.000 A 
ATOM     31  C   UNL     1      48.725   4.162  17.611  0.00  0.00    +0.000 A 
BRANCH  31  32
ATOM     32  C   UNL     1      47.254   4.464  17.639  0.00  0.00    +0.000 C 
BRANCH  32  33
ATOM     33  O   UNL     1      46.526   3.423  17.008  0.00  0.00    +0.000 OA
ATOM     34  H   UNL     1      47.192   2.788  16.673  0.00  0.00    +0.000 HD
ENDBRANCH  32  33
ENDBRANCH  31  32
ENDBRANCH  25  26
ENDBRANCH  24  25
ENDBRANCH  23  24
ENDBRANCH   4  23
TORSDOF 9
ENDMDL
