MODEL 1
REMARK VINA RESULT:    -6.952      0.000      0.000
REMARK INTER + INTRA:         -11.001
REMARK INTER:                 -10.000
REMARK INTRA:                  -1.001
REMARK UNBOUND:                -1.001
REMARK  Name = 
REMARK  9 active torsions:
REMARK  status: ('A' for Active; 'I' for Inactive)
REMARK    1  A    between atoms: N_1  and  C_2
REMARK    2  A    between atoms: C_2  and  C_3
REMARK    3  A    between atoms: C_8  and  C_9
REMARK    4  A    between atoms: C_9  and  C_10
REMARK    5  A    between atoms: C_10  and  O_11
REMARK    6  A    between atoms: C_10  and  C_12
REMARK    7  A    between atoms: C_12  and  O_13
REMARK    8  A    between atoms: C_16  and  C_17
REMARK    9  A    between atoms: C_17  and  C_18
REMARK                            x       y       z     vdW  Elec       q    Type
REMARK                         _______ _______ _______ _____ _____    ______ ____
ROOT
ATOM      1  C   UNL     1      46.428   4.950  13.104  0.00  0.00    +0.000 A 
ATOM      2  C   UNL     1      47.386   5.896  13.760  0.00  0.00    +0.000 A 
ATOM      3  N   UNL     1      47.369   7.192  13.686  0.00  0.00    +0.000 NA
ATOM      4  C   UNL     1      46.363   7.724  12.933  0.00  0.00    +0.000 A 
ATOM      5  C   UNL     1      46.077   9.026  12.619  0.00  0.00    +0.000 A 
ATOM      6  C   UNL     1      44.917   8.971  11.823  0.00  0.00    +0.000 A 
ATOM      7  N   UNL     1      44.478   7.719  11.664  0.00  0.00    +0.000 NA
ATOM      8  N   UNL     1      45.390   6.935  12.314  0.00  0.00    +0.000 N 
ATOM      9  C   UNL     1      45.424   5.528  12.399  0.00  0.00    +0.000 A 
ENDROOT
BRANCH   1  10
ATOM     10  C   UNL     1      46.712   3.496  13.300  0.00  0.00    +0.000 C 
BRANCH  10  11
ATOM     11  N   UNL     1      47.429   3.270  14.546  0.00  0.00    +0.000 NA
ATOM     12  H   UNL     1      47.533   2.267  14.698  0.00  0.00    +0.000 HD
ATOM     13  H   UNL     1      46.874   3.608  15.333  0.00  0.00    +0.000 HD
ENDBRANCH  10  11
ENDBRANCH   1  10
BRANCH   6  14
ATOM     14  C   UNL     1      44.194  10.119  11.195  0.00  0.00    +0.000 C 
BRANCH  14  15
ATOM     15  C   UNL     1      43.052   9.715  10.254  0.00  0.00    +0.000 C 
BRANCH  15  16
ATOM     16  O   UNL     1      41.862   9.383  10.978  0.00  0.00    +0.000 OA
ATOM     17  H   UNL     1      41.894   9.869  11.825  0.00  0.00    +0.000 HD
ENDBRANCH  15  16
BRANCH  15  18
ATOM     18  C   UNL     1      42.729  10.767   9.181  0.00  0.00    +0.000 C 
BRANCH  18  19
ATOM     19  O   UNL     1      43.332  10.446   7.926  0.00  0.00    +0.000 OA
ATOM     20  H   UNL     1      43.662   9.531   7.975  0.00  0.00    +0.000 HD
ENDBRANCH  18  19
ENDBRANCH  15  18
ENDBRANCH  14  15
ENDBRANCH   6  14
BRANCH   9  21
ATOM     21  C   UNL     1      44.337   4.753  11.674  0.00  0.00    +0.000 C 
BRANCH  21  22
ATOM     22  C   UNL     1      44.789   4.160  10.351  0.00  0.00    +0.000 A 
ATOM     23  C   UNL     1      44.571   2.803  10.062  0.00  0.00    +0.000 A 
ATOM     24  C   UNL     1      45.050   2.239   8.878  0.00  0.00    +0.000 A 
ATOM     25  C   UNL     1      45.727   3.034   7.966  0.00  0.00    +0.000 A 
ATOM     26  F   UNL     1      46.212   2.487   6.844  0.00  0.00    +0.000 F 
ATOM     27  C   UNL     1      45.906   4.392   8.200  0.00  0.00    +0.000 A 
ATOM     28  C   UNL     1      45.433   4.957   9.388  0.00  0.00    +0.000 A 
ENDBRANCH  21  22
ENDBRANCH   9  21
TORSDOF 9
ENDMDL
MODEL 2
REMARK VINA RESULT:    -6.815      3.585      5.863
REMARK INTER + INTRA:         -10.804
REMARK INTER:                 -10.103
REMARK INTRA:                  -0.701
REMARK UNBOUND:                -1.001
REMARK  Name = 
REMARK  9 active torsions:
REMARK  status: ('A' for Active; 'I' for Inactive)
REMARK    1  A    between atoms: N_1  and  C_2
REMARK    2  A    between atoms: C_2  and  C_3
REMARK    3  A    between atoms: C_8  and  C_9
REMARK    4  A    between atoms: C_9  and  C_10
REMARK    5  A    between atoms: C_10  and  O_11
REMARK    6  A    between atoms: C_10  and  C_12
REMARK    7  A    between atoms: C_12  and  O_13
REMARK    8  A    between atoms: C_16  and  C_17
REMARK    9  A    between atoms: C_17  and  C_18
REMARK                            x       y       z     vdW  Elec       q    Type
REMARK                         _______ _______ _______ _____ _____    ______ ____
ROOT
ATOM      1  C   UNL     1      45.381   8.012  12.143  0.00  0.00    +0.000 A 
ATOM      2  C   UNL     1      46.600   8.618  12.770  0.00  0.00    +0.000 A 
ATOM      3  N   UNL     1      47.448   8.022  13.550  0.00  0.00    +0.000 NA
ATOM      4  C   UNL     1      47.188   6.708  13.806  0.00  0.00    +0.000 A 
ATOM      5  C   UNL     1      47.844   5.807  14.601  0.00  0.00    +0.000 A 
ATOM      6  C   UNL     1      47.130   4.602  14.469  0.00  0.00    +0.000 A 
ATOM      7  N   UNL     1      46.102   4.720  13.624  0.00  0.00    +0.000 NA
ATOM      8  N   UNL     1      46.105   6.032  13.239  0.00  0.00    +0.000 N 
ATOM      9  C   UNL     1      45.187   6.693  12.397  0.00  0.00    +0.000 A 
ENDROOT
BRANCH   1  10
ATOM     10  C   UNL     1      44.534   8.940  11.334  0.00  0.00    +0.000 C 
BRANCH  10  11
ATOM     11  N   UNL     1      44.100  10.076  12.133  0.00  0.00    +0.000 NA
ATOM     12  H   UNL     1      44.469   9.983  13.079  0.00  0.00    +0.000 HD
ATOM     13  H   UNL     1      43.084  10.060  12.235  0.00  0.00    +0.000 HD
ENDBRANCH  10  11
ENDBRANCH   1  10
BRANCH   6  14
ATOM     14  C   UNL     1      47.415   3.300  15.147  0.00  0.00    +0.000 C 
BRANCH  14  15
ATOM     15  C   UNL     1      47.737   3.417  16.643  0.00  0.00    +0.000 C 
BRANCH  15  16
ATOM     16  O   UNL     1      46.610   3.075  17.456  0.00  0.00    +0.000 OA
ATOM     17  H   UNL     1      46.957   2.735  18.303  0.00  0.00    +0.000 HD
ENDBRANCH  15  16
BRANCH  15  18
ATOM     18  C   UNL     1      48.960   2.597  17.080  0.00  0.00    +0.000 C 
BRANCH  18  19
ATOM     19  O   UNL     1      49.489   1.818  16.005  0.00  0.00    +0.000 OA
ATOM     20  H   UNL     1      50.180   2.344  15.564  0.00  0.00    +0.000 HD
ENDBRANCH  18  19
ENDBRANCH  15  18
ENDBRANCH  14  15
ENDBRANCH   6  14
BRANCH   9  21
ATOM     21  C   UNL     1      44.028   5.882  11.844  0.00  0.00    +0.000 C 
BRANCH  21  22
ATOM     22  C   UNL     1      44.425   4.938  10.722  0.00  0.00    +0.000 A 
ATOM     23  C   UNL     1      43.934   3.622  10.685  0.00  0.00    +0.000 A 
ATOM     24  C   UNL     1      44.354   2.730   9.697  0.00  0.00    +0.000 A 
ATOM     25  C   UNL     1      45.247   3.156   8.725  0.00  0.00    +0.000 A 
ATOM     26  F   UNL     1      45.673   2.292   7.795  0.00  0.00    +0.000 F 
ATOM     27  C   UNL     1      45.703   4.468   8.704  0.00  0.00    +0.000 A 
ATOM     28  C   UNL     1      45.289   5.361   9.697  0.00  0.00    +0.000 A 
ENDBRANCH  21  22
ENDBRANCH   9  21
TORSDOF 9
ENDMDL
MODEL 3
REMARK VINA RESULT:    -6.627      2.921      3.810
REMARK INTER + INTRA:         -10.534
REMARK INTER:                  -9.795
REMARK INTRA:                  -0.739
REMARK UNBOUND:                -1.001
REMARK  Name = 
REMARK  9 active torsions:
REMARK  status: ('A' for Active; 'I' for Inactive)
REMARK    1  A    between atoms: N_1  and  C_2
REMARK    2  A    between atoms: C_2  and  C_3
REMARK    3  A    between atoms: C_8  and  C_9
REMARK    4  A    between atoms: C_9  and  C_10
REMARK    5  A    between atoms: C_10  and  O_11
REMARK    6  A    between atoms: C_10  and  C_12
REMARK    7  A    between atoms: C_12  and  O_13
REMARK    8  A    between atoms: C_16  and  C_17
REMARK    9  A    between atoms: C_17  and  C_18
REMARK                            x       y       z     vdW  Elec       q    Type
REMARK                         _______ _______ _______ _____ _____    ______ ____
ROOT
ATOM      1  C   UNL     1      44.176   4.083  11.787  0.00  0.00    +0.000 A 
ATOM      2  C   UNL     1      44.495   4.120  13.250  0.00  0.00    +0.000 A 
ATOM      3  N   UNL     1      45.447   4.795  13.818  0.00  0.00    +0.000 NA
ATOM      4  C   UNL     1      46.218   5.546  12.980  0.00  0.00    +0.000 A 
ATOM      5  C   UNL     1      47.308   6.333  13.235  0.00  0.00    +0.000 A 
ATOM      6  C   UNL     1      47.681   6.870  11.989  0.00  0.00    +0.000 A 
ATOM      7  N   UNL     1      46.866   6.472  11.008  0.00  0.00    +0.000 NA
ATOM      8  N   UNL     1      45.980   5.618  11.604  0.00  0.00    +0.000 N 
ATOM      9  C   UNL     1      44.946   4.875  10.999  0.00  0.00    +0.000 A 
ENDROOT
BRANCH   1  10
ATOM     10  C   UNL     1      43.063   3.170  11.386  0.00  0.00    +0.000 C 
BRANCH  10  11
ATOM     11  N   UNL     1      43.287   1.824  11.893  0.00  0.00    +0.000 NA
ATOM     12  H   UNL     1      43.920   1.866  12.691  0.00  0.00    +0.000 HD
ATOM     13  H   UNL     1      43.773   1.264  11.191  0.00  0.00    +0.000 HD
ENDBRANCH  10  11
ENDBRANCH   1  10
BRANCH   6  14
ATOM     14  C   UNL     1      48.829   7.784  11.702  0.00  0.00    +0.000 C 
BRANCH  14  15
ATOM     15  C   UNL     1      48.545   9.268  11.970  0.00  0.00    +0.000 C 
BRANCH  15  16
ATOM     16  O   UNL     1      47.154   9.575  11.826  0.00  0.00    +0.000 OA
ATOM     17  H   UNL     1      46.668   8.727  11.841  0.00  0.00    +0.000 HD
ENDBRANCH  15  16
BRANCH  15  18
ATOM     18  C   UNL     1      49.045   9.760  13.337  0.00  0.00    +0.000 C 
BRANCH  18  19
ATOM     19  O   UNL     1      47.984   9.853  14.288  0.00  0.00    +0.000 OA
ATOM     20  H   UNL     1      47.140   9.791  13.806  0.00  0.00    +0.000 HD
ENDBRANCH  18  19
ENDBRANCH  15  18
ENDBRANCH  14  15
ENDBRANCH   6  14
BRANCH   9  21
ATOM     21  C   UNL     1      44.776   5.001   9.494  0.00  0.00    +0.000 C 
BRANCH  21  22
ATOM     22  C   UNL     1      45.500   3.922   8.707  0.00  0.00    +0.000 A 
ATOM     23  C   UNL     1      45.294   2.563   8.999  0.00  0.00    +0.000 A 
ATOM     24  C   UNL     1      46.012   1.571   8.327  0.00  0.00    +0.000 A 
ATOM     25  C   UNL     1      46.921   1.932   7.344  0.00  0.00    +0.000 A 
ATOM     26  F   UNL     1      47.631   0.983   6.720  0.00  0.00    +0.000 F 
ATOM     27  C   UNL     1      47.101   3.265   6.995  0.00  0.00    +0.000 A 
ATOM     28  C   UNL     1      46.388   4.259   7.671  0.00  0.00    +0.000 A 
ENDBRANCH  21  22
ENDBRANCH   9  21
TORSDOF 9
ENDMDL
MODEL 4
REMARK VINA RESULT:    -6.177      3.746      5.905
REMARK INTER + INTRA:          -9.887
REMARK INTER:                  -9.023
REMARK INTRA:                  -0.864
REMARK UNBOUND:                -1.001
REMARK  Name = 
REMARK  9 active torsions:
REMARK  status: ('A' for Active; 'I' for Inactive)
REMARK    1  A    between atoms: N_1  and  C_2
REMARK    2  A    between atoms: C_2  and  C_3
REMARK    3  A    between atoms: C_8  and  C_9
REMARK    4  A    between atoms: C_9  and  C_10
REMARK    5  A    between atoms: C_10  and  O_11
REMARK    6  A    between atoms: C_10  and  C_12
REMARK    7  A    between atoms: C_12  and  O_13
REMARK    8  A    between atoms: C_16  and  C_17
REMARK    9  A    between atoms: C_17  and  C_18
REMARK                            x       y       z     vdW  Elec       q    Type
REMARK                         _______ _______ _______ _____ _____    ______ ____
ROOT
ATOM      1  C   UNL     1      47.741   6.449  14.140  0.00  0.00    +0.000 A 
ATOM      2  C   UNL     1      47.501   5.082  14.705  0.00  0.00    +0.000 A 
ATOM      3  N   UNL     1      46.725   4.166  14.212  0.00  0.00    +0.000 NA
ATOM      4  C   UNL     1      46.077   4.501  13.060  0.00  0.00    +0.000 A 
ATOM      5  C   UNL     1      45.172   3.800  12.308  0.00  0.00    +0.000 A 
ATOM      6  C   UNL     1      44.855   4.641  11.225  0.00  0.00    +0.000 A 
ATOM      7  N   UNL     1      45.532   5.792  11.270  0.00  0.00    +0.000 NA
ATOM      8  N   UNL     1      46.262   5.732  12.425  0.00  0.00    +0.000 N 
ATOM      9  C   UNL     1      47.105   6.721  12.974  0.00  0.00    +0.000 A 
ENDROOT
BRANCH   1  10
ATOM     10  C   UNL     1      48.637   7.336  14.942  0.00  0.00    +0.000 C 
BRANCH  10  11
ATOM     11  N   UNL     1      49.974   6.772  15.041  0.00  0.00    +0.000 NA
ATOM     12  H   UNL     1      50.471   6.926  14.163  0.00  0.00    +0.000 HD
ATOM     13  H   UNL     1      49.917   5.757  15.145  0.00  0.00    +0.000 HD
ENDBRANCH  10  11
ENDBRANCH   1  10
BRANCH   6  14
ATOM     14  C   UNL     1      43.893   4.365  10.114  0.00  0.00    +0.000 C 
BRANCH  14  15
ATOM     15  C   UNL     1      44.553   4.024   8.771  0.00  0.00    +0.000 C 
BRANCH  15  16
ATOM     16  O   UNL     1      45.506   5.020   8.382  0.00  0.00    +0.000 OA
ATOM     17  H   UNL     1      45.566   5.664   9.114  0.00  0.00    +0.000 HD
ENDBRANCH  15  16
BRANCH  15  18
ATOM     18  C   UNL     1      45.210   2.636   8.736  0.00  0.00    +0.000 C 
BRANCH  18  19
ATOM     19  O   UNL     1      44.448   1.670   9.463  0.00  0.00    +0.000 OA
ATOM     20  H   UNL     1      45.049   0.952   9.731  0.00  0.00    +0.000 HD
ENDBRANCH  18  19
ENDBRANCH  15  18
ENDBRANCH  14  15
ENDBRANCH   6  14
BRANCH   9  21
ATOM     21  C   UNL     1      47.227   8.037  12.224  0.00  0.00    +0.000 C 
BRANCH  21  22
ATOM     22  C   UNL     1      48.645   8.356  11.781  0.00  0.00    +0.000 A 
ATOM     23  C   UNL     1      49.520   7.330  11.389  0.00  0.00    +0.000 A 
ATOM     24  C   UNL     1      50.846   7.611  11.051  0.00  0.00    +0.000 A 
ATOM     25  C   UNL     1      51.295   8.923  11.079  0.00  0.00    +0.000 A 
ATOM     26  F   UNL     1      52.573   9.190  10.783  0.00  0.00    +0.000 F 
ATOM     27  C   UNL     1      50.434   9.964  11.406  0.00  0.00    +0.000 A 
ATOM     28  C   UNL     1      49.109   9.683  11.752  0.00  0.00    +0.000 A 
ENDBRANCH  21  22
ENDBRANCH   9  21
TORSDOF 9
ENDMDL
MODEL 5
REMARK VINA RESULT:    -5.900      4.242      6.625
REMARK INTER + INTRA:          -9.488
REMARK INTER:                  -8.498
REMARK INTRA:                  -0.990
REMARK UNBOUND:                -1.001
REMARK  Name = 
REMARK  9 active torsions:
REMARK  status: ('A' for Active; 'I' for Inactive)
REMARK    1  A    between atoms: N_1  and  C_2
REMARK    2  A    between atoms: C_2  and  C_3
REMARK    3  A    between atoms: C_8  and  C_9
REMARK    4  A    between atoms: C_9  and  C_10
REMARK    5  A    between atoms: C_10  and  O_11
REMARK    6  A    between atoms: C_10  and  C_12
REMARK    7  A    between atoms: C_12  and  O_13
REMARK    8  A    between atoms: C_16  and  C_17
REMARK    9  A    between atoms: C_17  and  C_18
REMARK                            x       y       z     vdW  Elec       q    Type
REMARK                         _______ _______ _______ _____ _____    ______ ____
ROOT
ATOM      1  C   UNL     1      49.530   7.136  14.964  0.00  0.00    +0.000 A 
ATOM      2  C   UNL     1      49.577   7.612  13.544  0.00  0.00    +0.000 A 
ATOM      3  N   UNL     1      48.769   7.274  12.587  0.00  0.00    +0.000 NA
ATOM      4  C   UNL     1      47.780   6.401  12.932  0.00  0.00    +0.000 A 
ATOM      5  C   UNL     1      46.798   5.820  12.176  0.00  0.00    +0.000 A 
ATOM      6  C   UNL     1      46.062   5.020  13.069  0.00  0.00    +0.000 A 
ATOM      7  N   UNL     1      46.528   5.106  14.319  0.00  0.00    +0.000 NA
ATOM      8  N   UNL     1      47.618   5.928  14.237  0.00  0.00    +0.000 N 
ATOM      9  C   UNL     1      48.506   6.299  15.267  0.00  0.00    +0.000 A 
ENDROOT
BRANCH   1  10
ATOM     10  C   UNL     1      50.623   7.632  15.854  0.00  0.00    +0.000 C 
BRANCH  10  11
ATOM     11  N   UNL     1      51.908   7.077  15.458  0.00  0.00    +0.000 NA
ATOM     12  H   UNL     1      52.519   7.831  15.145  0.00  0.00    +0.000 HD
ATOM     13  H   UNL     1      51.790   6.470  14.645  0.00  0.00    +0.000 HD
ENDBRANCH  10  11
ENDBRANCH   1  10
BRANCH   6  14
ATOM     14  C   UNL     1      44.888   4.150  12.751  0.00  0.00    +0.000 C 
BRANCH  14  15
ATOM     15  C   UNL     1      43.530   4.860  12.831  0.00  0.00    +0.000 C 
BRANCH  15  16
ATOM     16  O   UNL     1      43.667   6.221  13.253  0.00  0.00    +0.000 OA
ATOM     17  H   UNL     1      43.176   6.772  12.613  0.00  0.00    +0.000 HD
ENDBRANCH  15  16
BRANCH  15  18
ATOM     18  C   UNL     1      42.721   4.800  11.526  0.00  0.00    +0.000 C 
BRANCH  18  19
ATOM     19  O   UNL     1      43.191   5.749  10.567  0.00  0.00    +0.000 OA
ATOM     20  H   UNL     1      43.808   5.290   9.968  0.00  0.00    +0.000 HD
ENDBRANCH  18  19
ENDBRANCH  15  18
ENDBRANCH  14  15
ENDBRANCH   6  14
BRANCH   9  21
ATOM     21  C   UNL     1      48.263   5.718  16.650  0.00  0.00    +0.000 C 
BRANCH  21  22
ATOM     22  C   UNL     1      49.035   4.437  16.917  0.00  0.00    +0.000 A 
ATOM     23  C   UNL     1      50.317   4.478  17.488  0.00  0.00    +0.000 A 
ATOM     24  C   UNL     1      51.058   3.309  17.668  0.00  0.00    +0.000 A 
ATOM     25  C   UNL     1      50.511   2.089  17.299  0.00  0.00    +0.000 A 
ATOM     26  F   UNL     1      51.233   0.970  17.443  0.00  0.00    +0.000 F 
ATOM     27  C   UNL     1      49.222   2.013  16.785  0.00  0.00    +0.000 A 
ATOM     28  C   UNL     1      48.481   3.184  16.599  0.00  0.00    +0.000 A 
ENDBRANCH  21  22
ENDBRANCH   9  21
TORSDOF 9
ENDMDL
MODEL 6
REMARK VINA RESULT:    -5.899      4.884      7.377
REMARK INTER + INTRA:          -9.486
REMARK INTER:                  -8.423
REMARK INTRA:                  -1.063
REMARK UNBOUND:                -1.001
REMARK  Name = 
REMARK  9 active torsions:
REMARK  status: ('A' for Active; 'I' for Inactive)
REMARK    1  A    between atoms: N_1  and  C_2
REMARK    2  A    between atoms: C_2  and  C_3
REMARK    3  A    between atoms: C_8  and  C_9
REMARK    4  A    between atoms: C_9  and  C_10
REMARK    5  A    between atoms: C_10  and  O_11
REMARK    6  A    between atoms: C_10  and  C_12
REMARK    7  A    between atoms: C_12  and  O_13
REMARK    8  A    between atoms: C_16  and  C_17
REMARK    9  A    between atoms: C_17  and  C_18
REMARK                            x       y       z     vdW  Elec       q    Type
REMARK                         _______ _______ _______ _____ _____    ______ ____
ROOT
ATOM      1  C   UNL     1      48.241   8.083  14.137  0.00  0.00    +0.000 A 
ATOM      2  C   UNL     1      48.627   8.711  15.441  0.00  0.00    +0.000 A 
ATOM      3  N   UNL     1      48.805   8.100  16.572  0.00  0.00    +0.000 NA
ATOM      4  C   UNL     1      48.624   6.748  16.546  0.00  0.00    +0.000 A 
ATOM      5  C   UNL     1      48.694   5.819  17.548  0.00  0.00    +0.000 A 
ATOM      6  C   UNL     1      48.427   4.583  16.931  0.00  0.00    +0.000 A 
ATOM      7  N   UNL     1      48.226   4.713  15.617  0.00  0.00    +0.000 NA
ATOM      8  N   UNL     1      48.306   6.056  15.374  0.00  0.00    +0.000 N 
ATOM      9  C   UNL     1      48.110   6.733  14.153  0.00  0.00    +0.000 A 
ENDROOT
BRANCH   1  10
ATOM     10  C   UNL     1      48.037   9.026  12.995  0.00  0.00    +0.000 C 
BRANCH  10  11
ATOM     11  N   UNL     1      46.778   9.742  13.131  0.00  0.00    +0.000 NA
ATOM     12  H   UNL     1      46.441  10.010  12.207  0.00  0.00    +0.000 HD
ATOM     13  H   UNL     1      46.929  10.620  13.630  0.00  0.00    +0.000 HD
ENDBRANCH  10  11
ENDBRANCH   1  10
BRANCH   6  14
ATOM     14  C   UNL     1      48.359   3.239  17.584  0.00  0.00    +0.000 C 
BRANCH  14  15
ATOM     15  C   UNL     1      49.508   2.291  17.213  0.00  0.00    +0.000 C 
BRANCH  15  16
ATOM     16  O   UNL     1      49.412   1.850  15.854  0.00  0.00    +0.000 OA
ATOM     17  H   UNL     1      48.804   1.086  15.841  0.00  0.00    +0.000 HD
ENDBRANCH  15  16
BRANCH  15  18
ATOM     18  C   UNL     1      50.904   2.878  17.470  0.00  0.00    +0.000 C 
BRANCH  18  19
ATOM     19  O   UNL     1      51.751   1.953  18.154  0.00  0.00    +0.000 OA
ATOM     20  H   UNL     1      51.468   1.916  19.085  0.00  0.00    +0.000 HD
ENDBRANCH  18  19
ENDBRANCH  15  18
ENDBRANCH  14  15
ENDBRANCH   6  14
BRANCH   9  21
ATOM     21  C   UNL     1      47.746   5.899  12.936  0.00  0.00    +0.000 C 
BRANCH  21  22
ATOM     22  C   UNL     1      46.250   5.803  12.688  0.00  0.00    +0.000 A 
ATOM     23  C   UNL     1      45.464   4.880  13.398  0.00  0.00    +0.000 A 
ATOM     24  C   UNL     1      44.103   4.738  13.121  0.00  0.00    +0.000 A 
ATOM     25  C   UNL     1      43.516   5.536  12.151  0.00  0.00    +0.000 A 
ATOM     26  F   UNL     1      42.217   5.380  11.864  0.00  0.00    +0.000 F 
ATOM     27  C   UNL     1      44.257   6.498  11.475  0.00  0.00    +0.000 A 
ATOM     28  C   UNL     1      45.622   6.636  11.746  0.00  0.00    +0.000 A 
ENDBRANCH  21  22
ENDBRANCH   9  21
TORSDOF 9
ENDMDL
MODEL 7
REMARK VINA RESULT:    -5.761      3.547      6.211
REMARK INTER + INTRA:          -9.288
REMARK INTER:                  -8.000
REMARK INTRA:                  -1.289
REMARK UNBOUND:                -1.001
REMARK  Name = 
REMARK  9 active torsions:
REMARK  status: ('A' for Active; 'I' for Inactive)
REMARK    1  A    between atoms: N_1  and  C_2
REMARK    2  A    between atoms: C_2  and  C_3
REMARK    3  A    between atoms: C_8  and  C_9
REMARK    4  A    between atoms: C_9  and  C_10
REMARK    5  A    between atoms: C_10  and  O_11
REMARK    6  A    between atoms: C_10  and  C_12
REMARK    7  A    between atoms: C_12  and  O_13
REMARK    8  A    between atoms: C_16  and  C_17
REMARK    9  A    between atoms: C_17  and  C_18
REMARK                            x       y       z     vdW  Elec       q    Type
REMARK                         _______ _______ _______ _____ _____    ______ ____
ROOT
ATOM      1  C   UNL     1      47.310   8.727  12.857  0.00  0.00    +0.000 A 
ATOM      2  C   UNL     1      46.175   9.626  12.473  0.00  0.00    +0.000 A 
ATOM      3  N   UNL     1      45.055   9.269  11.922  0.00  0.00    +0.000 NA
ATOM      4  C   UNL     1      44.917   7.933  11.684  0.00  0.00    +0.000 A 
ATOM      5  C   UNL     1      43.900   7.232  11.094  0.00  0.00    +0.000 A 
ATOM      6  C   UNL     1      44.303   5.884  11.133  0.00  0.00    +0.000 A 
ATOM      7  N   UNL     1      45.487   5.733  11.733  0.00  0.00    +0.000 NA
ATOM      8  N   UNL     1      45.895   7.001  12.042  0.00  0.00    +0.000 N 
ATOM      9  C   UNL     1      47.109   7.404  12.635  0.00  0.00    +0.000 A 
ENDROOT
BRANCH   1  10
ATOM     10  C   UNL     1      48.517   9.405  13.418  0.00  0.00    +0.000 C 
BRANCH  10  11
ATOM     11  N   UNL     1      48.215  10.025  14.700  0.00  0.00    +0.000 NA
ATOM     12  H   UNL     1      47.209  10.173  14.774  0.00  0.00    +0.000 HD
ATOM     13  H   UNL     1      48.631  10.956  14.743  0.00  0.00    +0.000 HD
ENDBRANCH  10  11
ENDBRANCH   1  10
BRANCH   6  14
ATOM     14  C   UNL     1      43.561   4.701  10.599  0.00  0.00    +0.000 C 
BRANCH  14  15
ATOM     15  C   UNL     1      44.220   4.031   9.385  0.00  0.00    +0.000 C 
BRANCH  15  16
ATOM     16  O   UNL     1      45.103   4.927   8.701  0.00  0.00    +0.000 OA
ATOM     17  H   UNL     1      44.788   4.995   7.779  0.00  0.00    +0.000 HD
ENDBRANCH  15  16
BRANCH  15  18
ATOM     18  C   UNL     1      44.961   2.728   9.721  0.00  0.00    +0.000 C 
BRANCH  18  19
ATOM     19  O   UNL     1      45.112   2.552  11.131  0.00  0.00    +0.000 OA
ATOM     20  H   UNL     1      44.389   3.031  11.574  0.00  0.00    +0.000 HD
ENDBRANCH  18  19
ENDBRANCH  15  18
ENDBRANCH  14  15
ENDBRANCH   6  14
BRANCH   9  21
ATOM     21  C   UNL     1      48.122   6.321  12.970  0.00  0.00    +0.000 C 
BRANCH  21  22
ATOM     22  C   UNL     1      48.013   5.804  14.394  0.00  0.00    +0.000 A 
ATOM     23  C   UNL     1      48.708   6.433  15.440  0.00  0.00    +0.000 A 
ATOM     24  C   UNL     1      48.668   5.916  16.737  0.00  0.00    +0.000 A 
ATOM     25  C   UNL     1      47.912   4.783  16.999  0.00  0.00    +0.000 A 
ATOM     26  F   UNL     1      47.897   4.271  18.236  0.00  0.00    +0.000 F 
ATOM     27  C   UNL     1      47.168   4.175  15.995  0.00  0.00    +0.000 A 
ATOM     28  C   UNL     1      47.213   4.687  14.695  0.00  0.00    +0.000 A 
ENDBRANCH  21  22
ENDBRANCH   9  21
TORSDOF 9
ENDMDL
MODEL 8
REMARK VINA RESULT:    -5.580      5.029      7.749
REMARK INTER + INTRA:          -9.027
REMARK INTER:                  -8.140
REMARK INTRA:                  -0.887
REMARK UNBOUND:                -1.001
REMARK  Name = 
REMARK  9 active torsions:
REMARK  status: ('A' for Active; 'I' for Inactive)
REMARK    1  A    between atoms: N_1  and  C_2
REMARK    2  A    between atoms: C_2  and  C_3
REMARK    3  A    between atoms: C_8  and  C_9
REMARK    4  A    between atoms: C_9  and  C_10
REMARK    5  A    between atoms: C_10  and  O_11
REMARK    6  A    between atoms: C_10  and  C_12
REMARK    7  A    between atoms: C_12  and  O_13
REMARK    8  A    between atoms: C_16  and  C_17
REMARK    9  A    between atoms: C_17  and  C_18
REMARK                            x       y       z     vdW  Elec       q    Type
REMARK                         _______ _______ _______ _____ _____    ______ ____
ROOT
ATOM      1  C   UNL     1      48.546   4.542  18.118  0.00  0.00    +0.000 A 
ATOM      2  C   UNL     1      47.565   3.458  17.793  0.00  0.00    +0.000 A 
ATOM      3  N   UNL     1      46.902   3.320  16.686  0.00  0.00    +0.000 NA
ATOM      4  C   UNL     1      47.144   4.265  15.733  0.00  0.00    +0.000 A 
ATOM      5  C   UNL     1      46.601   4.438  14.489  0.00  0.00    +0.000 A 
ATOM      6  C   UNL     1      47.242   5.571  13.955  0.00  0.00    +0.000 A 
ATOM      7  N   UNL     1      48.154   6.071  14.793  0.00  0.00    +0.000 NA
ATOM      8  N   UNL     1      48.073   5.294  15.915  0.00  0.00    +0.000 N 
ATOM      9  C   UNL     1      48.782   5.435  17.125  0.00  0.00    +0.000 A 
ENDROOT
BRANCH   1  10
ATOM     10  C   UNL     1      49.125   4.505  19.496  0.00  0.00    +0.000 C 
BRANCH  10  11
ATOM     11  N   UNL     1      48.345   3.636  20.364  0.00  0.00    +0.000 NA
ATOM     12  H   UNL     1      47.572   3.236  19.832  0.00  0.00    +0.000 HD
ATOM     13  H   UNL     1      47.908   4.186  21.105  0.00  0.00    +0.000 HD
ENDBRANCH  10  11
ENDBRANCH   1  10
BRANCH   6  14
ATOM     14  C   UNL     1      47.001   6.205  12.623  0.00  0.00    +0.000 C 
BRANCH  14  15
ATOM     15  C   UNL     1      45.795   7.154  12.577  0.00  0.00    +0.000 C 
BRANCH  15  16
ATOM     16  O   UNL     1      44.743   6.715  13.443  0.00  0.00    +0.000 OA
ATOM     17  H   UNL     1      44.067   6.288  12.883  0.00  0.00    +0.000 HD
ENDBRANCH  15  16
BRANCH  15  18
ATOM     18  C   UNL     1      46.145   8.617  12.887  0.00  0.00    +0.000 C 
BRANCH  18  19
ATOM     19  O   UNL     1      46.693   8.766  14.198  0.00  0.00    +0.000 OA
ATOM     20  H   UNL     1      47.377   9.459  14.162  0.00  0.00    +0.000 HD
ENDBRANCH  18  19
ENDBRANCH  15  18
ENDBRANCH  14  15
ENDBRANCH   6  14
BRANCH   9  21
ATOM     21  C   UNL     1      49.755   6.597  17.239  0.00  0.00    +0.000 C 
BRANCH  21  22
ATOM     22  C   UNL     1      49.081   7.931  17.513  0.00  0.00    +0.000 A 
ATOM     23  C   UNL     1      48.234   8.091  18.622  0.00  0.00    +0.000 A 
ATOM     24  C   UNL     1      47.556   9.293  18.836  0.00  0.00    +0.000 A 
ATOM     25  C   UNL     1      47.741  10.349  17.956  0.00  0.00    +0.000 A 
ATOM     26  F   UNL     1      47.068  11.492  18.144  0.00  0.00    +0.000 F 
ATOM     27  C   UNL     1      48.618  10.237  16.883  0.00  0.00    +0.000 A 
ATOM     28  C   UNL     1      49.292   9.032  16.664  0.00  0.00    +0.000 A 
ENDBRANCH  21  22
ENDBRANCH   9  21
TORSDOF 9
ENDMDL
MODEL 9
REMARK VINA RESULT:    -5.578      4.629      7.352
REMARK INTER + INTRA:          -9.024
REMARK INTER:                  -8.204
REMARK INTRA:                  -0.820
REMARK UNBOUND:                -1.001
REMARK  Name = 
REMARK  9 active torsions:
REMARK  status: ('A' for Active; 'I' for Inactive)
REMARK    1  A    between atoms: N_1  and  C_2
REMARK    2  A    between atoms: C_2  and  C_3
REMARK    3  A    between atoms: C_8  and  C_9
REMARK    4  A    between atoms: C_9  and  C_10
REMARK    5  A    between atoms: C_10  and  O_11
REMARK    6  A    between atoms: C_10  and  C_12
REMARK    7  A    between atoms: C_12  and  O_13
REMARK    8  A    between atoms: C_16  and  C_17
REMARK    9  A    between atoms: C_17  and  C_18
REMARK                            x       y       z     vdW  Elec       q    Type
REMARK                         _______ _______ _______ _____ _____    ______ ____
ROOT
ATOM      1  C   UNL     1      45.655   5.473  12.144  0.00  0.00    +0.000 A 
ATOM      2  C   UNL     1      45.586   3.981  12.268  0.00  0.00    +0.000 A 
ATOM      3  N   UNL     1      46.108   3.258  13.210  0.00  0.00    +0.000 NA
ATOM      4  C   UNL     1      46.778   3.946  14.179  0.00  0.00    +0.000 A 
ATOM      5  C   UNL     1      47.466   3.502  15.275  0.00  0.00    +0.000 A 
ATOM      6  C   UNL     1      47.936   4.663  15.916  0.00  0.00    +0.000 A 
ATOM      7  N   UNL     1      47.551   5.775  15.284  0.00  0.00    +0.000 NA
ATOM      8  N   UNL     1      46.866   5.341  14.183  0.00  0.00    +0.000 N 
ATOM      9  C   UNL     1      46.299   6.115  13.150  0.00  0.00    +0.000 A 
ENDROOT
BRANCH   1  10
ATOM     10  C   UNL     1      45.021   6.054  10.922  0.00  0.00    +0.000 C 
BRANCH  10  11
ATOM     11  N   UNL     1      45.461   5.356   9.725  0.00  0.00    +0.000 NA
ATOM     12  H   UNL     1      46.438   5.085   9.833  0.00  0.00    +0.000 HD
ATOM     13  H   UNL     1      45.443   5.990   8.924  0.00  0.00    +0.000 HD
ENDBRANCH  10  11
ENDBRANCH   1  10
BRANCH   6  14
ATOM     14  C   UNL     1      48.768   4.740  17.157  0.00  0.00    +0.000 C 
BRANCH  14  15
ATOM     15  C   UNL     1      47.995   5.146  18.419  0.00  0.00    +0.000 C 
BRANCH  15  16
ATOM     16  O   UNL     1      46.595   4.871  18.293  0.00  0.00    +0.000 OA
ATOM     17  H   UNL     1      46.509   3.966  17.936  0.00  0.00    +0.000 HD
ENDBRANCH  15  16
BRANCH  15  18
ATOM     18  C   UNL     1      48.534   4.508  19.709  0.00  0.00    +0.000 C 
BRANCH  18  19
ATOM     19  O   UNL     1      48.300   3.099  19.742  0.00  0.00    +0.000 OA
ATOM     20  H   UNL     1      48.258   2.779  18.823  0.00  0.00    +0.000 HD
ENDBRANCH  18  19
ENDBRANCH  15  18
ENDBRANCH  14  15
ENDBRANCH   6  14
BRANCH   9  21
ATOM     21  C   UNL     1      46.464   7.623  13.229  0.00  0.00    +0.000 C 
BRANCH  21  22
ATOM     22  C   UNL     1      47.703   8.139  12.516  0.00  0.00    +0.000 A 
ATOM     23  C   UNL     1      48.766   7.273  12.213  0.00  0.00    +0.000 A 
ATOM     24  C   UNL     1      49.936   7.757  11.624  0.00  0.00    +0.000 A 
ATOM     25  C   UNL     1      50.039   9.105  11.313  0.00  0.00    +0.000 A 
ATOM     26  F   UNL     1      51.172   9.574  10.776  0.00  0.00    +0.000 F 
ATOM     27  C   UNL     1      48.979   9.972  11.549  0.00  0.00    +0.000 A 
ATOM     28  C   UNL     1      47.810   9.490  12.145  0.00  0.00    +0.000 A 
ENDBRANCH  21  22
ENDBRANCH   9  21
TORSDOF 9
ENDMDL
