MODEL 1
REMARK VINA RESULT:    -7.862      0.000      0.000
REMARK INTER + INTRA:         -11.170
REMARK INTER:                 -10.160
REMARK INTRA:                  -1.010
REMARK UNBOUND:                -1.010
REMARK  Name = 
REMARK  6 active torsions:
REMARK  status: ('A' for Active; 'I' for Inactive)
REMARK    1  A    between atoms: C_1  and  N_2
REMARK    2  A    between atoms: N_2  and  C_3
REMARK    3  A    between atoms: C_3  and  C_4
REMARK    4  A    between atoms: C_7  and  C_8
REMARK    5  A    between atoms: C_8  and  C_9
REMARK    6  A    between atoms: C_18  and  C_20
REMARK                            x       y       z     vdW  Elec       q    Type
REMARK                         _______ _______ _______ _____ _____    ______ ____
ROOT
ATOM      1  C   UNL     1      45.672   8.523  12.347  0.00  0.00    +0.000 C 
ATOM      2  N   UNL     1      45.612   7.074  12.201  0.00  0.00    +0.000 N 
ATOM      3  C   UNL     1      44.425   6.560  11.648  0.00  0.00    +0.000 C 
ATOM      4  O   UNL     1      43.494   7.299  11.333  0.00  0.00    +0.000 OA
ENDROOT
BRANCH   3   5
ATOM      5  C   UNL     1      44.275   5.108  11.481  0.00  0.00    +0.000 A 
ATOM      6  C   UNL     1      43.547   4.294  12.336  0.00  0.00    +0.000 A 
ATOM      7  S   UNL     1      43.479   2.661  11.831  0.00  0.00    +0.000 S 
ATOM      8  C   UNL     1      44.297   3.021  10.386  0.00  0.00    +0.000 A 
ATOM      9  N   UNL     1      44.473   2.073   9.428  0.00  0.00    +0.000 NA
ATOM     10  C   UNL     1      45.045   2.508   8.354  0.00  0.00    +0.000 A 
ATOM     11  N   UNL     1      45.493   3.791   8.169  0.00  0.00    +0.000 N 
ATOM     12  C   UNL     1      45.465   4.752   9.162  0.00  0.00    +0.000 A 
ATOM     13  O   UNL     1      46.095   5.794   9.062  0.00  0.00    +0.000 OA
ATOM     14  C   UNL     1      44.708   4.338  10.341  0.00  0.00    +0.000 A 
ATOM     15  H   UNL     1      45.999   4.050   7.338  0.00  0.00    +0.000 HD
ENDBRANCH   3   5
BRANCH   2  16
ATOM     16  C   UNL     1      46.834   6.273  12.335  0.00  0.00    +0.000 C 
BRANCH  16  17
ATOM     17  C   UNL     1      47.281   5.890  13.722  0.00  0.00    +0.000 A 
ATOM     18  C   UNL     1      46.774   4.736  14.336  0.00  0.00    +0.000 A 
ATOM     19  C   UNL     1      47.228   4.345  15.595  0.00  0.00    +0.000 A 
ATOM     20  C   UNL     1      48.205   5.093  16.261  0.00  0.00    +0.000 A 
ATOM     21  C   UNL     1      48.701   6.256  15.653  0.00  0.00    +0.000 A 
ATOM     22  C   UNL     1      48.238   6.653  14.396  0.00  0.00    +0.000 A 
BRANCH  20  23
ATOM     23  C   UNL     1      48.701   4.661  17.620  0.00  0.00    +0.000 C 
BRANCH  23  24
ATOM     24  C   UNL     1      50.217   4.515  17.738  0.00  0.00    +0.000 C 
ATOM     25  O   UNL     1      50.973   5.452  17.987  0.00  0.00    +0.000 OA
ATOM     26  N   UNL     1      50.694   3.228  17.610  0.00  0.00    +0.000 N 
ATOM     27  C   UNL     1      52.075   2.904  17.819  0.00  0.00    +0.000 C 
ATOM     28  C   UNL     1      52.027   1.396  17.843  0.00  0.00    +0.000 C 
ATOM     29  O   UNL     1      50.922   1.028  16.994  0.00  0.00    +0.000 OA
ATOM     30  C   UNL     1      50.080   2.178  16.853  0.00  0.00    +0.000 C 
ENDBRANCH  23  24
ENDBRANCH  20  23
ENDBRANCH  16  17
ENDBRANCH   2  16
TORSDOF 5
ENDMDL
MODEL 2
REMARK VINA RESULT:    -7.589      1.082      1.694
REMARK INTER + INTRA:         -10.818
REMARK INTER:                  -9.648
REMARK INTRA:                  -1.170
REMARK UNBOUND:                -1.010
REMARK  Name = 
REMARK  6 active torsions:
REMARK  status: ('A' for Active; 'I' for Inactive)
REMARK    1  A    between atoms: C_1  and  N_2
REMARK    2  A    between atoms: N_2  and  C_3
REMARK    3  A    between atoms: C_3  and  C_4
REMARK    4  A    between atoms: C_7  and  C_8
REMARK    5  A    between atoms: C_8  and  C_9
REMARK    6  A    between atoms: C_18  and  C_20
REMARK                            x       y       z     vdW  Elec       q    Type
REMARK                         _______ _______ _______ _____ _____    ______ ____
ROOT
ATOM      1  C   UNL     1      46.120   8.663  12.138  0.00  0.00    +0.000 C 
ATOM      2  N   UNL     1      45.921   7.220  12.098  0.00  0.00    +0.000 N 
ATOM      3  C   UNL     1      44.687   6.783  11.581  0.00  0.00    +0.000 C 
ATOM      4  O   UNL     1      43.829   7.583  11.213  0.00  0.00    +0.000 OA
ENDROOT
BRANCH   3   5
ATOM      5  C   UNL     1      44.398   5.344  11.521  0.00  0.00    +0.000 A 
ATOM      6  C   UNL     1      43.664   4.653  12.473  0.00  0.00    +0.000 A 
ATOM      7  S   UNL     1      43.416   3.005  12.081  0.00  0.00    +0.000 S 
ATOM      8  C   UNL     1      44.159   3.202  10.566  0.00  0.00    +0.000 A 
ATOM      9  N   UNL     1      44.182   2.186   9.663  0.00  0.00    +0.000 NA
ATOM     10  C   UNL     1      44.713   2.502   8.528  0.00  0.00    +0.000 A 
ATOM     11  N   UNL     1      45.258   3.725   8.230  0.00  0.00    +0.000 N 
ATOM     12  C   UNL     1      45.385   4.741   9.158  0.00  0.00    +0.000 A 
ATOM     13  O   UNL     1      46.096   5.714   8.949  0.00  0.00    +0.000 OA
ATOM     14  C   UNL     1      44.680   4.471  10.408  0.00  0.00    +0.000 A 
ATOM     15  H   UNL     1      45.726   3.886   7.353  0.00  0.00    +0.000 HD
ENDBRANCH   3   5
BRANCH   2  16
ATOM     16  C   UNL     1      47.062   6.317  12.291  0.00  0.00    +0.000 C 
BRANCH  16  17
ATOM     17  C   UNL     1      47.399   5.895  13.697  0.00  0.00    +0.000 A 
ATOM     18  C   UNL     1      46.864   4.713  14.230  0.00  0.00    +0.000 A 
ATOM     19  C   UNL     1      47.219   4.287  15.509  0.00  0.00    +0.000 A 
ATOM     20  C   UNL     1      48.125   5.027  16.278  0.00  0.00    +0.000 A 
ATOM     21  C   UNL     1      48.649   6.217  15.750  0.00  0.00    +0.000 A 
ATOM     22  C   UNL     1      48.284   6.649  14.473  0.00  0.00    +0.000 A 
BRANCH  20  23
ATOM     23  C   UNL     1      48.515   4.557  17.658  0.00  0.00    +0.000 C 
BRANCH  23  24
ATOM     24  C   UNL     1      49.899   3.921  17.757  0.00  0.00    +0.000 C 
ATOM     25  O   UNL     1      50.308   3.058  16.982  0.00  0.00    +0.000 OA
ATOM     26  N   UNL     1      50.709   4.428  18.750  0.00  0.00    +0.000 N 
ATOM     27  C   UNL     1      52.078   4.027  18.896  0.00  0.00    +0.000 C 
ATOM     28  C   UNL     1      52.580   5.037  19.898  0.00  0.00    +0.000 C 
ATOM     29  O   UNL     1      51.438   5.383  20.707  0.00  0.00    +0.000 OA
ATOM     30  C   UNL     1      50.261   5.006  19.982  0.00  0.00    +0.000 C 
ENDBRANCH  23  24
ENDBRANCH  20  23
ENDBRANCH  16  17
ENDBRANCH   2  16
TORSDOF 5
ENDMDL
MODEL 3
REMARK VINA RESULT:    -7.152      3.212      8.348
REMARK INTER + INTRA:         -10.253
REMARK INTER:                  -9.403
REMARK INTRA:                  -0.850
REMARK UNBOUND:                -1.010
REMARK  Name = 
REMARK  6 active torsions:
REMARK  status: ('A' for Active; 'I' for Inactive)
REMARK    1  A    between atoms: C_1  and  N_2
REMARK    2  A    between atoms: N_2  and  C_3
REMARK    3  A    between atoms: C_3  and  C_4
REMARK    4  A    between atoms: C_7  and  C_8
REMARK    5  A    between atoms: C_8  and  C_9
REMARK    6  A    between atoms: C_18  and  C_20
REMARK                            x       y       z     vdW  Elec       q    Type
REMARK                         _______ _______ _______ _____ _____    ______ ____
ROOT
ATOM      1  C   UNL     1      49.435   7.299  12.501  0.00  0.00    +0.000 C 
ATOM      2  N   UNL     1      48.897   7.555  13.832  0.00  0.00    +0.000 N 
ATOM      3  C   UNL     1      49.840   7.612  14.876  0.00  0.00    +0.000 C 
ATOM      4  O   UNL     1      51.038   7.430  14.666  0.00  0.00    +0.000 OA
ENDROOT
BRANCH   3   5
ATOM      5  C   UNL     1      49.382   7.849  16.251  0.00  0.00    +0.000 A 
ATOM      6  C   UNL     1      49.472   9.069  16.906  0.00  0.00    +0.000 A 
ATOM      7  S   UNL     1      48.771   9.059  18.467  0.00  0.00    +0.000 S 
ATOM      8  C   UNL     1      48.202   7.472  18.257  0.00  0.00    +0.000 A 
ATOM      9  N   UNL     1      47.408   6.885  19.191  0.00  0.00    +0.000 NA
ATOM     10  C   UNL     1      46.991   5.706  18.863  0.00  0.00    +0.000 A 
ATOM     11  N   UNL     1      47.328   5.048  17.708  0.00  0.00    +0.000 N 
ATOM     12  C   UNL     1      48.241   5.542  16.796  0.00  0.00    +0.000 A 
ATOM     13  O   UNL     1      48.716   4.836  15.919  0.00  0.00    +0.000 OA
ATOM     14  C   UNL     1      48.631   6.924  17.064  0.00  0.00    +0.000 A 
ATOM     15  H   UNL     1      47.031   4.100  17.545  0.00  0.00    +0.000 HD
ENDBRANCH   3   5
BRANCH   2  16
ATOM     16  C   UNL     1      47.517   8.028  13.986  0.00  0.00    +0.000 C 
BRANCH  16  17
ATOM     17  C   UNL     1      46.433   7.306  13.229  0.00  0.00    +0.000 A 
ATOM     18  C   UNL     1      45.636   7.996  12.304  0.00  0.00    +0.000 A 
ATOM     19  C   UNL     1      44.670   7.321  11.557  0.00  0.00    +0.000 A 
ATOM     20  C   UNL     1      44.491   5.942  11.712  0.00  0.00    +0.000 A 
ATOM     21  C   UNL     1      45.278   5.255  12.648  0.00  0.00    +0.000 A 
ATOM     22  C   UNL     1      46.237   5.933  13.403  0.00  0.00    +0.000 A 
BRANCH  20  23
ATOM     23  C   UNL     1      43.452   5.213  10.894  0.00  0.00    +0.000 C 
BRANCH  23  24
ATOM     24  C   UNL     1      43.873   3.831  10.398  0.00  0.00    +0.000 C 
ATOM     25  O   UNL     1      43.473   2.779  10.893  0.00  0.00    +0.000 OA
ATOM     26  N   UNL     1      44.697   3.830   9.293  0.00  0.00    +0.000 N 
ATOM     27  C   UNL     1      45.080   2.619   8.630  0.00  0.00    +0.000 C 
ATOM     28  C   UNL     1      45.717   3.156   7.371  0.00  0.00    +0.000 C 
ATOM     29  O   UNL     1      46.265   4.440   7.731  0.00  0.00    +0.000 OA
ATOM     30  C   UNL     1      45.619   4.867   8.935  0.00  0.00    +0.000 C 
ENDBRANCH  23  24
ENDBRANCH  20  23
ENDBRANCH  16  17
ENDBRANCH   2  16
TORSDOF 5
ENDMDL
MODEL 4
REMARK VINA RESULT:    -6.734      2.163      3.110
REMARK INTER + INTRA:          -9.712
REMARK INTER:                  -8.501
REMARK INTRA:                  -1.211
REMARK UNBOUND:                -1.010
REMARK  Name = 
REMARK  6 active torsions:
REMARK  status: ('A' for Active; 'I' for Inactive)
REMARK    1  A    between atoms: C_1  and  N_2
REMARK    2  A    between atoms: N_2  and  C_3
REMARK    3  A    between atoms: C_3  and  C_4
REMARK    4  A    between atoms: C_7  and  C_8
REMARK    5  A    between atoms: C_8  and  C_9
REMARK    6  A    between atoms: C_18  and  C_20
REMARK                            x       y       z     vdW  Elec       q    Type
REMARK                         _______ _______ _______ _____ _____    ______ ____
ROOT
ATOM      1  C   UNL     1      46.310   8.779  12.935  0.00  0.00    +0.000 C 
ATOM      2  N   UNL     1      46.213   7.465  12.312  0.00  0.00    +0.000 N 
ATOM      3  C   UNL     1      45.156   7.295  11.398  0.00  0.00    +0.000 C 
ATOM      4  O   UNL     1      44.358   8.202  11.168  0.00  0.00    +0.000 OA
ENDROOT
BRANCH   3   5
ATOM      5  C   UNL     1      44.975   5.996  10.736  0.00  0.00    +0.000 A 
ATOM      6  C   UNL     1      45.542   5.652   9.518  0.00  0.00    +0.000 A 
ATOM      7  S   UNL     1      45.225   4.038   9.048  0.00  0.00    +0.000 S 
ATOM      8  C   UNL     1      44.444   3.709  10.521  0.00  0.00    +0.000 A 
ATOM      9  N   UNL     1      44.021   2.453  10.822  0.00  0.00    +0.000 NA
ATOM     10  C   UNL     1      43.512   2.338  12.004  0.00  0.00    +0.000 A 
ATOM     11  N   UNL     1      43.351   3.370  12.893  0.00  0.00    +0.000 N 
ATOM     12  C   UNL     1      43.634   4.686  12.582  0.00  0.00    +0.000 A 
ATOM     13  O   UNL     1      43.246   5.608  13.285  0.00  0.00    +0.000 OA
ATOM     14  C   UNL     1      44.332   4.838  11.308  0.00  0.00    +0.000 A 
ATOM     15  H   UNL     1      42.878   3.230  13.771  0.00  0.00    +0.000 HD
ENDBRANCH   3   5
BRANCH   2  16
ATOM     16  C   UNL     1      47.331   6.522  12.412  0.00  0.00    +0.000 C 
BRANCH  16  17
ATOM     17  C   UNL     1      47.600   5.882  13.749  0.00  0.00    +0.000 A 
ATOM     18  C   UNL     1      48.474   6.490  14.663  0.00  0.00    +0.000 A 
ATOM     19  C   UNL     1      48.681   5.934  15.924  0.00  0.00    +0.000 A 
ATOM     20  C   UNL     1      48.011   4.765  16.303  0.00  0.00    +0.000 A 
ATOM     21  C   UNL     1      47.148   4.149  15.384  0.00  0.00    +0.000 A 
ATOM     22  C   UNL     1      46.950   4.701  14.116  0.00  0.00    +0.000 A 
BRANCH  20  23
ATOM     23  C   UNL     1      48.229   4.172  17.674  0.00  0.00    +0.000 C 
BRANCH  23  24
ATOM     24  C   UNL     1      48.152   5.167  18.829  0.00  0.00    +0.000 C 
ATOM     25  O   UNL     1      47.106   5.695  19.203  0.00  0.00    +0.000 OA
ATOM     26  N   UNL     1      49.341   5.398  19.486  0.00  0.00    +0.000 N 
ATOM     27  C   UNL     1      49.415   6.207  20.667  0.00  0.00    +0.000 C 
ATOM     28  C   UNL     1      50.819   5.920  21.139  0.00  0.00    +0.000 C 
ATOM     29  O   UNL     1      51.578   5.632  19.948  0.00  0.00    +0.000 OA
ATOM     30  C   UNL     1      50.650   5.297  18.910  0.00  0.00    +0.000 C 
ENDBRANCH  23  24
ENDBRANCH  20  23
ENDBRANCH  16  17
ENDBRANCH   2  16
TORSDOF 5
ENDMDL
MODEL 5
REMARK VINA RESULT:    -6.631      3.256      8.602
REMARK INTER + INTRA:          -9.580
REMARK INTER:                  -8.738
REMARK INTRA:                  -0.842
REMARK UNBOUND:                -1.010
REMARK  Name = 
REMARK  6 active torsions:
REMARK  status: ('A' for Active; 'I' for Inactive)
REMARK    1  A    between atoms: C_1  and  N_2
REMARK    2  A    between atoms: N_2  and  C_3
REMARK    3  A    between atoms: C_3  and  C_4
REMARK    4  A    between atoms: C_7  and  C_8
REMARK    5  A    between atoms: C_8  and  C_9
REMARK    6  A    between atoms: C_18  and  C_20
REMARK                            x       y       z     vdW  Elec       q    Type
REMARK                         _______ _______ _______ _____ _____    ______ ____
ROOT
ATOM      1  C   UNL     1      49.606   7.985  12.620  0.00  0.00    +0.000 C 
ATOM      2  N   UNL     1      48.876   7.667  13.840  0.00  0.00    +0.000 N 
ATOM      3  C   UNL     1      49.663   7.349  14.963  0.00  0.00    +0.000 C 
ATOM      4  O   UNL     1      50.890   7.322  14.896  0.00  0.00    +0.000 OA
ENDROOT
BRANCH   3   5
ATOM      5  C   UNL     1      49.007   7.000  16.230  0.00  0.00    +0.000 A 
ATOM      6  C   UNL     1      48.754   5.702  16.649  0.00  0.00    +0.000 A 
ATOM      7  S   UNL     1      48.061   5.611  18.210  0.00  0.00    +0.000 S 
ATOM      8  C   UNL     1      48.209   7.289  18.430  0.00  0.00    +0.000 A 
ATOM      9  N   UNL     1      47.898   7.868  19.619  0.00  0.00    +0.000 NA
ATOM     10  C   UNL     1      48.131   9.138  19.664  0.00  0.00    +0.000 A 
ATOM     11  N   UNL     1      48.605   9.886  18.617  0.00  0.00    +0.000 N 
ATOM     12  C   UNL     1      48.802   9.372  17.350  0.00  0.00    +0.000 A 
ATOM     13  O   UNL     1      48.974  10.100  16.383  0.00  0.00    +0.000 OA
ATOM     14  C   UNL     1      48.678   7.918  17.293  0.00  0.00    +0.000 A 
ATOM     15  H   UNL     1      48.694  10.887  18.691  0.00  0.00    +0.000 HD
ENDBRANCH   3   5
BRANCH   2  16
ATOM     16  C   UNL     1      47.445   7.974  13.939  0.00  0.00    +0.000 C 
BRANCH  16  17
ATOM     17  C   UNL     1      46.495   7.212  13.052  0.00  0.00    +0.000 A 
ATOM     18  C   UNL     1      46.420   5.813  13.130  0.00  0.00    +0.000 A 
ATOM     19  C   UNL     1      45.502   5.107  12.354  0.00  0.00    +0.000 A 
ATOM     20  C   UNL     1      44.631   5.785  11.493  0.00  0.00    +0.000 A 
ATOM     21  C   UNL     1      44.716   7.183  11.404  0.00  0.00    +0.000 A 
ATOM     22  C   UNL     1      45.644   7.889  12.174  0.00  0.00    +0.000 A 
BRANCH  20  23
ATOM     23  C   UNL     1      43.631   5.018  10.662  0.00  0.00    +0.000 C 
BRANCH  23  24
ATOM     24  C   UNL     1      44.124   3.672  10.138  0.00  0.00    +0.000 C 
ATOM     25  O   UNL     1      43.774   2.590  10.606  0.00  0.00    +0.000 OA
ATOM     26  N   UNL     1      44.955   3.737   9.040  0.00  0.00    +0.000 N 
ATOM     27  C   UNL     1      45.403   2.562   8.352  0.00  0.00    +0.000 C 
ATOM     28  C   UNL     1      46.020   3.159   7.112  0.00  0.00    +0.000 C 
ATOM     29  O   UNL     1      46.501   4.460   7.504  0.00  0.00    +0.000 OA
ATOM     30  C   UNL     1      45.826   4.827   8.713  0.00  0.00    +0.000 C 
ENDBRANCH  23  24
ENDBRANCH  20  23
ENDBRANCH  16  17
ENDBRANCH   2  16
TORSDOF 5
ENDMDL
MODEL 6
REMARK VINA RESULT:    -6.415      2.415      8.212
REMARK INTER + INTRA:          -9.301
REMARK INTER:                  -8.320
REMARK INTRA:                  -0.980
REMARK UNBOUND:                -1.010
REMARK  Name = 
REMARK  6 active torsions:
REMARK  status: ('A' for Active; 'I' for Inactive)
REMARK    1  A    between atoms: C_1  and  N_2
REMARK    2  A    between atoms: N_2  and  C_3
REMARK    3  A    between atoms: C_3  and  C_4
REMARK    4  A    between atoms: C_7  and  C_8
REMARK    5  A    between atoms: C_8  and  C_9
REMARK    6  A    between atoms: C_18  and  C_20
REMARK                            x       y       z     vdW  Elec       q    Type
REMARK                         _______ _______ _______ _____ _____    ______ ____
ROOT
ATOM      1  C   UNL     1      48.510   8.947  15.202  0.00  0.00    +0.000 C 
ATOM      2  N   UNL     1      48.737   7.541  15.512  0.00  0.00    +0.000 N 
ATOM      3  C   UNL     1      48.568   7.174  16.860  0.00  0.00    +0.000 C 
ATOM      4  O   UNL     1      48.271   8.004  17.717  0.00  0.00    +0.000 OA
ENDROOT
BRANCH   3   5
ATOM      5  C   UNL     1      48.793   5.779  17.263  0.00  0.00    +0.000 A 
ATOM      6  C   UNL     1      47.793   4.824  17.369  0.00  0.00    +0.000 A 
ATOM      7  S   UNL     1      48.376   3.266  17.769  0.00  0.00    +0.000 S 
ATOM      8  C   UNL     1      49.989   3.789  17.673  0.00  0.00    +0.000 A 
ATOM      9  N   UNL     1      51.018   2.910  17.798  0.00  0.00    +0.000 NA
ATOM     10  C   UNL     1      52.186   3.437  17.629  0.00  0.00    +0.000 A 
ATOM     11  N   UNL     1      52.419   4.767  17.387  0.00  0.00    +0.000 N 
ATOM     12  C   UNL     1      51.420   5.721  17.391  0.00  0.00    +0.000 A 
ATOM     13  O   UNL     1      51.677   6.916  17.431  0.00  0.00    +0.000 OA
ATOM     14  C   UNL     1      50.078   5.149  17.446  0.00  0.00    +0.000 A 
ATOM     15  H   UNL     1      53.357   5.129  17.340  0.00  0.00    +0.000 HD
ENDBRANCH   3   5
BRANCH   2  16
ATOM     16  C   UNL     1      48.821   6.556  14.428  0.00  0.00    +0.000 C 
BRANCH  16  17
ATOM     17  C   UNL     1      47.535   5.975  13.900  0.00  0.00    +0.000 A 
ATOM     18  C   UNL     1      46.559   6.809  13.337  0.00  0.00    +0.000 A 
ATOM     19  C   UNL     1      45.393   6.272  12.794  0.00  0.00    +0.000 A 
ATOM     20  C   UNL     1      45.184   4.888  12.791  0.00  0.00    +0.000 A 
ATOM     21  C   UNL     1      46.154   4.054  13.367  0.00  0.00    +0.000 A 
ATOM     22  C   UNL     1      47.317   4.594  13.921  0.00  0.00    +0.000 A 
BRANCH  20  23
ATOM     23  C   UNL     1      43.926   4.308  12.192  0.00  0.00    +0.000 C 
BRANCH  23  24
ATOM     24  C   UNL     1      43.722   4.602  10.707  0.00  0.00    +0.000 C 
ATOM     25  O   UNL     1      43.011   5.513  10.286  0.00  0.00    +0.000 OA
ATOM     26  N   UNL     1      44.449   3.810   9.846  0.00  0.00    +0.000 N 
ATOM     27  C   UNL     1      44.466   4.038   8.431  0.00  0.00    +0.000 C 
ATOM     28  C   UNL     1      45.585   3.125   7.994  0.00  0.00    +0.000 C 
ATOM     29  O   UNL     1      45.588   2.035   8.937  0.00  0.00    +0.000 OA
ATOM     30  C   UNL     1      44.879   2.467  10.105  0.00  0.00    +0.000 C 
ENDBRANCH  23  24
ENDBRANCH  20  23
ENDBRANCH  16  17
ENDBRANCH   2  16
TORSDOF 5
ENDMDL
MODEL 7
REMARK VINA RESULT:    -6.046      3.248      4.617
REMARK INTER + INTRA:          -8.824
REMARK INTER:                  -7.480
REMARK INTRA:                  -1.343
REMARK UNBOUND:                -1.010
REMARK  Name = 
REMARK  6 active torsions:
REMARK  status: ('A' for Active; 'I' for Inactive)
REMARK    1  A    between atoms: C_1  and  N_2
REMARK    2  A    between atoms: N_2  and  C_3
REMARK    3  A    between atoms: C_3  and  C_4
REMARK    4  A    between atoms: C_7  and  C_8
REMARK    5  A    between atoms: C_8  and  C_9
REMARK    6  A    between atoms: C_18  and  C_20
REMARK                            x       y       z     vdW  Elec       q    Type
REMARK                         _______ _______ _______ _____ _____    ______ ____
ROOT
ATOM      1  C   UNL     1      51.492   9.559  12.534  0.00  0.00    +0.000 C 
ATOM      2  N   UNL     1      50.070   9.538  12.857  0.00  0.00    +0.000 N 
ATOM      3  C   UNL     1      49.266   8.722  12.040  0.00  0.00    +0.000 C 
ATOM      4  O   UNL     1      49.744   8.091  11.099  0.00  0.00    +0.000 OA
ENDROOT
BRANCH   3   5
ATOM      5  C   UNL     1      47.819   8.656  12.285  0.00  0.00    +0.000 A 
ATOM      6  C   UNL     1      46.936   9.697  12.042  0.00  0.00    +0.000 A 
ATOM      7  S   UNL     1      45.301   9.289  12.340  0.00  0.00    +0.000 S 
ATOM      8  C   UNL     1      45.711   7.673  12.665  0.00  0.00    +0.000 A 
ATOM      9  N   UNL     1      44.748   6.739  12.886  0.00  0.00    +0.000 NA
ATOM     10  C   UNL     1      45.203   5.540  13.046  0.00  0.00    +0.000 A 
ATOM     11  N   UNL     1      46.532   5.199  13.045  0.00  0.00    +0.000 N 
ATOM     12  C   UNL     1      47.550   6.129  12.966  0.00  0.00    +0.000 A 
ATOM     13  O   UNL     1      48.708   5.834  13.224  0.00  0.00    +0.000 OA
ATOM     14  C   UNL     1      47.077   7.475  12.652  0.00  0.00    +0.000 A 
ATOM     15  H   UNL     1      46.826   4.258  13.251  0.00  0.00    +0.000 HD
ENDBRANCH   3   5
BRANCH   2  16
ATOM     16  C   UNL     1      49.601  10.084  14.135  0.00  0.00    +0.000 C 
BRANCH  16  17
ATOM     17  C   UNL     1      49.345   9.121  15.265  0.00  0.00    +0.000 A 
ATOM     18  C   UNL     1      50.170   8.000  15.441  0.00  0.00    +0.000 A 
ATOM     19  C   UNL     1      49.974   7.137  16.518  0.00  0.00    +0.000 A 
ATOM     20  C   UNL     1      48.958   7.383  17.448  0.00  0.00    +0.000 A 
ATOM     21  C   UNL     1      48.124   8.496  17.264  0.00  0.00    +0.000 A 
ATOM     22  C   UNL     1      48.313   9.354  16.178  0.00  0.00    +0.000 A 
BRANCH  20  23
ATOM     23  C   UNL     1      48.756   6.452  18.620  0.00  0.00    +0.000 C 
BRANCH  23  24
ATOM     24  C   UNL     1      47.791   5.295  18.367  0.00  0.00    +0.000 C 
ATOM     25  O   UNL     1      46.595   5.333  18.649  0.00  0.00    +0.000 OA
ATOM     26  N   UNL     1      48.339   4.203  17.730  0.00  0.00    +0.000 N 
ATOM     27  C   UNL     1      47.543   3.087  17.310  0.00  0.00    +0.000 C 
ATOM     28  C   UNL     1      48.522   2.329  16.449  0.00  0.00    +0.000 C 
ATOM     29  O   UNL     1      49.824   2.611  17.000  0.00  0.00    +0.000 OA
ATOM     30  C   UNL     1      49.711   3.793  17.800  0.00  0.00    +0.000 C 
ENDBRANCH  23  24
ENDBRANCH  20  23
ENDBRANCH  16  17
ENDBRANCH   2  16
TORSDOF 5
ENDMDL
MODEL 8
REMARK VINA RESULT:    -6.027      3.145      8.844
REMARK INTER + INTRA:          -8.799
REMARK INTER:                  -8.310
REMARK INTRA:                  -0.489
REMARK UNBOUND:                -1.010
REMARK  Name = 
REMARK  6 active torsions:
REMARK  status: ('A' for Active; 'I' for Inactive)
REMARK    1  A    between atoms: C_1  and  N_2
REMARK    2  A    between atoms: N_2  and  C_3
REMARK    3  A    between atoms: C_3  and  C_4
REMARK    4  A    between atoms: C_7  and  C_8
REMARK    5  A    between atoms: C_8  and  C_9
REMARK    6  A    between atoms: C_18  and  C_20
REMARK                            x       y       z     vdW  Elec       q    Type
REMARK                         _______ _______ _______ _____ _____    ______ ____
ROOT
ATOM      1  C   UNL     1      46.908   3.864  16.803  0.00  0.00    +0.000 C 
ATOM      2  N   UNL     1      47.714   5.053  16.552  0.00  0.00    +0.000 N 
ATOM      3  C   UNL     1      48.268   5.671  17.688  0.00  0.00    +0.000 C 
ATOM      4  O   UNL     1      48.056   5.238  18.819  0.00  0.00    +0.000 OA
ENDROOT
BRANCH   3   5
ATOM      5  C   UNL     1      49.081   6.884  17.526  0.00  0.00    +0.000 A 
ATOM      6  C   UNL     1      48.589   8.176  17.640  0.00  0.00    +0.000 A 
ATOM      7  S   UNL     1      49.794   9.381  17.491  0.00  0.00    +0.000 S 
ATOM      8  C   UNL     1      51.024   8.213  17.413  0.00  0.00    +0.000 A 
ATOM      9  N   UNL     1      52.334   8.577  17.392  0.00  0.00    +0.000 NA
ATOM     10  C   UNL     1      53.158   7.582  17.407  0.00  0.00    +0.000 A 
ATOM     11  N   UNL     1      52.793   6.260  17.399  0.00  0.00    +0.000 N 
ATOM     12  C   UNL     1      51.482   5.840  17.278  0.00  0.00    +0.000 A 
ATOM     13  O   UNL     1      51.204   4.679  17.016  0.00  0.00    +0.000 OA
ATOM     14  C   UNL     1      50.516   6.929  17.392  0.00  0.00    +0.000 A 
ATOM     15  H   UNL     1      53.484   5.531  17.335  0.00  0.00    +0.000 HD
ENDBRANCH   3   5
BRANCH   2  16
ATOM     16  C   UNL     1      48.154   5.365  15.188  0.00  0.00    +0.000 C 
BRANCH  16  17
ATOM     17  C   UNL     1      47.190   5.109  14.058  0.00  0.00    +0.000 A 
ATOM     18  C   UNL     1      46.735   6.170  13.261  0.00  0.00    +0.000 A 
ATOM     19  C   UNL     1      45.890   5.932  12.178  0.00  0.00    +0.000 A 
ATOM     20  C   UNL     1      45.491   4.627  11.863  0.00  0.00    +0.000 A 
ATOM     21  C   UNL     1      45.935   3.568  12.669  0.00  0.00    +0.000 A 
ATOM     22  C   UNL     1      46.773   3.809  13.760  0.00  0.00    +0.000 A 
BRANCH  20  23
ATOM     23  C   UNL     1      44.585   4.372  10.683  0.00  0.00    +0.000 C 
BRANCH  23  24
ATOM     24  C   UNL     1      45.281   4.359   9.324  0.00  0.00    +0.000 C 
ATOM     25  O   UNL     1      45.587   5.377   8.707  0.00  0.00    +0.000 OA
ATOM     26  N   UNL     1      45.612   3.109   8.846  0.00  0.00    +0.000 N 
ATOM     27  C   UNL     1      46.378   2.930   7.647  0.00  0.00    +0.000 C 
ATOM     28  C   UNL     1      46.700   1.458   7.716  0.00  0.00    +0.000 C 
ATOM     29  O   UNL     1      45.601   0.852   8.426  0.00  0.00    +0.000 OA
ATOM     30  C   UNL     1      44.921   1.889   9.142  0.00  0.00    +0.000 C 
ENDBRANCH  23  24
ENDBRANCH  20  23
ENDBRANCH  16  17
ENDBRANCH   2  16
TORSDOF 5
ENDMDL
MODEL 9
REMARK VINA RESULT:    -5.573      2.742      3.911
REMARK INTER + INTRA:          -8.213
REMARK INTER:                  -7.208
REMARK INTRA:                  -1.004
REMARK UNBOUND:                -1.010
REMARK  Name = 
REMARK  6 active torsions:
REMARK  status: ('A' for Active; 'I' for Inactive)
REMARK    1  A    between atoms: C_1  and  N_2
REMARK    2  A    between atoms: N_2  and  C_3
REMARK    3  A    between atoms: C_3  and  C_4
REMARK    4  A    between atoms: C_7  and  C_8
REMARK    5  A    between atoms: C_8  and  C_9
REMARK    6  A    between atoms: C_18  and  C_20
REMARK                            x       y       z     vdW  Elec       q    Type
REMARK                         _______ _______ _______ _____ _____    ______ ____
ROOT
ATOM      1  C   UNL     1      51.024   8.364  13.538  0.00  0.00    +0.000 C 
ATOM      2  N   UNL     1      49.569   8.417  13.610  0.00  0.00    +0.000 N 
ATOM      3  C   UNL     1      48.882   8.037  12.443  0.00  0.00    +0.000 C 
ATOM      4  O   UNL     1      49.486   7.707  11.424  0.00  0.00    +0.000 OA
ENDROOT
BRANCH   3   5
ATOM      5  C   UNL     1      47.413   8.077  12.423  0.00  0.00    +0.000 A 
ATOM      6  C   UNL     1      46.665   9.203  12.115  0.00  0.00    +0.000 A 
ATOM      7  S   UNL     1      44.979   8.916  12.086  0.00  0.00    +0.000 S 
ATOM      8  C   UNL     1      45.206   7.252  12.344  0.00  0.00    +0.000 A 
ATOM      9  N   UNL     1      44.156   6.391  12.315  0.00  0.00    +0.000 NA
ATOM     10  C   UNL     1      44.488   5.149  12.452  0.00  0.00    +0.000 A 
ATOM     11  N   UNL     1      45.766   4.698  12.657  0.00  0.00    +0.000 N 
ATOM     12  C   UNL     1      46.846   5.541  12.836  0.00  0.00    +0.000 A 
ATOM     13  O   UNL     1      47.913   5.132  13.269  0.00  0.00    +0.000 OA
ATOM     14  C   UNL     1      46.535   6.940  12.555  0.00  0.00    +0.000 A 
ATOM     15  H   UNL     1      45.951   3.724  12.834  0.00  0.00    +0.000 HD
ENDBRANCH   3   5
BRANCH   2  16
ATOM     16  C   UNL     1      48.904   8.553  14.911  0.00  0.00    +0.000 C 
BRANCH  16  17
ATOM     17  C   UNL     1      49.283   7.586  16.003  0.00  0.00    +0.000 A 
ATOM     18  C   UNL     1      48.678   6.323  16.072  0.00  0.00    +0.000 A 
ATOM     19  C   UNL     1      49.066   5.403  17.045  0.00  0.00    +0.000 A 
ATOM     20  C   UNL     1      50.075   5.722  17.961  0.00  0.00    +0.000 A 
ATOM     21  C   UNL     1      50.669   6.991  17.902  0.00  0.00    +0.000 A 
ATOM     22  C   UNL     1      50.272   7.917  16.934  0.00  0.00    +0.000 A 
BRANCH  20  23
ATOM     23  C   UNL     1      50.500   4.719  19.007  0.00  0.00    +0.000 C 
BRANCH  23  24
ATOM     24  C   UNL     1      51.887   4.117  18.798  0.00  0.00    +0.000 C 
ATOM     25  O   UNL     1      52.928   4.670  19.147  0.00  0.00    +0.000 OA
ATOM     26  N   UNL     1      51.902   2.857  18.239  0.00  0.00    +0.000 N 
ATOM     27  C   UNL     1      53.113   2.103  18.092  0.00  0.00    +0.000 C 
ATOM     28  C   UNL     1      52.574   0.745  17.715  0.00  0.00    +0.000 C 
ATOM     29  O   UNL     1      51.338   0.996  17.018  0.00  0.00    +0.000 OA
ATOM     30  C   UNL     1      50.912   2.322  17.353  0.00  0.00    +0.000 C 
ENDBRANCH  23  24
ENDBRANCH  20  23
ENDBRANCH  16  17
ENDBRANCH   2  16
TORSDOF 5
ENDMDL
