MODEL 1
REMARK VINA RESULT:    -8.286      0.000      0.000
REMARK INTER + INTRA:         -13.486
REMARK INTER:                 -12.161
REMARK INTRA:                  -1.324
REMARK UNBOUND:                -1.324
REMARK  Name = 
REMARK  9 active torsions:
REMARK  status: ('A' for Active; 'I' for Inactive)
REMARK    1  A    between atoms: C_1  and  O_2
REMARK    2  A    between atoms: O_2  and  C_3
REMARK    3  A    between atoms: C_10  and  C_11
REMARK    4  A    between atoms: N_13  and  C_14
REMARK    5  A    between atoms: C_14  and  C_15
REMARK    6  A    between atoms: C_18  and  C_19
REMARK    7  A    between atoms: C_19  and  O_20
REMARK    8  A    between atoms: O_20  and  C_21
REMARK    9  A    between atoms: C_21  and  C_22
REMARK                            x       y       z     vdW  Elec       q    Type
REMARK                         _______ _______ _______ _____ _____    ______ ____
ROOT
ATOM      1  C   UNL     1      46.604   7.881  12.905  0.00  0.00    +0.000 C 
ENDROOT
BRANCH   1   2
ATOM      2  C   UNL     1      45.862   6.700  12.327  0.00  0.00    +0.000 A 
ATOM      3  C   UNL     1      44.922   5.997  13.094  0.00  0.00    +0.000 A 
ATOM      4  C   UNL     1      44.245   4.894  12.558  0.00  0.00    +0.000 A 
ATOM      5  C   UNL     1      44.502   4.462  11.249  0.00  0.00    +0.000 A 
ATOM      6  C   UNL     1      45.456   5.153  10.492  0.00  0.00    +0.000 A 
ATOM      7  C   UNL     1      46.131   6.257  11.026  0.00  0.00    +0.000 A 
BRANCH   5   8
ATOM      8  C   UNL     1      43.783   3.264  10.677  0.00  0.00    +0.000 C 
BRANCH   8   9
ATOM      9  O   UNL     1      44.169   3.088   9.317  0.00  0.00    +0.000 OA
BRANCH   9  10
ATOM     10  C   UNL     1      44.923   1.890   9.125  0.00  0.00    +0.000 C 
BRANCH  10  11
ATOM     11  C   UNL     1      45.907   2.074   8.003  0.00  0.00    +0.000 A 
ATOM     12  C   UNL     1      45.944   3.234   7.223  0.00  0.00    +0.000 A 
ATOM     13  C   UNL     1      46.891   3.363   6.213  0.00  0.00    +0.000 A 
ATOM     14  C   UNL     1      47.792   2.328   6.021  0.00  0.00    +0.000 A 
ATOM     15  N   UNL     1      47.808   1.203   6.767  0.00  0.00    +0.000 NA
ATOM     16  C   UNL     1      46.870   1.105   7.738  0.00  0.00    +0.000 A 
ENDBRANCH  10  11
ENDBRANCH   9  10
ENDBRANCH   8   9
ENDBRANCH   5   8
ENDBRANCH   1   2
BRANCH   1  19
ATOM     17  C   UNL     1      48.436   6.820  14.176  0.00  0.00    +0.000 C 
ATOM     18  O   UNL     1      48.987   6.442  13.143  0.00  0.00    +0.000 OA
ATOM     19  N   UNL     1      47.264   7.523  14.138  0.00  0.00    +0.000 N 
ATOM     20  H   UNL     1      46.802   7.785  14.997  0.00  0.00    +0.000 HD
BRANCH  17  28
ATOM     21  C   UNL     1      47.673   4.528  16.630  0.00  0.00    +0.000 A 
ATOM     22  N   UNL     1      47.598   3.747  17.724  0.00  0.00    +0.000 NA
ATOM     23  C   UNL     1      48.469   3.967  18.712  0.00  0.00    +0.000 A 
ATOM     24  N   UNL     1      49.425   4.890  18.745  0.00  0.00    +0.000 NA
ATOM     25  C   UNL     1      49.472   5.640  17.630  0.00  0.00    +0.000 A 
ATOM     26  S   UNL     1      50.634   6.871  17.498  0.00  0.00    +0.000 S 
ATOM     27  C   UNL     1      50.075   7.299  15.952  0.00  0.00    +0.000 A 
ATOM     28  C   UNL     1      49.008   6.529  15.503  0.00  0.00    +0.000 A 
ATOM     29  C   UNL     1      48.647   5.536  16.515  0.00  0.00    +0.000 A 
BRANCH  21  31
ATOM     30  C   UNL     1      47.340   3.434  14.589  0.00  0.00    +0.000 C 
ATOM     31  O   UNL     1      46.793   4.280  15.597  0.00  0.00    +0.000 OA
ENDBRANCH  21  31
ENDBRANCH  17  28
ENDBRANCH   1  19
TORSDOF 8
ENDMDL
MODEL 2
REMARK VINA RESULT:    -8.054      1.446      1.589
REMARK INTER + INTRA:         -13.145
REMARK INTER:                 -11.963
REMARK INTRA:                  -1.182
REMARK UNBOUND:                -1.324
REMARK  Name = 
REMARK  9 active torsions:
REMARK  status: ('A' for Active; 'I' for Inactive)
REMARK    1  A    between atoms: C_1  and  O_2
REMARK    2  A    between atoms: O_2  and  C_3
REMARK    3  A    between atoms: C_10  and  C_11
REMARK    4  A    between atoms: N_13  and  C_14
REMARK    5  A    between atoms: C_14  and  C_15
REMARK    6  A    between atoms: C_18  and  C_19
REMARK    7  A    between atoms: C_19  and  O_20
REMARK    8  A    between atoms: O_20  and  C_21
REMARK    9  A    between atoms: C_21  and  C_22
REMARK                            x       y       z     vdW  Elec       q    Type
REMARK                         _______ _______ _______ _____ _____    ______ ____
ROOT
ATOM      1  C   UNL     1      48.050   6.787  13.217  0.00  0.00    +0.000 C 
ENDROOT
BRANCH   1   2
ATOM      2  C   UNL     1      46.922   5.969  12.636  0.00  0.00    +0.000 A 
ATOM      3  C   UNL     1      46.419   4.852  13.318  0.00  0.00    +0.000 A 
ATOM      4  C   UNL     1      45.382   4.088  12.769  0.00  0.00    +0.000 A 
ATOM      5  C   UNL     1      44.832   4.416  11.522  0.00  0.00    +0.000 A 
ATOM      6  C   UNL     1      45.349   5.521  10.833  0.00  0.00    +0.000 A 
ATOM      7  C   UNL     1      46.384   6.286  11.382  0.00  0.00    +0.000 A 
BRANCH   5   8
ATOM      8  C   UNL     1      43.723   3.584  10.924  0.00  0.00    +0.000 C 
BRANCH   8   9
ATOM      9  O   UNL     1      44.028   3.302   9.561  0.00  0.00    +0.000 OA
BRANCH   9  10
ATOM     10  C   UNL     1      44.758   2.083   9.417  0.00  0.00    +0.000 C 
BRANCH  10  11
ATOM     11  C   UNL     1      45.725   2.194   8.271  0.00  0.00    +0.000 A 
ATOM     12  C   UNL     1      45.921   3.388   7.569  0.00  0.00    +0.000 A 
ATOM     13  C   UNL     1      46.846   3.442   6.533  0.00  0.00    +0.000 A 
ATOM     14  C   UNL     1      47.568   2.298   6.237  0.00  0.00    +0.000 A 
ATOM     15  N   UNL     1      47.429   1.132   6.904  0.00  0.00    +0.000 NA
ATOM     16  C   UNL     1      46.517   1.110   7.904  0.00  0.00    +0.000 A 
ENDBRANCH  10  11
ENDBRANCH   9  10
ENDBRANCH   8   9
ENDBRANCH   5   8
ENDBRANCH   1   2
BRANCH   1  19
ATOM     17  C   UNL     1      49.050   6.898  15.472  0.00  0.00    +0.000 C 
ATOM     18  O   UNL     1      50.190   6.878  15.010  0.00  0.00    +0.000 OA
ATOM     19  N   UNL     1      47.955   6.850  14.656  0.00  0.00    +0.000 N 
ATOM     20  H   UNL     1      47.027   6.820  15.054  0.00  0.00    +0.000 HD
BRANCH  17  28
ATOM     21  C   UNL     1      48.961   4.531  17.972  0.00  0.00    +0.000 A 
ATOM     22  N   UNL     1      48.880   3.831  19.119  0.00  0.00    +0.000 NA
ATOM     23  C   UNL     1      48.609   4.499  20.243  0.00  0.00    +0.000 A 
ATOM     24  N   UNL     1      48.403   5.806  20.368  0.00  0.00    +0.000 NA
ATOM     25  C   UNL     1      48.504   6.468  19.202  0.00  0.00    +0.000 A 
ATOM     26  S   UNL     1      48.271   8.150  19.172  0.00  0.00    +0.000 S 
ATOM     27  C   UNL     1      48.540   8.206  17.496  0.00  0.00    +0.000 A 
ATOM     28  C   UNL     1      48.810   6.968  16.925  0.00  0.00    +0.000 A 
ATOM     29  C   UNL     1      48.785   5.927  17.952  0.00  0.00    +0.000 A 
BRANCH  21  31
ATOM     30  C   UNL     1      48.897   2.472  16.864  0.00  0.00    +0.000 C 
ATOM     31  O   UNL     1      49.272   3.846  16.816  0.00  0.00    +0.000 OA
ENDBRANCH  21  31
ENDBRANCH  17  28
ENDBRANCH   1  19
TORSDOF 8
ENDMDL
MODEL 3
REMARK VINA RESULT:    -7.615      2.306      2.802
REMARK INTER + INTRA:         -12.501
REMARK INTER:                 -11.439
REMARK INTRA:                  -1.062
REMARK UNBOUND:                -1.324
REMARK  Name = 
REMARK  9 active torsions:
REMARK  status: ('A' for Active; 'I' for Inactive)
REMARK    1  A    between atoms: C_1  and  O_2
REMARK    2  A    between atoms: O_2  and  C_3
REMARK    3  A    between atoms: C_10  and  C_11
REMARK    4  A    between atoms: N_13  and  C_14
REMARK    5  A    between atoms: C_14  and  C_15
REMARK    6  A    between atoms: C_18  and  C_19
REMARK    7  A    between atoms: C_19  and  O_20
REMARK    8  A    between atoms: O_20  and  C_21
REMARK    9  A    between atoms: C_21  and  C_22
REMARK                            x       y       z     vdW  Elec       q    Type
REMARK                         _______ _______ _______ _____ _____    ______ ____
ROOT
ATOM      1  C   UNL     1      48.633   7.270  15.050  0.00  0.00    +0.000 C 
ENDROOT
BRANCH   1   2
ATOM      2  C   UNL     1      47.722   6.507  14.118  0.00  0.00    +0.000 A 
ATOM      3  C   UNL     1      47.258   5.227  14.454  0.00  0.00    +0.000 A 
ATOM      4  C   UNL     1      46.424   4.518  13.581  0.00  0.00    +0.000 A 
ATOM      5  C   UNL     1      46.043   5.067  12.349  0.00  0.00    +0.000 A 
ATOM      6  C   UNL     1      46.523   6.338  12.006  0.00  0.00    +0.000 A 
ATOM      7  C   UNL     1      47.356   7.048  12.879  0.00  0.00    +0.000 A 
BRANCH   5   8
ATOM      8  C   UNL     1      45.155   4.296  11.402  0.00  0.00    +0.000 C 
BRANCH   8   9
ATOM      9  O   UNL     1      45.343   4.785  10.076  0.00  0.00    +0.000 OA
BRANCH   9  10
ATOM     10  C   UNL     1      44.611   4.022   9.116  0.00  0.00    +0.000 C 
BRANCH  10  11
ATOM     11  C   UNL     1      45.541   3.118   8.357  0.00  0.00    +0.000 A 
ATOM     12  C   UNL     1      46.391   3.591   7.353  0.00  0.00    +0.000 A 
ATOM     13  C   UNL     1      47.250   2.715   6.698  0.00  0.00    +0.000 A 
ATOM     14  C   UNL     1      47.247   1.383   7.082  0.00  0.00    +0.000 A 
ATOM     15  N   UNL     1      46.461   0.889   8.062  0.00  0.00    +0.000 NA
ATOM     16  C   UNL     1      45.632   1.766   8.676  0.00  0.00    +0.000 A 
ENDBRANCH  10  11
ENDBRANCH   9  10
ENDBRANCH   8   9
ENDBRANCH   5   8
ENDBRANCH   1   2
BRANCH   1  19
ATOM     17  C   UNL     1      49.682   6.065  16.933  0.00  0.00    +0.000 C 
ATOM     18  O   UNL     1      48.849   6.502  17.727  0.00  0.00    +0.000 OA
ATOM     19  N   UNL     1      49.642   6.403  15.609  0.00  0.00    +0.000 N 
ATOM     20  H   UNL     1      50.360   6.072  14.981  0.00  0.00    +0.000 HD
BRANCH  17  28
ATOM     21  C   UNL     1      50.044   2.642  16.946  0.00  0.00    +0.000 A 
ATOM     22  N   UNL     1      50.445   1.361  17.057  0.00  0.00    +0.000 NA
ATOM     23  C   UNL     1      51.649   1.124  17.584  0.00  0.00    +0.000 A 
ATOM     24  N   UNL     1      52.522   2.025  18.023  0.00  0.00    +0.000 NA
ATOM     25  C   UNL     1      52.087   3.290  17.884  0.00  0.00    +0.000 A 
ATOM     26  S   UNL     1      53.074   4.574  18.394  0.00  0.00    +0.000 S 
ATOM     27  C   UNL     1      51.912   5.719  17.920  0.00  0.00    +0.000 A 
ATOM     28  C   UNL     1      50.762   5.163  17.371  0.00  0.00    +0.000 A 
ATOM     29  C   UNL     1      50.870   3.705  17.353  0.00  0.00    +0.000 A 
BRANCH  21  31
ATOM     30  C   UNL     1      47.756   2.942  17.327  0.00  0.00    +0.000 C 
ATOM     31  O   UNL     1      48.814   2.887  16.374  0.00  0.00    +0.000 OA
ENDBRANCH  21  31
ENDBRANCH  17  28
ENDBRANCH   1  19
TORSDOF 8
ENDMDL
MODEL 4
REMARK VINA RESULT:    -7.481      2.413      3.029
REMARK INTER + INTRA:         -12.304
REMARK INTER:                 -11.048
REMARK INTRA:                  -1.256
REMARK UNBOUND:                -1.324
REMARK  Name = 
REMARK  9 active torsions:
REMARK  status: ('A' for Active; 'I' for Inactive)
REMARK    1  A    between atoms: C_1  and  O_2
REMARK    2  A    between atoms: O_2  and  C_3
REMARK    3  A    between atoms: C_10  and  C_11
REMARK    4  A    between atoms: N_13  and  C_14
REMARK    5  A    between atoms: C_14  and  C_15
REMARK    6  A    between atoms: C_18  and  C_19
REMARK    7  A    between atoms: C_19  and  O_20
REMARK    8  A    between atoms: O_20  and  C_21
REMARK    9  A    between atoms: C_21  and  C_22
REMARK                            x       y       z     vdW  Elec       q    Type
REMARK                         _______ _______ _______ _____ _____    ______ ____
ROOT
ATOM      1  C   UNL     1      48.054   7.457  13.769  0.00  0.00    +0.000 C 
ENDROOT
BRANCH   1   2
ATOM      2  C   UNL     1      46.941   6.761  13.023  0.00  0.00    +0.000 A 
ATOM      3  C   UNL     1      46.691   5.395  13.217  0.00  0.00    +0.000 A 
ATOM      4  C   UNL     1      45.666   4.750  12.513  0.00  0.00    +0.000 A 
ATOM      5  C   UNL     1      44.876   5.452  11.593  0.00  0.00    +0.000 A 
ATOM      6  C   UNL     1      45.140   6.813  11.386  0.00  0.00    +0.000 A 
ATOM      7  C   UNL     1      46.163   7.458  12.091  0.00  0.00    +0.000 A 
BRANCH   5   8
ATOM      8  C   UNL     1      43.781   4.754  10.824  0.00  0.00    +0.000 C 
BRANCH   8   9
ATOM      9  O   UNL     1      44.339   3.668  10.089  0.00  0.00    +0.000 OA
BRANCH   9  10
ATOM     10  C   UNL     1      44.581   4.014   8.725  0.00  0.00    +0.000 C 
BRANCH  10  11
ATOM     11  C   UNL     1      45.577   3.064   8.121  0.00  0.00    +0.000 A 
ATOM     12  C   UNL     1      46.527   3.474   7.179  0.00  0.00    +0.000 A 
ATOM     13  C   UNL     1      47.442   2.558   6.670  0.00  0.00    +0.000 A 
ATOM     14  C   UNL     1      47.392   1.254   7.133  0.00  0.00    +0.000 A 
ATOM     15  N   UNL     1      46.510   0.821   8.058  0.00  0.00    +0.000 NA
ATOM     16  C   UNL     1      45.629   1.734   8.530  0.00  0.00    +0.000 A 
ENDBRANCH  10  11
ENDBRANCH   9  10
ENDBRANCH   8   9
ENDBRANCH   5   8
ENDBRANCH   1   2
BRANCH   1  19
ATOM     17  C   UNL     1      48.908   6.685  15.953  0.00  0.00    +0.000 C 
ATOM     18  O   UNL     1      49.962   6.298  15.449  0.00  0.00    +0.000 OA
ATOM     19  N   UNL     1      47.927   7.256  15.192  0.00  0.00    +0.000 N 
ATOM     20  H   UNL     1      47.050   7.525  15.615  0.00  0.00    +0.000 HD
BRANCH  17  28
ATOM     21  C   UNL     1      47.783   8.861  18.373  0.00  0.00    +0.000 A 
ATOM     22  N   UNL     1      47.364   9.484  19.490  0.00  0.00    +0.000 NA
ATOM     23  C   UNL     1      47.339   8.783  20.627  0.00  0.00    +0.000 A 
ATOM     24  N   UNL     1      47.689   7.512  20.792  0.00  0.00    +0.000 NA
ATOM     25  C   UNL     1      48.090   6.925  19.651  0.00  0.00    +0.000 A 
ATOM     26  S   UNL     1      48.576   5.298  19.672  0.00  0.00    +0.000 S 
ATOM     27  C   UNL     1      48.900   5.322  18.005  0.00  0.00    +0.000 A 
ATOM     28  C   UNL     1      48.652   6.547  17.399  0.00  0.00    +0.000 A 
ATOM     29  C   UNL     1      48.169   7.508  18.390  0.00  0.00    +0.000 A 
BRANCH  21  31
ATOM     30  C   UNL     1      48.994  10.285  16.966  0.00  0.00    +0.000 C 
ATOM     31  O   UNL     1      47.780   9.576  17.193  0.00  0.00    +0.000 OA
ENDBRANCH  21  31
ENDBRANCH  17  28
ENDBRANCH   1  19
TORSDOF 8
ENDMDL
MODEL 5
REMARK VINA RESULT:    -7.333      1.997      3.460
REMARK INTER + INTRA:         -12.087
REMARK INTER:                 -10.718
REMARK INTRA:                  -1.369
REMARK UNBOUND:                -1.324
REMARK  Name = 
REMARK  9 active torsions:
REMARK  status: ('A' for Active; 'I' for Inactive)
REMARK    1  A    between atoms: C_1  and  O_2
REMARK    2  A    between atoms: O_2  and  C_3
REMARK    3  A    between atoms: C_10  and  C_11
REMARK    4  A    between atoms: N_13  and  C_14
REMARK    5  A    between atoms: C_14  and  C_15
REMARK    6  A    between atoms: C_18  and  C_19
REMARK    7  A    between atoms: C_19  and  O_20
REMARK    8  A    between atoms: O_20  and  C_21
REMARK    9  A    between atoms: C_21  and  C_22
REMARK                            x       y       z     vdW  Elec       q    Type
REMARK                         _______ _______ _______ _____ _____    ______ ____
ROOT
ATOM      1  C   UNL     1      47.312   4.213  14.919  0.00  0.00    +0.000 C 
ENDROOT
BRANCH   1   2
ATOM      2  C   UNL     1      46.355   4.363  13.761  0.00  0.00    +0.000 A 
ATOM      3  C   UNL     1      45.894   3.239  13.061  0.00  0.00    +0.000 A 
ATOM      4  C   UNL     1      45.016   3.383  11.979  0.00  0.00    +0.000 A 
ATOM      5  C   UNL     1      44.589   4.653  11.566  0.00  0.00    +0.000 A 
ATOM      6  C   UNL     1      45.067   5.775  12.254  0.00  0.00    +0.000 A 
ATOM      7  C   UNL     1      45.943   5.632  13.337  0.00  0.00    +0.000 A 
BRANCH   5   8
ATOM      8  C   UNL     1      43.654   4.808  10.391  0.00  0.00    +0.000 C 
BRANCH   8   9
ATOM      9  O   UNL     1      43.976   3.835   9.400  0.00  0.00    +0.000 OA
BRANCH   9  10
ATOM     10  C   UNL     1      44.964   4.310   8.485  0.00  0.00    +0.000 C 
BRANCH  10  11
ATOM     11  C   UNL     1      45.785   3.161   7.971  0.00  0.00    +0.000 A 
ATOM     12  C   UNL     1      46.747   3.318   6.967  0.00  0.00    +0.000 A 
ATOM     13  C   UNL     1      47.497   2.225   6.545  0.00  0.00    +0.000 A 
ATOM     14  C   UNL     1      47.274   1.002   7.154  0.00  0.00    +0.000 A 
ATOM     15  N   UNL     1      46.375   0.810   8.143  0.00  0.00    +0.000 NA
ATOM     16  C   UNL     1      45.657   1.891   8.528  0.00  0.00    +0.000 A 
ENDBRANCH  10  11
ENDBRANCH   9  10
ENDBRANCH   8   9
ENDBRANCH   5   8
ENDBRANCH   1   2
BRANCH   1  19
ATOM     17  C   UNL     1      48.649   5.710  16.358  0.00  0.00    +0.000 C 
ATOM     18  O   UNL     1      49.448   4.811  16.619  0.00  0.00    +0.000 OA
ATOM     19  N   UNL     1      47.577   5.489  15.539  0.00  0.00    +0.000 N 
ATOM     20  H   UNL     1      46.906   6.226  15.373  0.00  0.00    +0.000 HD
BRANCH  17  28
ATOM     21  C   UNL     1      48.791   8.850  14.951  0.00  0.00    +0.000 A 
ATOM     22  N   UNL     1      48.866  10.165  14.672  0.00  0.00    +0.000 NA
ATOM     23  C   UNL     1      49.024  11.014  15.691  0.00  0.00    +0.000 A 
ATOM     24  N   UNL     1      49.120  10.707  16.981  0.00  0.00    +0.000 NA
ATOM     25  C   UNL     1      49.030   9.387  17.216  0.00  0.00    +0.000 A 
ATOM     26  S   UNL     1      49.132   8.811  18.810  0.00  0.00    +0.000 S 
ATOM     27  C   UNL     1      48.948   7.203  18.294  0.00  0.00    +0.000 A 
ATOM     28  C   UNL     1      48.806   7.065  16.918  0.00  0.00    +0.000 A 
ATOM     29  C   UNL     1      48.858   8.377  16.274  0.00  0.00    +0.000 A 
BRANCH  21  31
ATOM     30  C   UNL     1      48.242   8.632  12.688  0.00  0.00    +0.000 C 
ATOM     31  O   UNL     1      48.596   7.976  13.902  0.00  0.00    +0.000 OA
ENDBRANCH  21  31
ENDBRANCH  17  28
ENDBRANCH   1  19
TORSDOF 8
ENDMDL
MODEL 6
REMARK VINA RESULT:    -7.322      2.287      2.894
REMARK INTER + INTRA:         -12.071
REMARK INTER:                 -10.779
REMARK INTRA:                  -1.292
REMARK UNBOUND:                -1.324
REMARK  Name = 
REMARK  9 active torsions:
REMARK  status: ('A' for Active; 'I' for Inactive)
REMARK    1  A    between atoms: C_1  and  O_2
REMARK    2  A    between atoms: O_2  and  C_3
REMARK    3  A    between atoms: C_10  and  C_11
REMARK    4  A    between atoms: N_13  and  C_14
REMARK    5  A    between atoms: C_14  and  C_15
REMARK    6  A    between atoms: C_18  and  C_19
REMARK    7  A    between atoms: C_19  and  O_20
REMARK    8  A    between atoms: O_20  and  C_21
REMARK    9  A    between atoms: C_21  and  C_22
REMARK                            x       y       z     vdW  Elec       q    Type
REMARK                         _______ _______ _______ _____ _____    ______ ____
ROOT
ATOM      1  C   UNL     1      47.663   4.321  15.014  0.00  0.00    +0.000 C 
ENDROOT
BRANCH   1   2
ATOM      2  C   UNL     1      46.659   4.433  13.893  0.00  0.00    +0.000 A 
ATOM      3  C   UNL     1      46.181   3.289  13.238  0.00  0.00    +0.000 A 
ATOM      4  C   UNL     1      45.259   3.399  12.190  0.00  0.00    +0.000 A 
ATOM      5  C   UNL     1      44.803   4.654  11.765  0.00  0.00    +0.000 A 
ATOM      6  C   UNL     1      45.296   5.797  12.406  0.00  0.00    +0.000 A 
ATOM      7  C   UNL     1      46.216   5.688  13.456  0.00  0.00    +0.000 A 
BRANCH   5   8
ATOM      8  C   UNL     1      43.820   4.773  10.625  0.00  0.00    +0.000 C 
BRANCH   8   9
ATOM      9  O   UNL     1      44.068   3.737   9.678  0.00  0.00    +0.000 OA
BRANCH   9  10
ATOM     10  C   UNL     1      44.808   4.207   8.551  0.00  0.00    +0.000 C 
BRANCH  10  11
ATOM     11  C   UNL     1      45.707   3.119   8.034  0.00  0.00    +0.000 A 
ATOM     12  C   UNL     1      46.707   3.362   7.086  0.00  0.00    +0.000 A 
ATOM     13  C   UNL     1      47.528   2.324   6.659  0.00  0.00    +0.000 A 
ATOM     14  C   UNL     1      47.336   1.067   7.209  0.00  0.00    +0.000 A 
ATOM     15  N   UNL     1      46.401   0.794   8.144  0.00  0.00    +0.000 NA
ATOM     16  C   UNL     1      45.614   1.824   8.534  0.00  0.00    +0.000 A 
ENDBRANCH  10  11
ENDBRANCH   9  10
ENDBRANCH   8   9
ENDBRANCH   5   8
ENDBRANCH   1   2
BRANCH   1  19
ATOM     17  C   UNL     1      48.650   6.405  15.898  0.00  0.00    +0.000 C 
ATOM     18  O   UNL     1      49.664   6.261  15.216  0.00  0.00    +0.000 OA
ATOM     19  N   UNL     1      47.632   5.493  15.855  0.00  0.00    +0.000 N 
ATOM     20  H   UNL     1      46.828   5.603  16.457  0.00  0.00    +0.000 HD
BRANCH  17  28
ATOM     21  C   UNL     1      47.816   6.718  19.224  0.00  0.00    +0.000 A 
ATOM     22  N   UNL     1      47.528   7.120  20.476  0.00  0.00    +0.000 NA
ATOM     23  C   UNL     1      47.532   8.431  20.730  0.00  0.00    +0.000 A 
ATOM     24  N   UNL     1      47.791   9.412  19.872  0.00  0.00    +0.000 NA
ATOM     25  C   UNL     1      48.083   8.968  18.638  0.00  0.00    +0.000 A 
ATOM     26  S   UNL     1      48.441  10.084  17.409  0.00  0.00    +0.000 S 
ATOM     27  C   UNL     1      48.671   8.839  16.277  0.00  0.00    +0.000 A 
ATOM     28  C   UNL     1      48.485   7.562  16.796  0.00  0.00    +0.000 A 
ATOM     29  C   UNL     1      48.130   7.644  18.212  0.00  0.00    +0.000 A 
BRANCH  21  31
ATOM     30  C   UNL     1      49.094   4.760  19.288  0.00  0.00    +0.000 C 
ATOM     31  O   UNL     1      47.844   5.363  18.969  0.00  0.00    +0.000 OA
ENDBRANCH  21  31
ENDBRANCH  17  28
ENDBRANCH   1  19
TORSDOF 8
ENDMDL
MODEL 7
REMARK VINA RESULT:    -7.264      1.491      1.886
REMARK INTER + INTRA:         -11.986
REMARK INTER:                 -10.823
REMARK INTRA:                  -1.163
REMARK UNBOUND:                -1.324
REMARK  Name = 
REMARK  9 active torsions:
REMARK  status: ('A' for Active; 'I' for Inactive)
REMARK    1  A    between atoms: C_1  and  O_2
REMARK    2  A    between atoms: O_2  and  C_3
REMARK    3  A    between atoms: C_10  and  C_11
REMARK    4  A    between atoms: N_13  and  C_14
REMARK    5  A    between atoms: C_14  and  C_15
REMARK    6  A    between atoms: C_18  and  C_19
REMARK    7  A    between atoms: C_19  and  O_20
REMARK    8  A    between atoms: O_20  and  C_21
REMARK    9  A    between atoms: C_21  and  C_22
REMARK                            x       y       z     vdW  Elec       q    Type
REMARK                         _______ _______ _______ _____ _____    ______ ____
ROOT
ATOM      1  C   UNL     1      47.046   7.980  13.096  0.00  0.00    +0.000 C 
ENDROOT
BRANCH   1   2
ATOM      2  C   UNL     1      46.184   6.841  12.607  0.00  0.00    +0.000 A 
ATOM      3  C   UNL     1      45.317   7.012  11.518  0.00  0.00    +0.000 A 
ATOM      4  C   UNL     1      44.510   5.956  11.076  0.00  0.00    +0.000 A 
ATOM      5  C   UNL     1      44.543   4.710  11.719  0.00  0.00    +0.000 A 
ATOM      6  C   UNL     1      45.395   4.548  12.819  0.00  0.00    +0.000 A 
ATOM      7  C   UNL     1      46.203   5.602  13.260  0.00  0.00    +0.000 A 
BRANCH   5   8
ATOM      8  C   UNL     1      43.662   3.577  11.251  0.00  0.00    +0.000 C 
BRANCH   8   9
ATOM      9  O   UNL     1      43.850   3.381   9.852  0.00  0.00    +0.000 OA
BRANCH   9  10
ATOM     10  C   UNL     1      44.543   2.165   9.570  0.00  0.00    +0.000 C 
BRANCH  10  11
ATOM     11  C   UNL     1      45.546   2.385   8.472  0.00  0.00    +0.000 A 
ATOM     12  C   UNL     1      46.413   1.376   8.037  0.00  0.00    +0.000 A 
ATOM     13  C   UNL     1      47.305   1.626   7.000  0.00  0.00    +0.000 A 
ATOM     14  C   UNL     1      47.294   2.880   6.412  0.00  0.00    +0.000 A 
ATOM     15  N   UNL     1      46.459   3.873   6.783  0.00  0.00    +0.000 NA
ATOM     16  C   UNL     1      45.606   3.601   7.799  0.00  0.00    +0.000 A 
ENDBRANCH  10  11
ENDBRANCH   9  10
ENDBRANCH   8   9
ENDBRANCH   5   8
ENDBRANCH   1   2
BRANCH   1  19
ATOM     17  C   UNL     1      48.626   7.945  14.993  0.00  0.00    +0.000 C 
ATOM     18  O   UNL     1      48.001   8.826  15.582  0.00  0.00    +0.000 OA
ATOM     19  N   UNL     1      48.222   7.486  13.771  0.00  0.00    +0.000 N 
ATOM     20  H   UNL     1      48.773   6.796  13.281  0.00  0.00    +0.000 HD
BRANCH  17  28
ATOM     21  C   UNL     1      49.183   5.230  17.035  0.00  0.00    +0.000 A 
ATOM     22  N   UNL     1      49.676   4.239  17.803  0.00  0.00    +0.000 NA
ATOM     23  C   UNL     1      50.996   4.196  17.999  0.00  0.00    +0.000 A 
ATOM     24  N   UNL     1      51.906   5.036  17.515  0.00  0.00    +0.000 NA
ATOM     25  C   UNL     1      51.373   6.002  16.746  0.00  0.00    +0.000 A 
ATOM     26  S   UNL     1      52.389   7.167  16.043  0.00  0.00    +0.000 S 
ATOM     27  C   UNL     1      51.070   7.944  15.307  0.00  0.00    +0.000 A 
ATOM     28  C   UNL     1      49.843   7.347  15.573  0.00  0.00    +0.000 A 
ATOM     29  C   UNL     1      50.028   6.184  16.439  0.00  0.00    +0.000 A 
BRANCH  21  31
ATOM     30  C   UNL     1      47.294   3.986  16.441  0.00  0.00    +0.000 C 
ATOM     31  O   UNL     1      47.823   5.257  16.808  0.00  0.00    +0.000 OA
ENDBRANCH  21  31
ENDBRANCH  17  28
ENDBRANCH   1  19
TORSDOF 8
ENDMDL
MODEL 8
REMARK VINA RESULT:    -6.698      4.749      9.143
REMARK INTER + INTRA:         -11.154
REMARK INTER:                 -10.126
REMARK INTRA:                  -1.028
REMARK UNBOUND:                -1.324
REMARK  Name = 
REMARK  9 active torsions:
REMARK  status: ('A' for Active; 'I' for Inactive)
REMARK    1  A    between atoms: C_1  and  O_2
REMARK    2  A    between atoms: O_2  and  C_3
REMARK    3  A    between atoms: C_10  and  C_11
REMARK    4  A    between atoms: N_13  and  C_14
REMARK    5  A    between atoms: C_14  and  C_15
REMARK    6  A    between atoms: C_18  and  C_19
REMARK    7  A    between atoms: C_19  and  O_20
REMARK    8  A    between atoms: O_20  and  C_21
REMARK    9  A    between atoms: C_21  and  C_22
REMARK                            x       y       z     vdW  Elec       q    Type
REMARK                         _______ _______ _______ _____ _____    ______ ____
ROOT
ATOM      1  C   UNL     1      47.178   3.349  16.789  0.00  0.00    +0.000 C 
ENDROOT
BRANCH   1   2
ATOM      2  C   UNL     1      48.649   3.329  17.131  0.00  0.00    +0.000 A 
ATOM      3  C   UNL     1      49.302   4.490  17.566  0.00  0.00    +0.000 A 
ATOM      4  C   UNL     1      50.669   4.470  17.870  0.00  0.00    +0.000 A 
ATOM      5  C   UNL     1      51.416   3.292  17.733  0.00  0.00    +0.000 A 
ATOM      6  C   UNL     1      50.766   2.137  17.279  0.00  0.00    +0.000 A 
ATOM      7  C   UNL     1      49.400   2.156  16.978  0.00  0.00    +0.000 A 
BRANCH   5   8
ATOM      8  C   UNL     1      52.893   3.274  18.047  0.00  0.00    +0.000 C 
BRANCH   8   9
ATOM      9  O   UNL     1      53.201   2.103  18.799  0.00  0.00    +0.000 OA
BRANCH   9  10
ATOM     10  C   UNL     1      54.579   1.743  18.688  0.00  0.00    +0.000 C 
BRANCH  10  11
ATOM     11  C   UNL     1      54.707   0.378  18.074  0.00  0.00    +0.000 A 
ATOM     12  C   UNL     1      54.863   0.188  16.696  0.00  0.00    +0.000 A 
ATOM     13  C   UNL     1      55.002  -1.097  16.182  0.00  0.00    +0.000 A 
ATOM     14  C   UNL     1      54.999  -2.162  17.068  0.00  0.00    +0.000 A 
ATOM     15  N   UNL     1      54.877  -2.023  18.405  0.00  0.00    +0.000 NA
ATOM     16  C   UNL     1      54.737  -0.761  18.874  0.00  0.00    +0.000 A 
ENDBRANCH  10  11
ENDBRANCH   9  10
ENDBRANCH   8   9
ENDBRANCH   5   8
ENDBRANCH   1   2
BRANCH   1  19
ATOM     17  C   UNL     1      46.911   4.214  14.492  0.00  0.00    +0.000 C 
ATOM     18  O   UNL     1      47.208   3.124  14.004  0.00  0.00    +0.000 OA
ATOM     19  N   UNL     1      46.882   4.400  15.846  0.00  0.00    +0.000 N 
ATOM     20  H   UNL     1      46.682   5.314  16.227  0.00  0.00    +0.000 HD
BRANCH  17  28
ATOM     21  C   UNL     1      44.140   5.064  12.633  0.00  0.00    +0.000 A 
ATOM     22  N   UNL     1      43.205   5.633  11.850  0.00  0.00    +0.000 NA
ATOM     23  C   UNL     1      43.491   6.809  11.285  0.00  0.00    +0.000 A 
ATOM     24  N   UNL     1      44.620   7.501  11.405  0.00  0.00    +0.000 NA
ATOM     25  C   UNL     1      45.521   6.903  12.204  0.00  0.00    +0.000 A 
ATOM     26  S   UNL     1      47.024   7.646  12.473  0.00  0.00    +0.000 S 
ATOM     27  C   UNL     1      47.525   6.377  13.484  0.00  0.00    +0.000 A 
ATOM     28  C   UNL     1      46.578   5.372  13.641  0.00  0.00    +0.000 A 
ATOM     29  C   UNL     1      45.378   5.690  12.869  0.00  0.00    +0.000 A 
BRANCH  21  31
ATOM     30  C   UNL     1      43.680   2.792  12.316  0.00  0.00    +0.000 C 
ATOM     31  O   UNL     1      43.832   3.865  13.242  0.00  0.00    +0.000 OA
ENDBRANCH  21  31
ENDBRANCH  17  28
ENDBRANCH   1  19
TORSDOF 8
ENDMDL
MODEL 9
REMARK VINA RESULT:    -6.650      3.710      8.604
REMARK INTER + INTRA:         -11.084
REMARK INTER:                  -9.726
REMARK INTRA:                  -1.359
REMARK UNBOUND:                -1.324
REMARK  Name = 
REMARK  9 active torsions:
REMARK  status: ('A' for Active; 'I' for Inactive)
REMARK    1  A    between atoms: C_1  and  O_2
REMARK    2  A    between atoms: O_2  and  C_3
REMARK    3  A    between atoms: C_10  and  C_11
REMARK    4  A    between atoms: N_13  and  C_14
REMARK    5  A    between atoms: C_14  and  C_15
REMARK    6  A    between atoms: C_18  and  C_19
REMARK    7  A    between atoms: C_19  and  O_20
REMARK    8  A    between atoms: O_20  and  C_21
REMARK    9  A    between atoms: C_21  and  C_22
REMARK                            x       y       z     vdW  Elec       q    Type
REMARK                         _______ _______ _______ _____ _____    ______ ____
ROOT
ATOM      1  C   UNL     1      47.312   3.348  16.988  0.00  0.00    +0.000 C 
ENDROOT
BRANCH   1   2
ATOM      2  C   UNL     1      48.789   3.276  17.293  0.00  0.00    +0.000 A 
ATOM      3  C   UNL     1      49.452   4.357  17.892  0.00  0.00    +0.000 A 
ATOM      4  C   UNL     1      50.825   4.291  18.161  0.00  0.00    +0.000 A 
ATOM      5  C   UNL     1      51.568   3.151  17.826  0.00  0.00    +0.000 A 
ATOM      6  C   UNL     1      50.908   2.080  17.209  0.00  0.00    +0.000 A 
ATOM      7  C   UNL     1      49.535   2.144  16.942  0.00  0.00    +0.000 A 
BRANCH   5   8
ATOM      8  C   UNL     1      53.050   3.087  18.103  0.00  0.00    +0.000 C 
BRANCH   8   9
ATOM      9  O   UNL     1      53.577   4.410  18.164  0.00  0.00    +0.000 OA
BRANCH   9  10
ATOM     10  C   UNL     1      54.595   4.626  17.187  0.00  0.00    +0.000 C 
BRANCH  10  11
ATOM     11  C   UNL     1      54.196   5.744  16.264  0.00  0.00    +0.000 A 
ATOM     12  C   UNL     1      53.035   6.499  16.462  0.00  0.00    +0.000 A 
ATOM     13  C   UNL     1      52.725   7.539  15.592  0.00  0.00    +0.000 A 
ATOM     14  C   UNL     1      53.600   7.808  14.552  0.00  0.00    +0.000 A 
ATOM     15  N   UNL     1      54.743   7.121  14.340  0.00  0.00    +0.000 NA
ATOM     16  C   UNL     1      55.014   6.112  15.200  0.00  0.00    +0.000 A 
ENDBRANCH  10  11
ENDBRANCH   9  10
ENDBRANCH   8   9
ENDBRANCH   5   8
ENDBRANCH   1   2
BRANCH   1  19
ATOM     17  C   UNL     1      47.054   4.190  14.681  0.00  0.00    +0.000 C 
ATOM     18  O   UNL     1      47.331   3.089  14.207  0.00  0.00    +0.000 OA
ATOM     19  N   UNL     1      47.031   4.392  16.033  0.00  0.00    +0.000 N 
ATOM     20  H   UNL     1      46.847   5.313  16.404  0.00  0.00    +0.000 HD
BRANCH  17  28
ATOM     21  C   UNL     1      44.357   4.989  12.696  0.00  0.00    +0.000 A 
ATOM     22  N   UNL     1      43.448   5.542  11.871  0.00  0.00    +0.000 NA
ATOM     23  C   UNL     1      43.738   6.724  11.321  0.00  0.00    +0.000 A 
ATOM     24  N   UNL     1      44.846   7.438  11.495  0.00  0.00    +0.000 NA
ATOM     25  C   UNL     1      45.721   6.856  12.334  0.00  0.00    +0.000 A 
ATOM     26  S   UNL     1      47.194   7.627  12.674  0.00  0.00    +0.000 S 
ATOM     27  C   UNL     1      47.672   6.366  13.707  0.00  0.00    +0.000 A 
ATOM     28  C   UNL     1      46.739   5.342  13.818  0.00  0.00    +0.000 A 
ATOM     29  C   UNL     1      45.570   5.638  12.990  0.00  0.00    +0.000 A 
BRANCH  21  31
ATOM     30  C   UNL     1      43.630   2.793  12.351  0.00  0.00    +0.000 C 
ATOM     31  O   UNL     1      44.044   3.783  13.288  0.00  0.00    +0.000 OA
ENDBRANCH  21  31
ENDBRANCH  17  28
ENDBRANCH   1  19
TORSDOF 8
ENDMDL
