MODEL 1
REMARK VINA RESULT:    -7.532      0.000      0.000
REMARK INTER + INTRA:         -10.961
REMARK INTER:                 -10.394
REMARK INTRA:                  -0.567
REMARK UNBOUND:                -0.567
REMARK  Name = 
REMARK  8 active torsions:
REMARK  status: ('A' for Active; 'I' for Inactive)
REMARK    1  A    between atoms: C_1  and  O_2
REMARK    2  A    between atoms: O_2  and  C_3
REMARK    3  A    between atoms: C_5  and  C_6
REMARK    4  A    between atoms: C_6  and  O_8
REMARK    5  A    between atoms: C_11  and  C_12
REMARK    6  A    between atoms: C_12  and  O_13
REMARK    7  A    between atoms: O_13  and  C_14
REMARK    8  A    between atoms: C_17  and  C_18
REMARK                            x       y       z     vdW  Elec       q    Type
REMARK                         _______ _______ _______ _____ _____    ______ ____
ROOT
ATOM      1  C   UNL     1      44.515   5.045  12.595  0.00  0.00    +0.000 A 
ATOM      2  C   UNL     1      45.514   5.749  13.278  0.00  0.00    +0.000 A 
ATOM      3  C   UNL     1      46.679   5.091  13.678  0.00  0.00    +0.000 A 
ATOM      4  C   UNL     1      46.787   3.736  13.412  0.00  0.00    +0.000 A 
ATOM      5  N   UNL     1      45.841   3.023  12.757  0.00  0.00    +0.000 NA
ATOM      6  C   UNL     1      44.714   3.677  12.353  0.00  0.00    +0.000 A 
ENDROOT
BRANCH   1   8
ATOM      7  C   UNL     1      43.404   6.659  11.255  0.00  0.00    +0.000 C 
ATOM      8  O   UNL     1      43.326   5.598  12.204  0.00  0.00    +0.000 OA
ENDBRANCH   1   8
BRANCH   3   9
ATOM      9  C   UNL     1      47.766   5.750  14.430  0.00  0.00    +0.000 C 
ATOM     10  O   UNL     1      48.671   6.349  13.877  0.00  0.00    +0.000 OA
BRANCH   9  11
ATOM     11  O   UNL     1      47.655   5.655  15.770  0.00  0.00    +0.000 OA
ATOM     12  H   UNL     1      47.853   6.461  16.281  0.00  0.00    +0.000 HD
ENDBRANCH   9  11
ENDBRANCH   3   9
BRANCH   6  13
ATOM     13  C   UNL     1      43.664   2.825  11.664  0.00  0.00    +0.000 C 
BRANCH  13  14
ATOM     14  O   UNL     1      43.426   3.282  10.329  0.00  0.00    +0.000 OA
BRANCH  14  15
ATOM     15  C   UNL     1      44.437   3.105   9.427  0.00  0.00    +0.000 A 
ATOM     16  C   UNL     1      45.026   4.084   8.631  0.00  0.00    +0.000 A 
ATOM     17  C   UNL     1      46.055   3.733   7.749  0.00  0.00    +0.000 A 
ATOM     18  C   UNL     1      46.466   2.407   7.693  0.00  0.00    +0.000 A 
ATOM     19  N   UNL     1      45.912   1.431   8.450  0.00  0.00    +0.000 NA
ATOM     20  C   UNL     1      44.915   1.806   9.290  0.00  0.00    +0.000 A 
BRANCH  18  21
ATOM     21  C   UNL     1      47.526   2.003   6.808  0.00  0.00    +0.000 C 
ATOM     22  N   UNL     1      48.363   1.633   6.091  0.00  0.00    +0.000 NA
ENDBRANCH  18  21
ENDBRANCH  14  15
ENDBRANCH  13  14
ENDBRANCH   6  13
TORSDOF 7
ENDMDL
MODEL 2
REMARK VINA RESULT:    -7.499      1.794      2.588
REMARK INTER + INTRA:         -10.915
REMARK INTER:                 -10.380
REMARK INTRA:                  -0.535
REMARK UNBOUND:                -0.567
REMARK  Name = 
REMARK  8 active torsions:
REMARK  status: ('A' for Active; 'I' for Inactive)
REMARK    1  A    between atoms: C_1  and  O_2
REMARK    2  A    between atoms: O_2  and  C_3
REMARK    3  A    between atoms: C_5  and  C_6
REMARK    4  A    between atoms: C_6  and  O_8
REMARK    5  A    between atoms: C_11  and  C_12
REMARK    6  A    between atoms: C_12  and  O_13
REMARK    7  A    between atoms: O_13  and  C_14
REMARK    8  A    between atoms: C_17  and  C_18
REMARK                            x       y       z     vdW  Elec       q    Type
REMARK                         _______ _______ _______ _____ _____    ______ ____
ROOT
ATOM      1  C   UNL     1      45.564   4.717  12.858  0.00  0.00    +0.000 A 
ATOM      2  C   UNL     1      46.025   6.000  13.179  0.00  0.00    +0.000 A 
ATOM      3  C   UNL     1      45.396   7.121  12.633  0.00  0.00    +0.000 A 
ATOM      4  C   UNL     1      44.347   6.917  11.752  0.00  0.00    +0.000 A 
ATOM      5  N   UNL     1      43.878   5.692  11.416  0.00  0.00    +0.000 NA
ATOM      6  C   UNL     1      44.485   4.602  11.969  0.00  0.00    +0.000 A 
ENDROOT
BRANCH   1   8
ATOM      7  C   UNL     1      47.130   3.712  14.333  0.00  0.00    +0.000 C 
ATOM      8  O   UNL     1      46.145   3.564  13.312  0.00  0.00    +0.000 OA
ENDBRANCH   1   8
BRANCH   3   9
ATOM      9  C   UNL     1      45.838   8.506  12.893  0.00  0.00    +0.000 C 
ATOM     10  O   UNL     1      47.010   8.794  13.064  0.00  0.00    +0.000 OA
BRANCH   9  11
ATOM     11  O   UNL     1      44.847   9.418  12.898  0.00  0.00    +0.000 OA
ATOM     12  H   UNL     1      43.975   9.112  13.206  0.00  0.00    +0.000 HD
ENDBRANCH   9  11
ENDBRANCH   3   9
BRANCH   6  13
ATOM     13  C   UNL     1      43.952   3.252  11.526  0.00  0.00    +0.000 C 
BRANCH  13  14
ATOM     14  O   UNL     1      43.575   3.276  10.146  0.00  0.00    +0.000 OA
BRANCH  14  15
ATOM     15  C   UNL     1      44.571   3.084   9.230  0.00  0.00    +0.000 A 
ATOM     16  C   UNL     1      45.121   4.043   8.382  0.00  0.00    +0.000 A 
ATOM     17  C   UNL     1      46.140   3.679   7.494  0.00  0.00    +0.000 A 
ATOM     18  C   UNL     1      46.580   2.361   7.483  0.00  0.00    +0.000 A 
ATOM     19  N   UNL     1      46.064   1.405   8.291  0.00  0.00    +0.000 NA
ATOM     20  C   UNL     1      45.076   1.791   9.136  0.00  0.00    +0.000 A 
BRANCH  18  21
ATOM     21  C   UNL     1      47.631   1.944   6.594  0.00  0.00    +0.000 C 
ATOM     22  N   UNL     1      48.457   1.628   5.838  0.00  0.00    +0.000 NA
ENDBRANCH  18  21
ENDBRANCH  14  15
ENDBRANCH  13  14
ENDBRANCH   6  13
TORSDOF 7
ENDMDL
MODEL 3
REMARK VINA RESULT:    -6.764      1.614      2.274
REMARK INTER + INTRA:          -9.901
REMARK INTER:                  -9.399
REMARK INTRA:                  -0.502
REMARK UNBOUND:                -0.567
REMARK  Name = 
REMARK  8 active torsions:
REMARK  status: ('A' for Active; 'I' for Inactive)
REMARK    1  A    between atoms: C_1  and  O_2
REMARK    2  A    between atoms: O_2  and  C_3
REMARK    3  A    between atoms: C_5  and  C_6
REMARK    4  A    between atoms: C_6  and  O_8
REMARK    5  A    between atoms: C_11  and  C_12
REMARK    6  A    between atoms: C_12  and  O_13
REMARK    7  A    between atoms: O_13  and  C_14
REMARK    8  A    between atoms: C_17  and  C_18
REMARK                            x       y       z     vdW  Elec       q    Type
REMARK                         _______ _______ _______ _____ _____    ______ ____
ROOT
ATOM      1  C   UNL     1      46.514   6.188  12.375  0.00  0.00    +0.000 A 
ATOM      2  C   UNL     1      47.175   5.896  13.575  0.00  0.00    +0.000 A 
ATOM      3  C   UNL     1      46.803   4.773  14.317  0.00  0.00    +0.000 A 
ATOM      4  C   UNL     1      45.753   4.000  13.850  0.00  0.00    +0.000 A 
ATOM      5  N   UNL     1      45.091   4.254  12.698  0.00  0.00    +0.000 NA
ATOM      6  C   UNL     1      45.472   5.341  11.967  0.00  0.00    +0.000 A 
ENDROOT
BRANCH   1   8
ATOM      7  C   UNL     1      47.406   8.386  12.269  0.00  0.00    +0.000 C 
ATOM      8  O   UNL     1      46.784   7.287  11.606  0.00  0.00    +0.000 OA
ENDBRANCH   1   8
BRANCH   3   9
ATOM      9  C   UNL     1      47.425   4.412  15.608  0.00  0.00    +0.000 C 
ATOM     10  O   UNL     1      47.001   3.506  16.304  0.00  0.00    +0.000 OA
BRANCH   9  11
ATOM     11  O   UNL     1      48.506   5.148  15.933  0.00  0.00    +0.000 OA
ATOM     12  H   UNL     1      49.292   5.039  15.368  0.00  0.00    +0.000 HD
ENDBRANCH   9  11
ENDBRANCH   3   9
BRANCH   6  13
ATOM     13  C   UNL     1      44.669   5.609  10.708  0.00  0.00    +0.000 C 
BRANCH  13  14
ATOM     14  O   UNL     1      44.153   4.393  10.160  0.00  0.00    +0.000 OA
BRANCH  14  15
ATOM     15  C   UNL     1      44.967   3.705   9.305  0.00  0.00    +0.000 A 
ATOM     16  C   UNL     1      45.150   2.325   9.253  0.00  0.00    +0.000 A 
ATOM     17  C   UNL     1      46.030   1.778   8.313  0.00  0.00    +0.000 A 
ATOM     18  C   UNL     1      46.703   2.633   7.447  0.00  0.00    +0.000 A 
ATOM     19  N   UNL     1      46.551   3.977   7.474  0.00  0.00    +0.000 NA
ATOM     20  C   UNL     1      45.693   4.474   8.400  0.00  0.00    +0.000 A 
BRANCH  18  21
ATOM     21  C   UNL     1      47.610   2.113   6.459  0.00  0.00    +0.000 C 
ATOM     22  N   UNL     1      48.307   1.672   5.640  0.00  0.00    +0.000 NA
ENDBRANCH  18  21
ENDBRANCH  14  15
ENDBRANCH  13  14
ENDBRANCH   6  13
TORSDOF 7
ENDMDL
MODEL 4
REMARK VINA RESULT:    -6.651      2.613      6.155
REMARK INTER + INTRA:          -9.745
REMARK INTER:                  -9.383
REMARK INTRA:                  -0.362
REMARK UNBOUND:                -0.567
REMARK  Name = 
REMARK  8 active torsions:
REMARK  status: ('A' for Active; 'I' for Inactive)
REMARK    1  A    between atoms: C_1  and  O_2
REMARK    2  A    between atoms: O_2  and  C_3
REMARK    3  A    between atoms: C_5  and  C_6
REMARK    4  A    between atoms: C_6  and  O_8
REMARK    5  A    between atoms: C_11  and  C_12
REMARK    6  A    between atoms: C_12  and  O_13
REMARK    7  A    between atoms: O_13  and  C_14
REMARK    8  A    between atoms: C_17  and  C_18
REMARK                            x       y       z     vdW  Elec       q    Type
REMARK                         _______ _______ _______ _____ _____    ______ ____
ROOT
ATOM      1  C   UNL     1      44.417   2.756   9.681  0.00  0.00    +0.000 A 
ATOM      2  C   UNL     1      45.154   1.724   9.087  0.00  0.00    +0.000 A 
ATOM      3  C   UNL     1      46.167   2.031   8.174  0.00  0.00    +0.000 A 
ATOM      4  C   UNL     1      46.381   3.362   7.858  0.00  0.00    +0.000 A 
ATOM      5  N   UNL     1      45.685   4.384   8.410  0.00  0.00    +0.000 NA
ATOM      6  C   UNL     1      44.711   4.078   9.316  0.00  0.00    +0.000 A 
ENDROOT
BRANCH   1   8
ATOM      7  C   UNL     1      43.739   2.166  11.878  0.00  0.00    +0.000 C 
ATOM      8  O   UNL     1      43.382   2.547  10.551  0.00  0.00    +0.000 OA
ENDBRANCH   1   8
BRANCH   3   9
ATOM      9  C   UNL     1      46.969   1.004   7.478  0.00  0.00    +0.000 C 
ATOM     10  O   UNL     1      47.809   1.290   6.643  0.00  0.00    +0.000 OA
BRANCH   9  11
ATOM     11  O   UNL     1      46.712  -0.261   7.862  0.00  0.00    +0.000 OA
ATOM     12  H   UNL     1      46.026  -0.738   7.360  0.00  0.00    +0.000 HD
ENDBRANCH   9  11
ENDBRANCH   3   9
BRANCH   6  13
ATOM     13  C   UNL     1      43.929   5.255   9.871  0.00  0.00    +0.000 C 
BRANCH  13  14
ATOM     14  O   UNL     1      44.016   5.300  11.299  0.00  0.00    +0.000 OA
BRANCH  14  15
ATOM     15  C   UNL     1      45.187   5.759  11.833  0.00  0.00    +0.000 A 
ATOM     16  C   UNL     1      45.972   6.803  11.350  0.00  0.00    +0.000 A 
ATOM     17  C   UNL     1      47.153   7.146  12.018  0.00  0.00    +0.000 A 
ATOM     18  C   UNL     1      47.513   6.432  13.155  0.00  0.00    +0.000 A 
ATOM     19  N   UNL     1      46.774   5.411  13.647  0.00  0.00    +0.000 NA
ATOM     20  C   UNL     1      45.638   5.102  12.973  0.00  0.00    +0.000 A 
BRANCH  18  21
ATOM     21  C   UNL     1      48.713   6.757  13.878  0.00  0.00    +0.000 C 
ATOM     22  N   UNL     1      49.676   6.982  14.490  0.00  0.00    +0.000 NA
ENDBRANCH  18  21
ENDBRANCH  14  15
ENDBRANCH  13  14
ENDBRANCH   6  13
TORSDOF 7
ENDMDL
MODEL 5
REMARK VINA RESULT:    -6.193      3.438      7.066
REMARK INTER + INTRA:          -9.113
REMARK INTER:                  -8.649
REMARK INTRA:                  -0.464
REMARK UNBOUND:                -0.567
REMARK  Name = 
REMARK  8 active torsions:
REMARK  status: ('A' for Active; 'I' for Inactive)
REMARK    1  A    between atoms: C_1  and  O_2
REMARK    2  A    between atoms: O_2  and  C_3
REMARK    3  A    between atoms: C_5  and  C_6
REMARK    4  A    between atoms: C_6  and  O_8
REMARK    5  A    between atoms: C_11  and  C_12
REMARK    6  A    between atoms: C_12  and  O_13
REMARK    7  A    between atoms: O_13  and  C_14
REMARK    8  A    between atoms: C_17  and  C_18
REMARK                            x       y       z     vdW  Elec       q    Type
REMARK                         _______ _______ _______ _____ _____    ______ ____
ROOT
ATOM      1  C   UNL     1      46.143   5.804  12.554  0.00  0.00    +0.000 A 
ATOM      2  C   UNL     1      45.455   5.398  11.405  0.00  0.00    +0.000 A 
ATOM      3  C   UNL     1      44.993   4.084  11.299  0.00  0.00    +0.000 A 
ATOM      4  C   UNL     1      45.270   3.209  12.336  0.00  0.00    +0.000 A 
ATOM      5  N   UNL     1      45.935   3.566  13.460  0.00  0.00    +0.000 NA
ATOM      6  C   UNL     1      46.366   4.856  13.565  0.00  0.00    +0.000 A 
ENDROOT
BRANCH   1   8
ATOM      7  C   UNL     1      45.728   8.118  12.887  0.00  0.00    +0.000 C 
ATOM      8  O   UNL     1      46.667   7.057  12.725  0.00  0.00    +0.000 OA
ENDBRANCH   1   8
BRANCH   3   9
ATOM      9  C   UNL     1      44.288   3.565  10.109  0.00  0.00    +0.000 C 
ATOM     10  O   UNL     1      44.077   4.254   9.126  0.00  0.00    +0.000 OA
BRANCH   9  11
ATOM     11  O   UNL     1      43.927   2.270  10.193  0.00  0.00    +0.000 OA
ATOM     12  H   UNL     1      43.004   2.059   9.963  0.00  0.00    +0.000 HD
ENDBRANCH   9  11
ENDBRANCH   3   9
BRANCH   6  13
ATOM     13  C   UNL     1      47.146   5.194  14.822  0.00  0.00    +0.000 C 
BRANCH  13  14
ATOM     14  O   UNL     1      46.938   4.207  15.836  0.00  0.00    +0.000 OA
BRANCH  14  15
ATOM     15  C   UNL     1      48.052   3.607  16.353  0.00  0.00    +0.000 A 
ATOM     16  C   UNL     1      48.901   4.122  17.329  0.00  0.00    +0.000 A 
ATOM     17  C   UNL     1      50.009   3.376  17.747  0.00  0.00    +0.000 A 
ATOM     18  C   UNL     1      50.232   2.130  17.174  0.00  0.00    +0.000 A 
ATOM     19  N   UNL     1      49.429   1.602  16.222  0.00  0.00    +0.000 NA
ATOM     20  C   UNL     1      48.367   2.354  15.837  0.00  0.00    +0.000 A 
BRANCH  18  21
ATOM     21  C   UNL     1      51.353   1.324  17.580  0.00  0.00    +0.000 C 
ATOM     22  N   UNL     1      52.281   0.713  17.924  0.00  0.00    +0.000 NA
ENDBRANCH  18  21
ENDBRANCH  14  15
ENDBRANCH  13  14
ENDBRANCH   6  13
TORSDOF 7
ENDMDL
MODEL 6
REMARK VINA RESULT:    -6.081      3.603      7.799
REMARK INTER + INTRA:          -8.958
REMARK INTER:                  -8.571
REMARK INTRA:                  -0.387
REMARK UNBOUND:                -0.567
REMARK  Name = 
REMARK  8 active torsions:
REMARK  status: ('A' for Active; 'I' for Inactive)
REMARK    1  A    between atoms: C_1  and  O_2
REMARK    2  A    between atoms: O_2  and  C_3
REMARK    3  A    between atoms: C_5  and  C_6
REMARK    4  A    between atoms: C_6  and  O_8
REMARK    5  A    between atoms: C_11  and  C_12
REMARK    6  A    between atoms: C_12  and  O_13
REMARK    7  A    between atoms: O_13  and  C_14
REMARK    8  A    between atoms: C_17  and  C_18
REMARK                            x       y       z     vdW  Elec       q    Type
REMARK                         _______ _______ _______ _____ _____    ______ ____
ROOT
ATOM      1  C   UNL     1      46.020   5.645  12.049  0.00  0.00    +0.000 A 
ATOM      2  C   UNL     1      45.431   5.283  10.831  0.00  0.00    +0.000 A 
ATOM      3  C   UNL     1      44.923   3.993  10.663  0.00  0.00    +0.000 A 
ATOM      4  C   UNL     1      45.056   3.096  11.710  0.00  0.00    +0.000 A 
ATOM      5  N   UNL     1      45.621   3.411  12.899  0.00  0.00    +0.000 NA
ATOM      6  C   UNL     1      46.098   4.679  13.063  0.00  0.00    +0.000 A 
ENDROOT
BRANCH   1   8
ATOM      7  C   UNL     1      45.681   7.918  12.646  0.00  0.00    +0.000 C 
ATOM      8  O   UNL     1      46.580   6.871  12.288  0.00  0.00    +0.000 OA
ENDBRANCH   1   8
BRANCH   3   9
ATOM      9  C   UNL     1      44.317   3.518   9.401  0.00  0.00    +0.000 C 
ATOM     10  O   UNL     1      44.351   2.348   9.063  0.00  0.00    +0.000 OA
BRANCH   9  11
ATOM     11  O   UNL     1      43.707   4.477   8.679  0.00  0.00    +0.000 OA
ATOM     12  H   UNL     1      42.740   4.547   8.776  0.00  0.00    +0.000 HD
ENDBRANCH   9  11
ENDBRANCH   3   9
BRANCH   6  13
ATOM     13  C   UNL     1      46.763   4.969  14.396  0.00  0.00    +0.000 C 
BRANCH  13  14
ATOM     14  O   UNL     1      46.966   3.765  15.142  0.00  0.00    +0.000 OA
BRANCH  14  15
ATOM     15  C   UNL     1      47.587   3.885  16.353  0.00  0.00    +0.000 A 
ATOM     16  C   UNL     1      47.627   2.933  17.369  0.00  0.00    +0.000 A 
ATOM     17  C   UNL     1      48.308   3.218  18.558  0.00  0.00    +0.000 A 
ATOM     18  C   UNL     1      48.933   4.452  18.693  0.00  0.00    +0.000 A 
ATOM     19  N   UNL     1      48.910   5.399  17.728  0.00  0.00    +0.000 NA
ATOM     20  C   UNL     1      48.238   5.092  16.590  0.00  0.00    +0.000 A 
BRANCH  18  21
ATOM     21  C   UNL     1      49.653   4.784  19.894  0.00  0.00    +0.000 C 
ATOM     22  N   UNL     1      50.250   5.007  20.867  0.00  0.00    +0.000 NA
ENDBRANCH  18  21
ENDBRANCH  14  15
ENDBRANCH  13  14
ENDBRANCH   6  13
TORSDOF 7
ENDMDL
MODEL 7
REMARK VINA RESULT:    -5.684      4.011      6.404
REMARK INTER + INTRA:          -8.410
REMARK INTER:                  -7.923
REMARK INTRA:                  -0.487
REMARK UNBOUND:                -0.567
REMARK  Name = 
REMARK  8 active torsions:
REMARK  status: ('A' for Active; 'I' for Inactive)
REMARK    1  A    between atoms: C_1  and  O_2
REMARK    2  A    between atoms: O_2  and  C_3
REMARK    3  A    between atoms: C_5  and  C_6
REMARK    4  A    between atoms: C_6  and  O_8
REMARK    5  A    between atoms: C_11  and  C_12
REMARK    6  A    between atoms: C_12  and  O_13
REMARK    7  A    between atoms: O_13  and  C_14
REMARK    8  A    between atoms: C_17  and  C_18
REMARK                            x       y       z     vdW  Elec       q    Type
REMARK                         _______ _______ _______ _____ _____    ______ ____
ROOT
ATOM      1  C   UNL     1      49.819   4.326  17.562  0.00  0.00    +0.000 A 
ATOM      2  C   UNL     1      50.949   3.593  17.945  0.00  0.00    +0.000 A 
ATOM      3  C   UNL     1      51.122   2.289  17.475  0.00  0.00    +0.000 A 
ATOM      4  C   UNL     1      50.136   1.749  16.666  0.00  0.00    +0.000 A 
ATOM      5  N   UNL     1      49.030   2.427  16.280  0.00  0.00    +0.000 NA
ATOM      6  C   UNL     1      48.877   3.708  16.726  0.00  0.00    +0.000 A 
ENDROOT
BRANCH   1   8
ATOM      7  C   UNL     1      50.355   6.637  17.470  0.00  0.00    +0.000 C 
ATOM      8  O   UNL     1      49.547   5.592  18.006  0.00  0.00    +0.000 OA
ENDBRANCH   1   8
BRANCH   3   9
ATOM      9  C   UNL     1      52.267   1.435  17.856  0.00  0.00    +0.000 C 
ATOM     10  O   UNL     1      53.415   1.842  17.841  0.00  0.00    +0.000 OA
BRANCH   9  11
ATOM     11  O   UNL     1      51.930   0.189  18.242  0.00  0.00    +0.000 OA
ATOM     12  H   UNL     1      52.658  -0.385  18.543  0.00  0.00    +0.000 HD
ENDBRANCH   9  11
ENDBRANCH   3   9
BRANCH   6  13
ATOM     13  C   UNL     1      47.599   4.409  16.303  0.00  0.00    +0.000 C 
BRANCH  13  14
ATOM     14  O   UNL     1      47.805   5.173  15.111  0.00  0.00    +0.000 OA
BRANCH  14  15
ATOM     15  C   UNL     1      46.981   4.904  14.054  0.00  0.00    +0.000 A 
ATOM     16  C   UNL     1      46.389   5.830  13.199  0.00  0.00    +0.000 A 
ATOM     17  C   UNL     1      45.563   5.384  12.161  0.00  0.00    +0.000 A 
ATOM     18  C   UNL     1      45.357   4.019  12.007  0.00  0.00    +0.000 A 
ATOM     19  N   UNL     1      45.914   3.093  12.822  0.00  0.00    +0.000 NA
ATOM     20  C   UNL     1      46.705   3.560  13.821  0.00  0.00    +0.000 A 
BRANCH  18  21
ATOM     21  C   UNL     1      44.523   3.515  10.948  0.00  0.00    +0.000 C 
ATOM     22  N   UNL     1      43.883   3.077  10.082  0.00  0.00    +0.000 NA
ENDBRANCH  18  21
ENDBRANCH  14  15
ENDBRANCH  13  14
ENDBRANCH   6  13
TORSDOF 7
ENDMDL
MODEL 8
REMARK VINA RESULT:    -5.316      4.521      6.765
REMARK INTER + INTRA:          -7.902
REMARK INTER:                  -7.480
REMARK INTRA:                  -0.422
REMARK UNBOUND:                -0.567
REMARK  Name = 
REMARK  8 active torsions:
REMARK  status: ('A' for Active; 'I' for Inactive)
REMARK    1  A    between atoms: C_1  and  O_2
REMARK    2  A    between atoms: O_2  and  C_3
REMARK    3  A    between atoms: C_5  and  C_6
REMARK    4  A    between atoms: C_6  and  O_8
REMARK    5  A    between atoms: C_11  and  C_12
REMARK    6  A    between atoms: C_12  and  O_13
REMARK    7  A    between atoms: O_13  and  C_14
REMARK    8  A    between atoms: C_17  and  C_18
REMARK                            x       y       z     vdW  Elec       q    Type
REMARK                         _______ _______ _______ _____ _____    ______ ____
ROOT
ATOM      1  C   UNL     1      49.404   4.227  17.362  0.00  0.00    +0.000 A 
ATOM      2  C   UNL     1      50.587   3.631  17.817  0.00  0.00    +0.000 A 
ATOM      3  C   UNL     1      50.918   2.339  17.403  0.00  0.00    +0.000 A 
ATOM      4  C   UNL     1      50.031   1.671  16.575  0.00  0.00    +0.000 A 
ATOM      5  N   UNL     1      48.878   2.214  16.119  0.00  0.00    +0.000 NA
ATOM      6  C   UNL     1      48.571   3.484  16.512  0.00  0.00    +0.000 A 
ENDROOT
BRANCH   1   8
ATOM      7  C   UNL     1      49.871   6.552  17.481  0.00  0.00    +0.000 C 
ATOM      8  O   UNL     1      48.981   5.470  17.748  0.00  0.00    +0.000 OA
ENDBRANCH   1   8
BRANCH   3   9
ATOM      9  C   UNL     1      52.128   1.625  17.861  0.00  0.00    +0.000 C 
ATOM     10  O   UNL     1      53.209   2.177  17.965  0.00  0.00    +0.000 OA
BRANCH   9  11
ATOM     11  O   UNL     1      51.928   0.331  18.175  0.00  0.00    +0.000 OA
ATOM     12  H   UNL     1      52.672  -0.277  18.013  0.00  0.00    +0.000 HD
ENDBRANCH   9  11
ENDBRANCH   3   9
BRANCH   6  13
ATOM     13  C   UNL     1      47.247   4.031  16.011  0.00  0.00    +0.000 C 
BRANCH  13  14
ATOM     14  O   UNL     1      47.104   3.820  14.603  0.00  0.00    +0.000 OA
BRANCH  14  15
ATOM     15  C   UNL     1      46.463   4.797  13.894  0.00  0.00    +0.000 A 
ATOM     16  C   UNL     1      45.153   4.764  13.423  0.00  0.00    +0.000 A 
ATOM     17  C   UNL     1      44.647   5.854  12.705  0.00  0.00    +0.000 A 
ATOM     18  C   UNL     1      45.471   6.950  12.483  0.00  0.00    +0.000 A 
ATOM     19  N   UNL     1      46.749   7.013  12.923  0.00  0.00    +0.000 NA
ATOM     20  C   UNL     1      47.208   5.937  13.612  0.00  0.00    +0.000 A 
BRANCH  18  21
ATOM     21  C   UNL     1      44.991   8.096  11.758  0.00  0.00    +0.000 C 
ATOM     22  N   UNL     1      44.560   9.016  11.192  0.00  0.00    +0.000 NA
ENDBRANCH  18  21
ENDBRANCH  14  15
ENDBRANCH  13  14
ENDBRANCH   6  13
TORSDOF 7
ENDMDL
MODEL 9
REMARK VINA RESULT:    -5.207      3.709      6.310
REMARK INTER + INTRA:          -7.753
REMARK INTER:                  -7.256
REMARK INTRA:                  -0.496
REMARK UNBOUND:                -0.567
REMARK  Name = 
REMARK  8 active torsions:
REMARK  status: ('A' for Active; 'I' for Inactive)
REMARK    1  A    between atoms: C_1  and  O_2
REMARK    2  A    between atoms: O_2  and  C_3
REMARK    3  A    between atoms: C_5  and  C_6
REMARK    4  A    between atoms: C_6  and  O_8
REMARK    5  A    between atoms: C_11  and  C_12
REMARK    6  A    between atoms: C_12  and  O_13
REMARK    7  A    between atoms: O_13  and  C_14
REMARK    8  A    between atoms: C_17  and  C_18
REMARK                            x       y       z     vdW  Elec       q    Type
REMARK                         _______ _______ _______ _____ _____    ______ ____
ROOT
ATOM      1  C   UNL     1      48.933   4.716  17.114  0.00  0.00    +0.000 A 
ATOM      2  C   UNL     1      49.933   4.108  17.882  0.00  0.00    +0.000 A 
ATOM      3  C   UNL     1      51.243   4.588  17.823  0.00  0.00    +0.000 A 
ATOM      4  C   UNL     1      51.516   5.640  16.963  0.00  0.00    +0.000 A 
ATOM      5  N   UNL     1      50.575   6.249  16.204  0.00  0.00    +0.000 NA
ATOM      6  C   UNL     1      49.293   5.788  16.283  0.00  0.00    +0.000 A 
ENDROOT
BRANCH   1   8
ATOM      7  C   UNL     1      47.395   2.957  17.535  0.00  0.00    +0.000 C 
ATOM      8  O   UNL     1      47.634   4.287  17.079  0.00  0.00    +0.000 OA
ENDBRANCH   1   8
BRANCH   3   9
ATOM      9  C   UNL     1      52.363   3.984  18.574  0.00  0.00    +0.000 C 
ATOM     10  O   UNL     1      53.248   4.655  19.075  0.00  0.00    +0.000 OA
BRANCH   9  11
ATOM     11  O   UNL     1      52.308   2.642  18.677  0.00  0.00    +0.000 OA
ATOM     12  H   UNL     1      52.971   2.221  19.254  0.00  0.00    +0.000 HD
ENDBRANCH   9  11
ENDBRANCH   3   9
BRANCH   6  13
ATOM     13  C   UNL     1      48.285   6.473  15.379  0.00  0.00    +0.000 C 
BRANCH  13  14
ATOM     14  O   UNL     1      48.473   6.087  14.014  0.00  0.00    +0.000 OA
BRANCH  14  15
ATOM     15  C   UNL     1      47.391   5.564  13.365  0.00  0.00    +0.000 A 
ATOM     16  C   UNL     1      46.725   6.115  12.273  0.00  0.00    +0.000 A 
ATOM     17  C   UNL     1      45.623   5.448  11.725  0.00  0.00    +0.000 A 
ATOM     18  C   UNL     1      45.221   4.242  12.289  0.00  0.00    +0.000 A 
ATOM     19  N   UNL     1      45.843   3.682  13.351  0.00  0.00    +0.000 NA
ATOM     20  C   UNL     1      46.905   4.357  13.860  0.00  0.00    +0.000 A 
BRANCH  18  21
ATOM     21  C   UNL     1      44.100   3.518  11.752  0.00  0.00    +0.000 C 
ATOM     22  N   UNL     1      43.209   2.894  11.341  0.00  0.00    +0.000 NA
ENDBRANCH  18  21
ENDBRANCH  14  15
ENDBRANCH  13  14
ENDBRANCH   6  13
TORSDOF 7
ENDMDL
