MODEL 1
REMARK VINA RESULT:    -7.130      0.000      0.000
REMARK INTER + INTRA:          -9.536
REMARK INTER:                  -9.006
REMARK INTRA:                  -0.530
REMARK UNBOUND:                -0.530
REMARK  Name = 
REMARK  5 active torsions:
REMARK  status: ('A' for Active; 'I' for Inactive)
REMARK    1  A    between atoms: N_1  and  C_2
REMARK    2  A    between atoms: C_2  and  C_3
REMARK    3  A    between atoms: C_3  and  C_4
REMARK    4  A    between atoms: C_8  and  C_9
REMARK    5  A    between atoms: C_9  and  N_10
REMARK                            x       y       z     vdW  Elec       q    Type
REMARK                         _______ _______ _______ _____ _____    ______ ____
ROOT
ATOM      1  C   UNL     1      45.420   5.332  12.469  0.00  0.00    +0.000 A 
ATOM      2  C   UNL     1      44.271   5.399  13.252  0.00  0.00    +0.000 A 
ATOM      3  C   UNL     1      43.042   5.128  12.661  0.00  0.00    +0.000 A 
ATOM      4  C   UNL     1      42.991   4.811  11.308  0.00  0.00    +0.000 A 
ATOM      5  C   UNL     1      44.172   4.803  10.569  0.00  0.00    +0.000 A 
ATOM      6  N   UNL     1      45.383   5.059  11.139  0.00  0.00    +0.000 NA
ENDROOT
BRANCH   1   7
ATOM      7  C   UNL     1      46.779   5.526  13.097  0.00  0.00    +0.000 C 
BRANCH   7   8
ATOM      8  C   UNL     1      46.968   4.684  14.359  0.00  0.00    +0.000 C 
BRANCH   8   9
ATOM      9  N   UNL     1      47.216   3.280  14.017  0.00  0.00    +0.000 NA
ATOM     10  H   UNL     1      47.801   3.236  13.183  0.00  0.00    +0.000 HD
ATOM     11  H   UNL     1      46.331   2.833  13.766  0.00  0.00    +0.000 HD
ENDBRANCH   8   9
ENDBRANCH   7   8
ENDBRANCH   1   7
BRANCH   5  12
ATOM     12  C   UNL     1      44.159   4.469   9.097  0.00  0.00    +0.000 C 
BRANCH  12  13
ATOM     13  N   UNL     1      44.831   3.204   8.833  0.00  0.00    +0.000 N 
ATOM     14  N   UNL     1      44.352   2.067   9.397  0.00  0.00    +0.000 NA
ATOM     15  C   UNL     1      45.113   1.111   8.859  0.00  0.00    +0.000 A 
ATOM     16  C   UNL     1      46.096   1.619   7.983  0.00  0.00    +0.000 A 
ATOM     17  C   UNL     1      47.104   1.069   7.171  0.00  0.00    +0.000 A 
ATOM     18  C   UNL     1      47.908   1.932   6.418  0.00  0.00    +0.000 A 
ATOM     19  C   UNL     1      47.731   3.314   6.484  0.00  0.00    +0.000 A 
ATOM     20  C   UNL     1      46.733   3.878   7.285  0.00  0.00    +0.000 A 
ATOM     21  C   UNL     1      45.919   2.999   8.016  0.00  0.00    +0.000 A 
ENDBRANCH  12  13
ENDBRANCH   5  12
TORSDOF 5
ENDMDL
MODEL 2
REMARK VINA RESULT:    -6.998      1.825      5.940
REMARK INTER + INTRA:          -9.369
REMARK INTER:                  -8.996
REMARK INTRA:                  -0.373
REMARK UNBOUND:                -0.530
REMARK  Name = 
REMARK  5 active torsions:
REMARK  status: ('A' for Active; 'I' for Inactive)
REMARK    1  A    between atoms: N_1  and  C_2
REMARK    2  A    between atoms: C_2  and  C_3
REMARK    3  A    between atoms: C_3  and  C_4
REMARK    4  A    between atoms: C_8  and  C_9
REMARK    5  A    between atoms: C_9  and  N_10
REMARK                            x       y       z     vdW  Elec       q    Type
REMARK                         _______ _______ _______ _____ _____    ______ ____
ROOT
ATOM      1  C   UNL     1      46.071   3.391   7.782  0.00  0.00    +0.000 A 
ATOM      2  C   UNL     1      45.660   2.091   8.066  0.00  0.00    +0.000 A 
ATOM      3  C   UNL     1      44.841   1.874   9.168  0.00  0.00    +0.000 A 
ATOM      4  C   UNL     1      44.464   2.952   9.961  0.00  0.00    +0.000 A 
ATOM      5  C   UNL     1      44.944   4.223   9.649  0.00  0.00    +0.000 A 
ATOM      6  N   UNL     1      45.740   4.449   8.567  0.00  0.00    +0.000 NA
ENDROOT
BRANCH   1   7
ATOM      7  C   UNL     1      46.880   3.676   6.540  0.00  0.00    +0.000 C 
BRANCH   7   8
ATOM      8  C   UNL     1      47.071   2.437   5.666  0.00  0.00    +0.000 C 
BRANCH   8   9
ATOM      9  N   UNL     1      48.443   1.931   5.770  0.00  0.00    +0.000 NA
ATOM     10  H   UNL     1      48.420   0.953   6.058  0.00  0.00    +0.000 HD
ATOM     11  H   UNL     1      48.932   2.433   6.515  0.00  0.00    +0.000 HD
ENDBRANCH   8   9
ENDBRANCH   7   8
ENDBRANCH   1   7
BRANCH   5  12
ATOM     12  C   UNL     1      44.563   5.419  10.487  0.00  0.00    +0.000 C 
BRANCH  12  13
ATOM     13  N   UNL     1      45.256   5.415  11.768  0.00  0.00    +0.000 N 
ATOM     14  N   UNL     1      44.767   4.660  12.785  0.00  0.00    +0.000 NA
ATOM     15  C   UNL     1      45.690   4.795  13.740  0.00  0.00    +0.000 A 
ATOM     16  C   UNL     1      46.747   5.652  13.366  0.00  0.00    +0.000 A 
ATOM     17  C   UNL     1      47.937   6.105  13.963  0.00  0.00    +0.000 A 
ATOM     18  C   UNL     1      48.758   6.984  13.247  0.00  0.00    +0.000 A 
ATOM     19  C   UNL     1      48.397   7.422  11.973  0.00  0.00    +0.000 A 
ATOM     20  C   UNL     1      47.218   6.980  11.364  0.00  0.00    +0.000 A 
ATOM     21  C   UNL     1      46.417   6.081  12.083  0.00  0.00    +0.000 A 
ENDBRANCH  12  13
ENDBRANCH   5  12
TORSDOF 5
ENDMDL
MODEL 3
REMARK VINA RESULT:    -6.882      1.738      2.502
REMARK INTER + INTRA:          -9.223
REMARK INTER:                  -8.700
REMARK INTRA:                  -0.523
REMARK UNBOUND:                -0.530
REMARK  Name = 
REMARK  5 active torsions:
REMARK  status: ('A' for Active; 'I' for Inactive)
REMARK    1  A    between atoms: N_1  and  C_2
REMARK    2  A    between atoms: C_2  and  C_3
REMARK    3  A    between atoms: C_3  and  C_4
REMARK    4  A    between atoms: C_8  and  C_9
REMARK    5  A    between atoms: C_9  and  N_10
REMARK                            x       y       z     vdW  Elec       q    Type
REMARK                         _______ _______ _______ _____ _____    ______ ____
ROOT
ATOM      1  C   UNL     1      46.570   6.523  13.053  0.00  0.00    +0.000 A 
ATOM      2  C   UNL     1      46.762   7.892  12.883  0.00  0.00    +0.000 A 
ATOM      3  C   UNL     1      45.840   8.607  12.127  0.00  0.00    +0.000 A 
ATOM      4  C   UNL     1      44.763   7.940  11.555  0.00  0.00    +0.000 A 
ATOM      5  C   UNL     1      44.650   6.562  11.727  0.00  0.00    +0.000 A 
ATOM      6  N   UNL     1      45.542   5.852  12.473  0.00  0.00    +0.000 NA
ENDROOT
BRANCH   1   7
ATOM      7  C   UNL     1      47.496   5.733  13.946  0.00  0.00    +0.000 C 
BRANCH   7   8
ATOM      8  C   UNL     1      46.800   4.547  14.613  0.00  0.00    +0.000 C 
BRANCH   8   9
ATOM      9  N   UNL     1      47.201   3.285  13.984  0.00  0.00    +0.000 NA
ATOM     10  H   UNL     1      46.505   2.569  14.193  0.00  0.00    +0.000 HD
ATOM     11  H   UNL     1      48.074   2.961  14.406  0.00  0.00    +0.000 HD
ENDBRANCH   8   9
ENDBRANCH   7   8
ENDBRANCH   1   7
BRANCH   5  12
ATOM     12  C   UNL     1      43.498   5.799  11.119  0.00  0.00    +0.000 C 
BRANCH  12  13
ATOM     13  N   UNL     1      43.874   4.428  10.804  0.00  0.00    +0.000 N 
ATOM     14  N   UNL     1      43.361   3.412  11.542  0.00  0.00    +0.000 NA
ATOM     15  C   UNL     1      43.809   2.320  10.918  0.00  0.00    +0.000 A 
ATOM     16  C   UNL     1      44.631   2.618   9.810  0.00  0.00    +0.000 A 
ATOM     17  C   UNL     1      45.318   1.874   8.835  0.00  0.00    +0.000 A 
ATOM     18  C   UNL     1      46.055   2.557   7.861  0.00  0.00    +0.000 A 
ATOM     19  C   UNL     1      46.125   3.950   7.864  0.00  0.00    +0.000 A 
ATOM     20  C   UNL     1      45.447   4.706   8.825  0.00  0.00    +0.000 A 
ATOM     21  C   UNL     1      44.693   4.009   9.781  0.00  0.00    +0.000 A 
ENDBRANCH  12  13
ENDBRANCH   5  12
TORSDOF 5
ENDMDL
MODEL 4
REMARK VINA RESULT:    -6.555      1.543      2.758
REMARK INTER + INTRA:          -8.809
REMARK INTER:                  -8.171
REMARK INTRA:                  -0.637
REMARK UNBOUND:                -0.530
REMARK  Name = 
REMARK  5 active torsions:
REMARK  status: ('A' for Active; 'I' for Inactive)
REMARK    1  A    between atoms: N_1  and  C_2
REMARK    2  A    between atoms: C_2  and  C_3
REMARK    3  A    between atoms: C_3  and  C_4
REMARK    4  A    between atoms: C_8  and  C_9
REMARK    5  A    between atoms: C_9  and  N_10
REMARK                            x       y       z     vdW  Elec       q    Type
REMARK                         _______ _______ _______ _____ _____    ______ ____
ROOT
ATOM      1  C   UNL     1      46.547   5.825  12.626  0.00  0.00    +0.000 A 
ATOM      2  C   UNL     1      46.755   4.878  13.626  0.00  0.00    +0.000 A 
ATOM      3  C   UNL     1      46.221   3.604  13.461  0.00  0.00    +0.000 A 
ATOM      4  C   UNL     1      45.490   3.314  12.315  0.00  0.00    +0.000 A 
ATOM      5  C   UNL     1      45.281   4.319  11.372  0.00  0.00    +0.000 A 
ATOM      6  N   UNL     1      45.806   5.568  11.518  0.00  0.00    +0.000 NA
ENDROOT
BRANCH   1   7
ATOM      7  C   UNL     1      47.192   7.187  12.726  0.00  0.00    +0.000 C 
BRANCH   7   8
ATOM      8  C   UNL     1      46.281   8.306  12.222  0.00  0.00    +0.000 C 
BRANCH   8   9
ATOM      9  N   UNL     1      44.926   8.160  12.763  0.00  0.00    +0.000 NA
ATOM     10  H   UNL     1      44.530   9.085  12.933  0.00  0.00    +0.000 HD
ATOM     11  H   UNL     1      44.975   7.701  13.675  0.00  0.00    +0.000 HD
ENDBRANCH   8   9
ENDBRANCH   7   8
ENDBRANCH   1   7
BRANCH   5  12
ATOM     12  C   UNL     1      44.489   4.046  10.116  0.00  0.00    +0.000 C 
BRANCH  12  13
ATOM     13  N   UNL     1      45.358   3.917   8.955  0.00  0.00    +0.000 N 
ATOM     14  N   UNL     1      45.823   5.037   8.346  0.00  0.00    +0.000 NA
ATOM     15  C   UNL     1      46.662   4.561   7.423  0.00  0.00    +0.000 A 
ATOM     16  C   UNL     1      46.718   3.151   7.406  0.00  0.00    +0.000 A 
ATOM     17  C   UNL     1      47.424   2.178   6.676  0.00  0.00    +0.000 A 
ATOM     18  C   UNL     1      47.199   0.827   6.961  0.00  0.00    +0.000 A 
ATOM     19  C   UNL     1      46.276   0.446   7.935  0.00  0.00    +0.000 A 
ATOM     20  C   UNL     1      45.566   1.399   8.672  0.00  0.00    +0.000 A 
ATOM     21  C   UNL     1      45.820   2.750   8.392  0.00  0.00    +0.000 A 
ENDBRANCH  12  13
ENDBRANCH   5  12
TORSDOF 5
ENDMDL
MODEL 5
REMARK VINA RESULT:    -6.199      1.381      1.917
REMARK INTER + INTRA:          -8.359
REMARK INTER:                  -8.057
REMARK INTRA:                  -0.303
REMARK UNBOUND:                -0.530
REMARK  Name = 
REMARK  5 active torsions:
REMARK  status: ('A' for Active; 'I' for Inactive)
REMARK    1  A    between atoms: N_1  and  C_2
REMARK    2  A    between atoms: C_2  and  C_3
REMARK    3  A    between atoms: C_3  and  C_4
REMARK    4  A    between atoms: C_8  and  C_9
REMARK    5  A    between atoms: C_9  and  N_10
REMARK                            x       y       z     vdW  Elec       q    Type
REMARK                         _______ _______ _______ _____ _____    ______ ____
ROOT
ATOM      1  C   UNL     1      44.911   5.949  12.330  0.00  0.00    +0.000 A 
ATOM      2  C   UNL     1      44.141   5.245  13.252  0.00  0.00    +0.000 A 
ATOM      3  C   UNL     1      43.345   4.199  12.797  0.00  0.00    +0.000 A 
ATOM      4  C   UNL     1      43.330   3.893  11.441  0.00  0.00    +0.000 A 
ATOM      5  C   UNL     1      44.090   4.664  10.564  0.00  0.00    +0.000 A 
ATOM      6  N   UNL     1      44.880   5.686  10.998  0.00  0.00    +0.000 NA
ENDROOT
BRANCH   1   7
ATOM      7  C   UNL     1      45.858   7.027  12.800  0.00  0.00    +0.000 C 
BRANCH   7   8
ATOM      8  C   UNL     1      45.776   8.294  11.949  0.00  0.00    +0.000 C 
BRANCH   8   9
ATOM      9  N   UNL     1      44.396   8.784  11.875  0.00  0.00    +0.000 NA
ATOM     10  H   UNL     1      43.778   8.012  11.627  0.00  0.00    +0.000 HD
ATOM     11  H   UNL     1      44.320   9.463  11.115  0.00  0.00    +0.000 HD
ENDBRANCH   8   9
ENDBRANCH   7   8
ENDBRANCH   1   7
BRANCH   5  12
ATOM     12  C   UNL     1      44.098   4.368   9.083  0.00  0.00    +0.000 C 
BRANCH  12  13
ATOM     13  N   UNL     1      44.841   3.151   8.788  0.00  0.00    +0.000 N 
ATOM     14  N   UNL     1      44.433   1.976   9.329  0.00  0.00    +0.000 NA
ATOM     15  C   UNL     1      45.246   1.079   8.765  0.00  0.00    +0.000 A 
ATOM     16  C   UNL     1      46.192   1.663   7.897  0.00  0.00    +0.000 A 
ATOM     17  C   UNL     1      47.226   1.192   7.068  0.00  0.00    +0.000 A 
ATOM     18  C   UNL     1      47.973   2.117   6.331  0.00  0.00    +0.000 A 
ATOM     19  C   UNL     1      47.715   3.485   6.429  0.00  0.00    +0.000 A 
ATOM     20  C   UNL     1      46.691   3.971   7.248  0.00  0.00    +0.000 A 
ATOM     21  C   UNL     1      45.934   3.029   7.962  0.00  0.00    +0.000 A 
ENDBRANCH  12  13
ENDBRANCH   5  12
TORSDOF 5
ENDMDL
MODEL 6
REMARK VINA RESULT:    -6.031      1.865      2.720
REMARK INTER + INTRA:          -8.148
REMARK INTER:                  -7.419
REMARK INTRA:                  -0.728
REMARK UNBOUND:                -0.530
REMARK  Name = 
REMARK  5 active torsions:
REMARK  status: ('A' for Active; 'I' for Inactive)
REMARK    1  A    between atoms: N_1  and  C_2
REMARK    2  A    between atoms: C_2  and  C_3
REMARK    3  A    between atoms: C_3  and  C_4
REMARK    4  A    between atoms: C_8  and  C_9
REMARK    5  A    between atoms: C_9  and  N_10
REMARK                            x       y       z     vdW  Elec       q    Type
REMARK                         _______ _______ _______ _____ _____    ______ ____
ROOT
ATOM      1  C   UNL     1      46.956   6.795  12.565  0.00  0.00    +0.000 A 
ATOM      2  C   UNL     1      47.245   6.035  13.696  0.00  0.00    +0.000 A 
ATOM      3  C   UNL     1      46.490   4.894  13.946  0.00  0.00    +0.000 A 
ATOM      4  C   UNL     1      45.464   4.550  13.073  0.00  0.00    +0.000 A 
ATOM      5  C   UNL     1      45.196   5.377  11.983  0.00  0.00    +0.000 A 
ATOM      6  N   UNL     1      45.935   6.491  11.723  0.00  0.00    +0.000 NA
ENDROOT
BRANCH   1   7
ATOM      7  C   UNL     1      47.815   7.984  12.210  0.00  0.00    +0.000 C 
BRANCH   7   8
ATOM      8  C   UNL     1      47.446   9.235  13.008  0.00  0.00    +0.000 C 
BRANCH   8   9
ATOM      9  N   UNL     1      45.995   9.443  13.010  0.00  0.00    +0.000 NA
ATOM     10  H   UNL     1      45.735   9.984  13.835  0.00  0.00    +0.000 HD
ATOM     11  H   UNL     1      45.526   8.540  13.105  0.00  0.00    +0.000 HD
ENDBRANCH   8   9
ENDBRANCH   7   8
ENDBRANCH   1   7
BRANCH   5  12
ATOM     12  C   UNL     1      44.088   5.041  11.014  0.00  0.00    +0.000 C 
BRANCH  12  13
ATOM     13  N   UNL     1      44.420   3.875  10.208  0.00  0.00    +0.000 N 
ATOM     14  N   UNL     1      43.835   2.684  10.489  0.00  0.00    +0.000 NA
ATOM     15  C   UNL     1      44.265   1.890   9.505  0.00  0.00    +0.000 A 
ATOM     16  C   UNL     1      45.144   2.543   8.616  0.00  0.00    +0.000 A 
ATOM     17  C   UNL     1      45.842   2.189   7.447  0.00  0.00    +0.000 A 
ATOM     18  C   UNL     1      46.647   3.151   6.826  0.00  0.00    +0.000 A 
ATOM     19  C   UNL     1      46.775   4.432   7.364  0.00  0.00    +0.000 A 
ATOM     20  C   UNL     1      46.087   4.801   8.525  0.00  0.00    +0.000 A 
ATOM     21  C   UNL     1      45.265   3.833   9.123  0.00  0.00    +0.000 A 
ENDBRANCH  12  13
ENDBRANCH   5  12
TORSDOF 5
ENDMDL
MODEL 7
REMARK VINA RESULT:    -5.849      2.421      4.049
REMARK INTER + INTRA:          -7.917
REMARK INTER:                  -7.159
REMARK INTRA:                  -0.758
REMARK UNBOUND:                -0.530
REMARK  Name = 
REMARK  5 active torsions:
REMARK  status: ('A' for Active; 'I' for Inactive)
REMARK    1  A    between atoms: N_1  and  C_2
REMARK    2  A    between atoms: C_2  and  C_3
REMARK    3  A    between atoms: C_3  and  C_4
REMARK    4  A    between atoms: C_8  and  C_9
REMARK    5  A    between atoms: C_9  and  N_10
REMARK                            x       y       z     vdW  Elec       q    Type
REMARK                         _______ _______ _______ _____ _____    ______ ____
ROOT
ATOM      1  C   UNL     1      48.432   7.243  14.108  0.00  0.00    +0.000 A 
ATOM      2  C   UNL     1      49.493   7.410  13.222  0.00  0.00    +0.000 A 
ATOM      3  C   UNL     1      49.227   7.418  11.856  0.00  0.00    +0.000 A 
ATOM      4  C   UNL     1      47.921   7.249  11.415  0.00  0.00    +0.000 A 
ATOM      5  C   UNL     1      46.910   7.043  12.351  0.00  0.00    +0.000 A 
ATOM      6  N   UNL     1      47.156   7.042  13.692  0.00  0.00    +0.000 NA
ENDROOT
BRANCH   1   7
ATOM      7  C   UNL     1      48.669   7.325  15.597  0.00  0.00    +0.000 C 
BRANCH   7   8
ATOM      8  C   UNL     1      48.794   5.948  16.249  0.00  0.00    +0.000 C 
BRANCH   8   9
ATOM      9  N   UNL     1      47.996   4.954  15.525  0.00  0.00    +0.000 NA
ATOM     10  H   UNL     1      47.117   5.379  15.229  0.00  0.00    +0.000 HD
ATOM     11  H   UNL     1      47.743   4.196  16.163  0.00  0.00    +0.000 HD
ENDBRANCH   8   9
ENDBRANCH   7   8
ENDBRANCH   1   7
BRANCH   5  12
ATOM     12  C   UNL     1      45.478   6.851  11.913  0.00  0.00    +0.000 C 
BRANCH  12  13
ATOM     13  N   UNL     1      45.163   5.442  11.723  0.00  0.00    +0.000 N 
ATOM     14  N   UNL     1      44.732   4.710  12.780  0.00  0.00    +0.000 NA
ATOM     15  C   UNL     1      44.431   3.529  12.235  0.00  0.00    +0.000 A 
ATOM     16  C   UNL     1      44.695   3.479  10.850  0.00  0.00    +0.000 A 
ATOM     17  C   UNL     1      44.549   2.523   9.829  0.00  0.00    +0.000 A 
ATOM     18  C   UNL     1      44.939   2.862   8.528  0.00  0.00    +0.000 A 
ATOM     19  C   UNL     1      45.483   4.116   8.248  0.00  0.00    +0.000 A 
ATOM     20  C   UNL     1      45.634   5.079   9.251  0.00  0.00    +0.000 A 
ATOM     21  C   UNL     1      45.216   4.734  10.545  0.00  0.00    +0.000 A 
ENDBRANCH  12  13
ENDBRANCH   5  12
TORSDOF 5
ENDMDL
MODEL 8
REMARK VINA RESULT:    -5.721      2.614      6.090
REMARK INTER + INTRA:          -7.756
REMARK INTER:                  -7.329
REMARK INTRA:                  -0.427
REMARK UNBOUND:                -0.530
REMARK  Name = 
REMARK  5 active torsions:
REMARK  status: ('A' for Active; 'I' for Inactive)
REMARK    1  A    between atoms: N_1  and  C_2
REMARK    2  A    between atoms: C_2  and  C_3
REMARK    3  A    between atoms: C_3  and  C_4
REMARK    4  A    between atoms: C_8  and  C_9
REMARK    5  A    between atoms: C_9  and  N_10
REMARK                            x       y       z     vdW  Elec       q    Type
REMARK                         _______ _______ _______ _____ _____    ______ ____
ROOT
ATOM      1  C   UNL     1      44.449   4.059  10.015  0.00  0.00    +0.000 A 
ATOM      2  C   UNL     1      43.890   2.915  10.579  0.00  0.00    +0.000 A 
ATOM      3  C   UNL     1      43.584   2.921  11.936  0.00  0.00    +0.000 A 
ATOM      4  C   UNL     1      43.853   4.055  12.692  0.00  0.00    +0.000 A 
ATOM      5  C   UNL     1      44.453   5.152  12.077  0.00  0.00    +0.000 A 
ATOM      6  N   UNL     1      44.750   5.163  10.747  0.00  0.00    +0.000 NA
ENDROOT
BRANCH   1   7
ATOM      7  C   UNL     1      44.705   4.124   8.529  0.00  0.00    +0.000 C 
BRANCH   7   8
ATOM      8  C   UNL     1      46.071   3.558   8.142  0.00  0.00    +0.000 C 
BRANCH   8   9
ATOM      9  N   UNL     1      46.355   3.799   6.725  0.00  0.00    +0.000 NA
ATOM     10  H   UNL     1      45.512   3.621   6.178  0.00  0.00    +0.000 HD
ATOM     11  H   UNL     1      47.050   3.124   6.400  0.00  0.00    +0.000 HD
ENDBRANCH   8   9
ENDBRANCH   7   8
ENDBRANCH   1   7
BRANCH   5  12
ATOM     12  C   UNL     1      44.766   6.403  12.863  0.00  0.00    +0.000 C 
BRANCH  12  13
ATOM     13  N   UNL     1      46.187   6.719  12.818  0.00  0.00    +0.000 N 
ATOM     14  N   UNL     1      47.093   5.749  13.100  0.00  0.00    +0.000 NA
ATOM     15  C   UNL     1      48.264   6.339  12.850  0.00  0.00    +0.000 A 
ATOM     16  C   UNL     1      48.127   7.684  12.446  0.00  0.00    +0.000 A 
ATOM     17  C   UNL     1      49.002   8.715  12.060  0.00  0.00    +0.000 A 
ATOM     18  C   UNL     1      48.466   9.961  11.717  0.00  0.00    +0.000 A 
ATOM     19  C   UNL     1      47.090  10.188  11.776  0.00  0.00    +0.000 A 
ATOM     20  C   UNL     1      46.206   9.174  12.157  0.00  0.00    +0.000 A 
ATOM     21  C   UNL     1      46.756   7.923  12.475  0.00  0.00    +0.000 A 
ENDBRANCH  12  13
ENDBRANCH   5  12
TORSDOF 5
ENDMDL
MODEL 9
REMARK VINA RESULT:    -5.585      1.962      5.932
REMARK INTER + INTRA:          -7.584
REMARK INTER:                  -7.482
REMARK INTRA:                  -0.102
REMARK UNBOUND:                -0.530
REMARK  Name = 
REMARK  5 active torsions:
REMARK  status: ('A' for Active; 'I' for Inactive)
REMARK    1  A    between atoms: N_1  and  C_2
REMARK    2  A    between atoms: C_2  and  C_3
REMARK    3  A    between atoms: C_3  and  C_4
REMARK    4  A    between atoms: C_8  and  C_9
REMARK    5  A    between atoms: C_9  and  N_10
REMARK                            x       y       z     vdW  Elec       q    Type
REMARK                         _______ _______ _______ _____ _____    ______ ____
ROOT
ATOM      1  C   UNL     1      44.601   3.496   9.529  0.00  0.00    +0.000 A 
ATOM      2  C   UNL     1      44.186   2.376  10.246  0.00  0.00    +0.000 A 
ATOM      3  C   UNL     1      43.442   2.563  11.406  0.00  0.00    +0.000 A 
ATOM      4  C   UNL     1      43.143   3.854  11.824  0.00  0.00    +0.000 A 
ATOM      5  C   UNL     1      43.624   4.934  11.086  0.00  0.00    +0.000 A 
ATOM      6  N   UNL     1      44.346   4.764   9.943  0.00  0.00    +0.000 NA
ENDROOT
BRANCH   1   7
ATOM      7  C   UNL     1      45.326   3.329   8.216  0.00  0.00    +0.000 C 
BRANCH   7   8
ATOM      8  C   UNL     1      46.082   2.003   8.126  0.00  0.00    +0.000 C 
BRANCH   8   9
ATOM      9  N   UNL     1      47.264   2.133   7.269  0.00  0.00    +0.000 NA
ATOM     10  H   UNL     1      46.971   2.151   6.293  0.00  0.00    +0.000 HD
ATOM     11  H   UNL     1      47.849   1.301   7.374  0.00  0.00    +0.000 HD
ENDBRANCH   8   9
ENDBRANCH   7   8
ENDBRANCH   1   7
BRANCH   5  12
ATOM     12  C   UNL     1      43.325   6.353  11.508  0.00  0.00    +0.000 C 
BRANCH  12  13
ATOM     13  N   UNL     1      44.545   7.081  11.828  0.00  0.00    +0.000 N 
ATOM     14  N   UNL     1      44.690   8.358  11.393  0.00  0.00    +0.000 NA
ATOM     15  C   UNL     1      45.837   8.747  11.954  0.00  0.00    +0.000 A 
ATOM     16  C   UNL     1      46.450   7.729  12.715  0.00  0.00    +0.000 A 
ATOM     17  C   UNL     1      47.612   7.616  13.498  0.00  0.00    +0.000 A 
ATOM     18  C   UNL     1      47.890   6.394  14.121  0.00  0.00    +0.000 A 
ATOM     19  C   UNL     1      47.043   5.298  13.953  0.00  0.00    +0.000 A 
ATOM     20  C   UNL     1      45.882   5.392  13.180  0.00  0.00    +0.000 A 
ATOM     21  C   UNL     1      45.604   6.631  12.582  0.00  0.00    +0.000 A 
ENDBRANCH  12  13
ENDBRANCH   5  12
TORSDOF 5
ENDMDL
