MODEL 1
REMARK VINA RESULT:    -8.468      0.000      0.000
REMARK INTER + INTRA:         -11.266
REMARK INTER:                 -10.695
REMARK INTRA:                  -0.570
REMARK UNBOUND:                -0.570
REMARK  Name = 
REMARK  6 active torsions:
REMARK  status: ('A' for Active; 'I' for Inactive)
REMARK    1  A    between atoms: C_1  and  C_2
REMARK    2  A    between atoms: C_2  and  O_3
REMARK    3  A    between atoms: C_2  and  C_13
REMARK    4  A    between atoms: O_3  and  C_4
REMARK    5  A    between atoms: C_7  and  C_8
REMARK    6  A    between atoms: C_16  and  O_17
REMARK                            x       y       z     vdW  Elec       q    Type
REMARK                         _______ _______ _______ _____ _____    ______ ____
ROOT
ATOM      1  O   UNL     1      43.745   4.844   9.801  0.00  0.00    +0.000 OA
ENDROOT
BRANCH   1   2
ATOM      2  C   UNL     1      44.657   4.061   9.128  0.00  0.00    +0.000 A 
ATOM      3  C   UNL     1      44.571   2.694   9.337  0.00  0.00    +0.000 A 
ATOM      4  C   UNL     1      45.459   1.858   8.660  0.00  0.00    +0.000 A 
ATOM      5  C   UNL     1      46.403   2.409   7.789  0.00  0.00    +0.000 A 
ATOM      6  C   UNL     1      46.411   3.791   7.656  0.00  0.00    +0.000 A 
ATOM      7  N   UNL     1      45.564   4.629   8.308  0.00  0.00    +0.000 NA
BRANCH   5   8
ATOM      8  C   UNL     1      47.332   1.509   7.064  0.00  0.00    +0.000 C 
ATOM      9  N   UNL     1      48.410   2.044   6.415  0.00  0.00    +0.000 N 
ATOM     10  O   UNL     1      47.142   0.297   7.035  0.00  0.00    +0.000 OA
ATOM     11  H   UNL     1      48.652   3.019   6.356  0.00  0.00    +0.000 HD
ATOM     12  H   UNL     1      49.009   1.388   5.926  0.00  0.00    +0.000 HD
ENDBRANCH   5   8
ENDBRANCH   1   2
BRANCH   1  14
ATOM     13  C   UNL     1      42.405   5.346  11.755  0.00  0.00    +0.000 C 
ATOM     14  C   UNL     1      43.583   4.549  11.193  0.00  0.00    +0.000 C 
BRANCH  14  15
ATOM     15  C   UNL     1      44.881   4.932  11.891  0.00  0.00    +0.000 A 
ATOM     16  C   UNL     1      45.487   4.031  12.784  0.00  0.00    +0.000 A 
ATOM     17  C   UNL     1      46.682   4.357  13.430  0.00  0.00    +0.000 A 
ATOM     18  C   UNL     1      47.285   5.592  13.189  0.00  0.00    +0.000 A 
ATOM     19  C   UNL     1      46.694   6.500  12.307  0.00  0.00    +0.000 A 
ATOM     20 CL   UNL     1      47.407   8.038  11.988  0.00  0.00    +0.000 Cl
ATOM     21  C   UNL     1      45.499   6.171  11.661  0.00  0.00    +0.000 A 
BRANCH  18  22
ATOM     22  O   UNL     1      48.459   5.907  13.815  0.00  0.00    +0.000 OA
ATOM     23  H   UNL     1      48.349   5.800  14.774  0.00  0.00    +0.000 HD
ENDBRANCH  18  22
ENDBRANCH  14  15
ENDBRANCH   1  14
TORSDOF 5
ENDMDL
MODEL 2
REMARK VINA RESULT:    -8.363      1.173      1.582
REMARK INTER + INTRA:         -11.133
REMARK INTER:                 -10.748
REMARK INTRA:                  -0.386
REMARK UNBOUND:                -0.570
REMARK  Name = 
REMARK  6 active torsions:
REMARK  status: ('A' for Active; 'I' for Inactive)
REMARK    1  A    between atoms: C_1  and  C_2
REMARK    2  A    between atoms: C_2  and  O_3
REMARK    3  A    between atoms: C_2  and  C_13
REMARK    4  A    between atoms: O_3  and  C_4
REMARK    5  A    between atoms: C_7  and  C_8
REMARK    6  A    between atoms: C_16  and  O_17
REMARK                            x       y       z     vdW  Elec       q    Type
REMARK                         _______ _______ _______ _____ _____    ______ ____
ROOT
ATOM      1  O   UNL     1      43.873   4.856   9.863  0.00  0.00    +0.000 OA
ENDROOT
BRANCH   1   2
ATOM      2  C   UNL     1      44.752   4.056   9.169  0.00  0.00    +0.000 A 
ATOM      3  C   UNL     1      44.677   2.694   9.418  0.00  0.00    +0.000 A 
ATOM      4  C   UNL     1      45.533   1.840   8.722  0.00  0.00    +0.000 A 
ATOM      5  C   UNL     1      46.433   2.367   7.792  0.00  0.00    +0.000 A 
ATOM      6  C   UNL     1      46.433   3.745   7.621  0.00  0.00    +0.000 A 
ATOM      7  N   UNL     1      45.618   4.601   8.291  0.00  0.00    +0.000 NA
BRANCH   5   8
ATOM      8  C   UNL     1      47.326   1.448   7.047  0.00  0.00    +0.000 C 
ATOM      9  N   UNL     1      48.410   1.957   6.386  0.00  0.00    +0.000 N 
ATOM     10  O   UNL     1      47.103   0.241   7.012  0.00  0.00    +0.000 OA
ATOM     11  H   UNL     1      48.677   2.926   6.331  0.00  0.00    +0.000 HD
ATOM     12  H   UNL     1      48.983   1.290   5.884  0.00  0.00    +0.000 HD
ENDBRANCH   5   8
ENDBRANCH   1   2
BRANCH   1  14
ATOM     13  C   UNL     1      42.537   5.316  11.831  0.00  0.00    +0.000 C 
ATOM     14  C   UNL     1      43.743   4.567  11.260  0.00  0.00    +0.000 C 
BRANCH  14  15
ATOM     15  C   UNL     1      45.031   5.012  11.938  0.00  0.00    +0.000 A 
ATOM     16  C   UNL     1      45.738   6.118  11.436  0.00  0.00    +0.000 A 
ATOM     17  C   UNL     1      46.919   6.550  12.046  0.00  0.00    +0.000 A 
ATOM     18  C   UNL     1      47.405   5.877  13.167  0.00  0.00    +0.000 A 
ATOM     19  C   UNL     1      46.717   4.774  13.676  0.00  0.00    +0.000 A 
ATOM     20 CL   UNL     1      47.290   3.914  15.057  0.00  0.00    +0.000 Cl
ATOM     21  C   UNL     1      45.535   4.344  13.065  0.00  0.00    +0.000 A 
BRANCH  18  22
ATOM     22  O   UNL     1      48.557   6.305  13.768  0.00  0.00    +0.000 OA
ATOM     23  H   UNL     1      48.879   7.102  13.315  0.00  0.00    +0.000 HD
ENDBRANCH  18  22
ENDBRANCH  14  15
ENDBRANCH   1  14
TORSDOF 5
ENDMDL
MODEL 3
REMARK VINA RESULT:    -7.002      3.366      6.809
REMARK INTER + INTRA:          -9.415
REMARK INTER:                  -8.877
REMARK INTRA:                  -0.538
REMARK UNBOUND:                -0.570
REMARK  Name = 
REMARK  6 active torsions:
REMARK  status: ('A' for Active; 'I' for Inactive)
REMARK    1  A    between atoms: C_1  and  C_2
REMARK    2  A    between atoms: C_2  and  O_3
REMARK    3  A    between atoms: C_2  and  C_13
REMARK    4  A    between atoms: O_3  and  C_4
REMARK    5  A    between atoms: C_7  and  C_8
REMARK    6  A    between atoms: C_16  and  O_17
REMARK                            x       y       z     vdW  Elec       q    Type
REMARK                         _______ _______ _______ _____ _____    ______ ____
ROOT
ATOM      1  O   UNL     1      45.495   4.343  11.010  0.00  0.00    +0.000 OA
ENDROOT
BRANCH   1   2
ATOM      2  C   UNL     1      45.348   5.686  11.279  0.00  0.00    +0.000 A 
ATOM      3  C   UNL     1      46.499   6.374  11.630  0.00  0.00    +0.000 A 
ATOM      4  C   UNL     1      46.404   7.741  11.890  0.00  0.00    +0.000 A 
ATOM      5  C   UNL     1      45.167   8.384  11.787  0.00  0.00    +0.000 A 
ATOM      6  C   UNL     1      44.076   7.602  11.436  0.00  0.00    +0.000 A 
ATOM      7  N   UNL     1      44.136   6.268  11.185  0.00  0.00    +0.000 NA
BRANCH   5   8
ATOM      8  C   UNL     1      45.084   9.840  12.051  0.00  0.00    +0.000 C 
ATOM      9  N   UNL     1      43.855  10.420  12.214  0.00  0.00    +0.000 N 
ATOM     10  O   UNL     1      46.097  10.529  12.120  0.00  0.00    +0.000 OA
ATOM     11  H   UNL     1      42.963   9.959  12.160  0.00  0.00    +0.000 HD
ATOM     12  H   UNL     1      43.851  11.420  12.383  0.00  0.00    +0.000 HD
ENDBRANCH   5   8
ENDBRANCH   1   2
BRANCH   1  14
ATOM     13  C   UNL     1      43.725   2.723  10.679  0.00  0.00    +0.000 C 
ATOM     14  C   UNL     1      44.594   3.804  10.035  0.00  0.00    +0.000 C 
BRANCH  14  15
ATOM     15  C   UNL     1      45.440   3.225   8.910  0.00  0.00    +0.000 A 
ATOM     16  C   UNL     1      46.036   4.083   7.970  0.00  0.00    +0.000 A 
ATOM     17  C   UNL     1      46.822   3.574   6.933  0.00  0.00    +0.000 A 
ATOM     18  C   UNL     1      47.020   2.198   6.826  0.00  0.00    +0.000 A 
ATOM     19  C   UNL     1      46.432   1.330   7.749  0.00  0.00    +0.000 A 
ATOM     20 CL   UNL     1      46.650  -0.378   7.646  0.00  0.00    +0.000 Cl
ATOM     21  C   UNL     1      45.647   1.841   8.786  0.00  0.00    +0.000 A 
BRANCH  18  22
ATOM     22  O   UNL     1      47.797   1.701   5.815  0.00  0.00    +0.000 OA
ATOM     23  H   UNL     1      47.563   0.772   5.658  0.00  0.00    +0.000 HD
ENDBRANCH  18  22
ENDBRANCH  14  15
ENDBRANCH   1  14
TORSDOF 5
ENDMDL
MODEL 4
REMARK VINA RESULT:    -6.489      3.182      6.533
REMARK INTER + INTRA:          -8.766
REMARK INTER:                  -8.192
REMARK INTRA:                  -0.574
REMARK UNBOUND:                -0.570
REMARK  Name = 
REMARK  6 active torsions:
REMARK  status: ('A' for Active; 'I' for Inactive)
REMARK    1  A    between atoms: C_1  and  C_2
REMARK    2  A    between atoms: C_2  and  O_3
REMARK    3  A    between atoms: C_2  and  C_13
REMARK    4  A    between atoms: O_3  and  C_4
REMARK    5  A    between atoms: C_7  and  C_8
REMARK    6  A    between atoms: C_16  and  O_17
REMARK                            x       y       z     vdW  Elec       q    Type
REMARK                         _______ _______ _______ _____ _____    ______ ____
ROOT
ATOM      1  O   UNL     1      45.298   3.735  11.883  0.00  0.00    +0.000 OA
ENDROOT
BRANCH   1   2
ATOM      2  C   UNL     1      45.655   5.007  12.271  0.00  0.00    +0.000 A 
ATOM      3  C   UNL     1      46.872   5.135  12.921  0.00  0.00    +0.000 A 
ATOM      4  C   UNL     1      47.288   6.407  13.315  0.00  0.00    +0.000 A 
ATOM      5  C   UNL     1      46.482   7.515  13.042  0.00  0.00    +0.000 A 
ATOM      6  C   UNL     1      45.279   7.278  12.392  0.00  0.00    +0.000 A 
ATOM      7  N   UNL     1      44.844   6.050  12.005  0.00  0.00    +0.000 NA
BRANCH   5   8
ATOM      8  C   UNL     1      46.942   8.864  13.451  0.00  0.00    +0.000 C 
ATOM      9  N   UNL     1      46.515   9.958  12.749  0.00  0.00    +0.000 N 
ATOM     10  O   UNL     1      47.702   9.010  14.404  0.00  0.00    +0.000 OA
ATOM     11  H   UNL     1      45.911   9.955  11.944  0.00  0.00    +0.000 HD
ATOM     12  H   UNL     1      46.866  10.855  13.061  0.00  0.00    +0.000 HD
ENDBRANCH   5   8
ENDBRANCH   1   2
BRANCH   1  14
ATOM     13  C   UNL     1      43.386   2.515  11.030  0.00  0.00    +0.000 C 
ATOM     14  C   UNL     1      44.376   3.656  10.789  0.00  0.00    +0.000 C 
BRANCH  14  15
ATOM     15  C   UNL     1      45.192   3.411   9.527  0.00  0.00    +0.000 A 
ATOM     16  C   UNL     1      45.584   4.498   8.726  0.00  0.00    +0.000 A 
ATOM     17  C   UNL     1      46.339   4.298   7.568  0.00  0.00    +0.000 A 
ATOM     18  C   UNL     1      46.711   3.006   7.198  0.00  0.00    +0.000 A 
ATOM     19  C   UNL     1      46.326   1.914   7.980  0.00  0.00    +0.000 A 
ATOM     20 CL   UNL     1      46.762   0.301   7.551  0.00  0.00    +0.000 Cl
ATOM     21  C   UNL     1      45.571   2.116   9.139  0.00  0.00    +0.000 A 
BRANCH  18  22
ATOM     22  O   UNL     1      47.457   2.812   6.068  0.00  0.00    +0.000 OA
ATOM     23  H   UNL     1      47.197   1.974   5.652  0.00  0.00    +0.000 HD
ENDBRANCH  18  22
ENDBRANCH  14  15
ENDBRANCH   1  14
TORSDOF 5
ENDMDL
MODEL 5
REMARK VINA RESULT:    -6.330      3.961      7.052
REMARK INTER + INTRA:          -8.566
REMARK INTER:                  -8.018
REMARK INTRA:                  -0.548
REMARK UNBOUND:                -0.570
REMARK  Name = 
REMARK  6 active torsions:
REMARK  status: ('A' for Active; 'I' for Inactive)
REMARK    1  A    between atoms: C_1  and  C_2
REMARK    2  A    between atoms: C_2  and  O_3
REMARK    3  A    between atoms: C_2  and  C_13
REMARK    4  A    between atoms: O_3  and  C_4
REMARK    5  A    between atoms: C_7  and  C_8
REMARK    6  A    between atoms: C_16  and  O_17
REMARK                            x       y       z     vdW  Elec       q    Type
REMARK                         _______ _______ _______ _____ _____    ______ ____
ROOT
ATOM      1  O   UNL     1      45.696   3.849  13.537  0.00  0.00    +0.000 OA
ENDROOT
BRANCH   1   2
ATOM      2  C   UNL     1      46.621   4.485  14.334  0.00  0.00    +0.000 A 
ATOM      3  C   UNL     1      47.215   5.620  13.806  0.00  0.00    +0.000 A 
ATOM      4  C   UNL     1      48.142   6.312  14.585  0.00  0.00    +0.000 A 
ATOM      5  C   UNL     1      48.445   5.856  15.872  0.00  0.00    +0.000 A 
ATOM      6  C   UNL     1      47.799   4.706  16.304  0.00  0.00    +0.000 A 
ATOM      7  N   UNL     1      46.899   4.008  15.564  0.00  0.00    +0.000 NA
BRANCH   5   8
ATOM      8  C   UNL     1      49.420   6.609  16.696  0.00  0.00    +0.000 C 
ATOM      9  N   UNL     1      48.968   7.369  17.739  0.00  0.00    +0.000 N 
ATOM     10  O   UNL     1      50.622   6.564  16.451  0.00  0.00    +0.000 OA
ATOM     11  H   UNL     1      48.009   7.495  18.018  0.00  0.00    +0.000 HD
ATOM     12  H   UNL     1      49.673   7.873  18.266  0.00  0.00    +0.000 HD
ENDBRANCH   5   8
ENDBRANCH   1   2
BRANCH   1  14
ATOM     13  C   UNL     1      43.360   4.395  13.204  0.00  0.00    +0.000 C 
ATOM     14  C   UNL     1      44.805   4.707  12.814  0.00  0.00    +0.000 C 
BRANCH  14  15
ATOM     15  C   UNL     1      45.036   4.454  11.331  0.00  0.00    +0.000 A 
ATOM     16  C   UNL     1      45.480   5.500  10.504  0.00  0.00    +0.000 A 
ATOM     17  C   UNL     1      45.706   5.289   9.141  0.00  0.00    +0.000 A 
ATOM     18  C   UNL     1      45.489   4.026   8.591  0.00  0.00    +0.000 A 
ATOM     19  C   UNL     1      45.044   2.976   9.398  0.00  0.00    +0.000 A 
ATOM     20 CL   UNL     1      44.760   1.402   8.752  0.00  0.00    +0.000 Cl
ATOM     21  C   UNL     1      44.820   3.189  10.761  0.00  0.00    +0.000 A 
BRANCH  18  22
ATOM     22  O   UNL     1      45.718   3.818   7.259  0.00  0.00    +0.000 OA
ATOM     23  H   UNL     1      46.637   3.531   7.132  0.00  0.00    +0.000 HD
ENDBRANCH  18  22
ENDBRANCH  14  15
ENDBRANCH   1  14
TORSDOF 5
ENDMDL
MODEL 6
REMARK VINA RESULT:    -6.259      3.015      5.805
REMARK INTER + INTRA:          -8.476
REMARK INTER:                  -7.768
REMARK INTRA:                  -0.708
REMARK UNBOUND:                -0.570
REMARK  Name = 
REMARK  6 active torsions:
REMARK  status: ('A' for Active; 'I' for Inactive)
REMARK    1  A    between atoms: C_1  and  C_2
REMARK    2  A    between atoms: C_2  and  O_3
REMARK    3  A    between atoms: C_2  and  C_13
REMARK    4  A    between atoms: O_3  and  C_4
REMARK    5  A    between atoms: C_7  and  C_8
REMARK    6  A    between atoms: C_16  and  O_17
REMARK                            x       y       z     vdW  Elec       q    Type
REMARK                         _______ _______ _______ _____ _____    ______ ____
ROOT
ATOM      1  O   UNL     1      44.490   5.690  12.733  0.00  0.00    +0.000 OA
ENDROOT
BRANCH   1   2
ATOM      2  C   UNL     1      45.780   6.171  12.713  0.00  0.00    +0.000 A 
ATOM      3  C   UNL     1      45.961   7.428  12.157  0.00  0.00    +0.000 A 
ATOM      4  C   UNL     1      47.247   7.968  12.134  0.00  0.00    +0.000 A 
ATOM      5  C   UNL     1      48.313   7.243  12.673  0.00  0.00    +0.000 A 
ATOM      6  C   UNL     1      48.026   5.991  13.199  0.00  0.00    +0.000 A 
ATOM      7  N   UNL     1      46.786   5.437  13.228  0.00  0.00    +0.000 NA
BRANCH   5   8
ATOM      8  C   UNL     1      49.673   7.835  12.656  0.00  0.00    +0.000 C 
ATOM      9  N   UNL     1      50.593   7.369  11.758  0.00  0.00    +0.000 N 
ATOM     10  O   UNL     1      49.982   8.729  13.438  0.00  0.00    +0.000 OA
ATOM     11  H   UNL     1      50.457   6.631  11.088  0.00  0.00    +0.000 HD
ATOM     12  H   UNL     1      51.511   7.799  11.793  0.00  0.00    +0.000 HD
ENDBRANCH   5   8
ENDBRANCH   1   2
BRANCH   1  14
ATOM     13  C   UNL     1      42.286   5.622  11.730  0.00  0.00    +0.000 C 
ATOM     14  C   UNL     1      43.792   5.735  11.483  0.00  0.00    +0.000 C 
BRANCH  14  15
ATOM     15  C   UNL     1      44.294   4.571  10.641  0.00  0.00    +0.000 A 
ATOM     16  C   UNL     1      43.905   3.258  10.959  0.00  0.00    +0.000 A 
ATOM     17  C   UNL     1      44.348   2.175  10.196  0.00  0.00    +0.000 A 
ATOM     18  C   UNL     1      45.186   2.395   9.103  0.00  0.00    +0.000 A 
ATOM     19  C   UNL     1      45.586   3.692   8.776  0.00  0.00    +0.000 A 
ATOM     20 CL   UNL     1      46.627   4.003   7.435  0.00  0.00    +0.000 Cl
ATOM     21  C   UNL     1      45.141   4.775   9.540  0.00  0.00    +0.000 A 
BRANCH  18  22
ATOM     22  O   UNL     1      45.613   1.334   8.352  0.00  0.00    +0.000 OA
ATOM     23  H   UNL     1      46.049   0.687   8.929  0.00  0.00    +0.000 HD
ENDBRANCH  18  22
ENDBRANCH  14  15
ENDBRANCH   1  14
TORSDOF 5
ENDMDL
MODEL 7
REMARK VINA RESULT:    -6.162      4.362      6.517
REMARK INTER + INTRA:          -8.354
REMARK INTER:                  -7.859
REMARK INTRA:                  -0.495
REMARK UNBOUND:                -0.570
REMARK  Name = 
REMARK  6 active torsions:
REMARK  status: ('A' for Active; 'I' for Inactive)
REMARK    1  A    between atoms: C_1  and  C_2
REMARK    2  A    between atoms: C_2  and  O_3
REMARK    3  A    between atoms: C_2  and  C_13
REMARK    4  A    between atoms: O_3  and  C_4
REMARK    5  A    between atoms: C_7  and  C_8
REMARK    6  A    between atoms: C_16  and  O_17
REMARK                            x       y       z     vdW  Elec       q    Type
REMARK                         _______ _______ _______ _____ _____    ______ ____
ROOT
ATOM      1  O   UNL     1      48.024   5.196  14.297  0.00  0.00    +0.000 OA
ENDROOT
BRANCH   1   2
ATOM      2  C   UNL     1      46.842   5.270  13.596  0.00  0.00    +0.000 A 
ATOM      3  C   UNL     1      46.775   6.229  12.598  0.00  0.00    +0.000 A 
ATOM      4  C   UNL     1      45.605   6.328  11.846  0.00  0.00    +0.000 A 
ATOM      5  C   UNL     1      44.538   5.464  12.105  0.00  0.00    +0.000 A 
ATOM      6  C   UNL     1      44.704   4.544  13.131  0.00  0.00    +0.000 A 
ATOM      7  N   UNL     1      45.828   4.430  13.885  0.00  0.00    +0.000 NA
BRANCH   5   8
ATOM      8  C   UNL     1      43.305   5.569  11.288  0.00  0.00    +0.000 C 
ATOM      9  N   UNL     1      42.247   6.294  11.764  0.00  0.00    +0.000 N 
ATOM     10  O   UNL     1      43.221   5.012  10.197  0.00  0.00    +0.000 OA
ATOM     11  H   UNL     1      42.199   6.774  12.647  0.00  0.00    +0.000 HD
ATOM     12  H   UNL     1      41.425   6.328  11.173  0.00  0.00    +0.000 HD
ENDBRANCH   5   8
ENDBRANCH   1   2
BRANCH   1  14
ATOM     13  C   UNL     1      49.444   6.928  15.221  0.00  0.00    +0.000 C 
ATOM     14  C   UNL     1      48.159   6.116  15.387  0.00  0.00    +0.000 C 
BRANCH  14  15
ATOM     15  C   UNL     1      48.194   5.297  16.670  0.00  0.00    +0.000 A 
ATOM     16  C   UNL     1      48.199   3.893  16.603  0.00  0.00    +0.000 A 
ATOM     17  C   UNL     1      48.239   3.120  17.766  0.00  0.00    +0.000 A 
ATOM     18  C   UNL     1      48.275   3.747  19.012  0.00  0.00    +0.000 A 
ATOM     19  C   UNL     1      48.267   5.141  19.097  0.00  0.00    +0.000 A 
ATOM     20 CL   UNL     1      48.305   5.951  20.620  0.00  0.00    +0.000 Cl
ATOM     21  C   UNL     1      48.228   5.912  17.932  0.00  0.00    +0.000 A 
BRANCH  18  22
ATOM     22  O   UNL     1      48.323   2.990  20.150  0.00  0.00    +0.000 OA
ATOM     23  H   UNL     1      48.565   2.078  19.920  0.00  0.00    +0.000 HD
ENDBRANCH  18  22
ENDBRANCH  14  15
ENDBRANCH   1  14
TORSDOF 5
ENDMDL
MODEL 8
REMARK VINA RESULT:    -5.870      4.478      6.528
REMARK INTER + INTRA:          -7.985
REMARK INTER:                  -7.627
REMARK INTRA:                  -0.357
REMARK UNBOUND:                -0.570
REMARK  Name = 
REMARK  6 active torsions:
REMARK  status: ('A' for Active; 'I' for Inactive)
REMARK    1  A    between atoms: C_1  and  C_2
REMARK    2  A    between atoms: C_2  and  O_3
REMARK    3  A    between atoms: C_2  and  C_13
REMARK    4  A    between atoms: O_3  and  C_4
REMARK    5  A    between atoms: C_7  and  C_8
REMARK    6  A    between atoms: C_16  and  O_17
REMARK                            x       y       z     vdW  Elec       q    Type
REMARK                         _______ _______ _______ _____ _____    ______ ____
ROOT
ATOM      1  O   UNL     1      48.251   5.721  13.908  0.00  0.00    +0.000 OA
ENDROOT
BRANCH   1   2
ATOM      2  C   UNL     1      47.012   5.818  13.316  0.00  0.00    +0.000 A 
ATOM      3  C   UNL     1      46.846   6.840  12.395  0.00  0.00    +0.000 A 
ATOM      4  C   UNL     1      45.615   6.965  11.752  0.00  0.00    +0.000 A 
ATOM      5  C   UNL     1      44.586   6.064  12.041  0.00  0.00    +0.000 A 
ATOM      6  C   UNL     1      44.853   5.081  12.983  0.00  0.00    +0.000 A 
ATOM      7  N   UNL     1      46.039   4.940  13.631  0.00  0.00    +0.000 NA
BRANCH   5   8
ATOM      8  C   UNL     1      43.287   6.198  11.339  0.00  0.00    +0.000 C 
ATOM      9  N   UNL     1      42.812   7.447  11.046  0.00  0.00    +0.000 N 
ATOM     10  O   UNL     1      42.634   5.208  11.024  0.00  0.00    +0.000 OA
ATOM     11  H   UNL     1      43.251   8.324  11.273  0.00  0.00    +0.000 HD
ATOM     12  H   UNL     1      41.916   7.487  10.575  0.00  0.00    +0.000 HD
ENDBRANCH   5   8
ENDBRANCH   1   2
BRANCH   1  14
ATOM     13  C   UNL     1      49.853   7.359  14.695  0.00  0.00    +0.000 C 
ATOM     14  C   UNL     1      48.515   6.664  14.954  0.00  0.00    +0.000 C 
BRANCH  14  15
ATOM     15  C   UNL     1      48.548   5.890  16.264  0.00  0.00    +0.000 A 
ATOM     16  C   UNL     1      49.268   6.399  17.359  0.00  0.00    +0.000 A 
ATOM     17  C   UNL     1      49.306   5.710  18.574  0.00  0.00    +0.000 A 
ATOM     18  C   UNL     1      48.622   4.502  18.706  0.00  0.00    +0.000 A 
ATOM     19  C   UNL     1      47.905   3.980  17.627  0.00  0.00    +0.000 A 
ATOM     20 CL   UNL     1      47.051   2.485  17.751  0.00  0.00    +0.000 Cl
ATOM     21  C   UNL     1      47.867   4.671  16.413  0.00  0.00    +0.000 A 
BRANCH  18  22
ATOM     22  O   UNL     1      48.653   3.832  19.898  0.00  0.00    +0.000 OA
ATOM     23  H   UNL     1      49.378   3.186  19.885  0.00  0.00    +0.000 HD
ENDBRANCH  18  22
ENDBRANCH  14  15
ENDBRANCH   1  14
TORSDOF 5
ENDMDL
MODEL 9
REMARK VINA RESULT:    -5.798      4.533      6.531
REMARK INTER + INTRA:          -7.893
REMARK INTER:                  -7.391
REMARK INTRA:                  -0.502
REMARK UNBOUND:                -0.570
REMARK  Name = 
REMARK  6 active torsions:
REMARK  status: ('A' for Active; 'I' for Inactive)
REMARK    1  A    between atoms: C_1  and  C_2
REMARK    2  A    between atoms: C_2  and  O_3
REMARK    3  A    between atoms: C_2  and  C_13
REMARK    4  A    between atoms: O_3  and  C_4
REMARK    5  A    between atoms: C_7  and  C_8
REMARK    6  A    between atoms: C_16  and  O_17
REMARK                            x       y       z     vdW  Elec       q    Type
REMARK                         _______ _______ _______ _____ _____    ______ ____
ROOT
ATOM      1  O   UNL     1      47.954   4.765  15.387  0.00  0.00    +0.000 OA
ENDROOT
BRANCH   1   2
ATOM      2  C   UNL     1      47.085   4.531  14.345  0.00  0.00    +0.000 A 
ATOM      3  C   UNL     1      46.492   5.646  13.773  0.00  0.00    +0.000 A 
ATOM      4  C   UNL     1      45.620   5.461  12.700  0.00  0.00    +0.000 A 
ATOM      5  C   UNL     1      45.370   4.171  12.224  0.00  0.00    +0.000 A 
ATOM      6  C   UNL     1      46.009   3.123  12.870  0.00  0.00    +0.000 A 
ATOM      7  N   UNL     1      46.856   3.272  13.922  0.00  0.00    +0.000 NA
BRANCH   5   8
ATOM      8  C   UNL     1      44.454   3.990  11.072  0.00  0.00    +0.000 C 
ATOM      9  N   UNL     1      44.211   5.047  10.238  0.00  0.00    +0.000 N 
ATOM     10  O   UNL     1      43.908   2.911  10.863  0.00  0.00    +0.000 OA
ATOM     11  H   UNL     1      44.586   5.977  10.324  0.00  0.00    +0.000 HD
ATOM     12  H   UNL     1      43.570   4.875   9.472  0.00  0.00    +0.000 HD
ENDBRANCH   5   8
ENDBRANCH   1   2
BRANCH   1  14
ATOM     13  C   UNL     1      47.088   4.621  17.644  0.00  0.00    +0.000 C 
ATOM     14  C   UNL     1      47.820   3.893  16.515  0.00  0.00    +0.000 C 
BRANCH  14  15
ATOM     15  C   UNL     1      49.223   3.490  16.946  0.00  0.00    +0.000 A 
ATOM     16  C   UNL     1      49.609   2.139  16.897  0.00  0.00    +0.000 A 
ATOM     17  C   UNL     1      50.894   1.747  17.281  0.00  0.00    +0.000 A 
ATOM     18  C   UNL     1      51.808   2.705  17.718  0.00  0.00    +0.000 A 
ATOM     19  C   UNL     1      51.440   4.051  17.778  0.00  0.00    +0.000 A 
ATOM     20 CL   UNL     1      52.541   5.264  18.319  0.00  0.00    +0.000 Cl
ATOM     21  C   UNL     1      50.154   4.442  17.392  0.00  0.00    +0.000 A 
BRANCH  18  22
ATOM     22  O   UNL     1      53.068   2.321  18.086  0.00  0.00    +0.000 OA
ATOM     23  H   UNL     1      53.045   1.966  18.989  0.00  0.00    +0.000 HD
ENDBRANCH  18  22
ENDBRANCH  14  15
ENDBRANCH   1  14
TORSDOF 5
ENDMDL
