MODEL 1
REMARK VINA RESULT:    -8.493      0.000      0.000
REMARK INTER + INTRA:         -11.051
REMARK INTER:                 -10.479
REMARK INTRA:                  -0.572
REMARK UNBOUND:                -0.572
REMARK  Name = 
REMARK  4 active torsions:
REMARK  status: ('A' for Active; 'I' for Inactive)
REMARK    1  A    between atoms: C_2  and  C_4
REMARK    2  A    between atoms: N_8  and  C_9
REMARK    3  A    between atoms: C_9  and  C_10
REMARK    4  A    between atoms: C_14  and  C_15
REMARK                            x       y       z     vdW  Elec       q    Type
REMARK                         _______ _______ _______ _____ _____    ______ ____
ROOT
ATOM      1  C   UNL     1      46.538   2.600   7.470  0.00  0.00    +0.000 A 
ATOM      2  C   UNL     1      46.324   3.954   7.694  0.00  0.00    +0.000 A 
ATOM      3  C   UNL     1      45.393   4.345   8.657  0.00  0.00    +0.000 A 
ATOM      4  C   UNL     1      44.695   3.384   9.378  0.00  0.00    +0.000 A 
ATOM      5  N   UNL     1      43.816   3.675  10.380  0.00  0.00    +0.000 N 
ATOM      6  N   UNL     1      44.872   2.068   9.144  0.00  0.00    +0.000 NA
ATOM      7  C   UNL     1      45.775   1.700   8.196  0.00  0.00    +0.000 A 
ATOM      8  H   UNL     1      43.366   2.856  10.770  0.00  0.00    +0.000 HD
ENDROOT
BRANCH   1  10
ATOM      9  N   UNL     1      47.874   2.944   5.474  0.00  0.00    +0.000 N 
ATOM     10  C   UNL     1      47.525   2.098   6.492  0.00  0.00    +0.000 C 
ATOM     11  O   UNL     1      48.035   0.992   6.603  0.00  0.00    +0.000 OA
ATOM     12  H   UNL     1      48.616   2.632   4.860  0.00  0.00    +0.000 HD
ATOM     13  H   UNL     1      47.669   3.933   5.488  0.00  0.00    +0.000 HD
ENDBRANCH   1  10
BRANCH   5  14
ATOM     14  C   UNL     1      43.399   4.988  10.813  0.00  0.00    +0.000 C 
BRANCH  14  15
ATOM     15  C   UNL     1      44.439   5.672  11.660  0.00  0.00    +0.000 A 
ATOM     16  C   UNL     1      44.740   7.011  11.456  0.00  0.00    +0.000 A 
ATOM     17  N   UNL     1      45.696   7.682  12.134  0.00  0.00    +0.000 NA
ATOM     18  C   UNL     1      46.395   6.979  13.060  0.00  0.00    +0.000 A 
ATOM     19  C   UNL     1      46.206   5.628  13.355  0.00  0.00    +0.000 A 
ATOM     20  C   UNL     1      45.200   4.985  12.616  0.00  0.00    +0.000 A 
BRANCH  19  21
ATOM     21  C   UNL     1      47.009   4.917  14.361  0.00  0.00    +0.000 A 
ATOM     22  C   UNL     1      47.762   5.560  15.335  0.00  0.00    +0.000 A 
ATOM     23  N   UNL     1      48.499   4.939  16.282  0.00  0.00    +0.000 NA
ATOM     24  C   UNL     1      48.487   3.602  16.243  0.00  0.00    +0.000 A 
ATOM     25  N   UNL     1      47.814   2.852  15.360  0.00  0.00    +0.000 NA
ATOM     26  C   UNL     1      47.089   3.534  14.444  0.00  0.00    +0.000 A 
ENDBRANCH  19  21
ENDBRANCH  14  15
ENDBRANCH   5  14
TORSDOF 4
ENDMDL
MODEL 2
REMARK VINA RESULT:    -8.152      1.902      4.042
REMARK INTER + INTRA:         -10.630
REMARK INTER:                 -10.125
REMARK INTRA:                  -0.506
REMARK UNBOUND:                -0.572
REMARK  Name = 
REMARK  4 active torsions:
REMARK  status: ('A' for Active; 'I' for Inactive)
REMARK    1  A    between atoms: C_2  and  C_4
REMARK    2  A    between atoms: N_8  and  C_9
REMARK    3  A    between atoms: C_9  and  C_10
REMARK    4  A    between atoms: C_14  and  C_15
REMARK                            x       y       z     vdW  Elec       q    Type
REMARK                         _______ _______ _______ _____ _____    ______ ____
ROOT
ATOM      1  C   UNL     1      46.580   2.602   7.336  0.00  0.00    +0.000 A 
ATOM      2  C   UNL     1      46.169   3.896   7.631  0.00  0.00    +0.000 A 
ATOM      3  C   UNL     1      45.279   4.103   8.685  0.00  0.00    +0.000 A 
ATOM      4  C   UNL     1      44.815   3.022   9.424  0.00  0.00    +0.000 A 
ATOM      5  N   UNL     1      43.994   3.139  10.509  0.00  0.00    +0.000 N 
ATOM      6  N   UNL     1      45.181   1.760   9.124  0.00  0.00    +0.000 NA
ATOM      7  C   UNL     1      46.043   1.570   8.088  0.00  0.00    +0.000 A 
ATOM      8  H   UNL     1      43.722   2.248  10.903  0.00  0.00    +0.000 HD
ENDROOT
BRANCH   1  10
ATOM      9  N   UNL     1      47.540   3.126   5.170  0.00  0.00    +0.000 N 
ATOM     10  C   UNL     1      47.542   2.296   6.258  0.00  0.00    +0.000 C 
ATOM     11  O   UNL     1      48.329   1.364   6.345  0.00  0.00    +0.000 OA
ATOM     12  H   UNL     1      48.261   2.968   4.477  0.00  0.00    +0.000 HD
ATOM     13  H   UNL     1      47.089   4.030   5.172  0.00  0.00    +0.000 HD
ENDBRANCH   1  10
BRANCH   5  14
ATOM     14  C   UNL     1      43.412   4.353  11.027  0.00  0.00    +0.000 C 
BRANCH  14  15
ATOM     15  C   UNL     1      44.415   5.212  11.750  0.00  0.00    +0.000 A 
ATOM     16  C   UNL     1      45.209   4.671  12.752  0.00  0.00    +0.000 A 
ATOM     17  N   UNL     1      46.091   5.385  13.483  0.00  0.00    +0.000 NA
ATOM     18  C   UNL     1      46.182   6.710  13.209  0.00  0.00    +0.000 A 
ATOM     19  C   UNL     1      45.434   7.384  12.242  0.00  0.00    +0.000 A 
ATOM     20  C   UNL     1      44.533   6.589  11.514  0.00  0.00    +0.000 A 
BRANCH  19  21
ATOM     21  C   UNL     1      45.566   8.829  12.002  0.00  0.00    +0.000 A 
ATOM     22  C   UNL     1      44.540   9.619  11.500  0.00  0.00    +0.000 A 
ATOM     23  N   UNL     1      44.622  10.950  11.281  0.00  0.00    +0.000 NA
ATOM     24  C   UNL     1      45.799  11.516  11.573  0.00  0.00    +0.000 A 
ATOM     25  N   UNL     1      46.873  10.878  12.056  0.00  0.00    +0.000 NA
ATOM     26  C   UNL     1      46.724   9.550  12.261  0.00  0.00    +0.000 A 
ENDBRANCH  19  21
ENDBRANCH  14  15
ENDBRANCH   5  14
TORSDOF 4
ENDMDL
MODEL 3
REMARK VINA RESULT:    -7.624      3.013      6.910
REMARK INTER + INTRA:          -9.978
REMARK INTER:                  -9.511
REMARK INTRA:                  -0.467
REMARK UNBOUND:                -0.572
REMARK  Name = 
REMARK  4 active torsions:
REMARK  status: ('A' for Active; 'I' for Inactive)
REMARK    1  A    between atoms: C_2  and  C_4
REMARK    2  A    between atoms: N_8  and  C_9
REMARK    3  A    between atoms: C_9  and  C_10
REMARK    4  A    between atoms: C_14  and  C_15
REMARK                            x       y       z     vdW  Elec       q    Type
REMARK                         _______ _______ _______ _____ _____    ______ ____
ROOT
ATOM      1  C   UNL     1      47.960   6.966  13.296  0.00  0.00    +0.000 A 
ATOM      2  C   UNL     1      46.985   6.021  13.591  0.00  0.00    +0.000 A 
ATOM      3  C   UNL     1      45.781   6.046  12.887  0.00  0.00    +0.000 A 
ATOM      4  C   UNL     1      45.570   7.006  11.906  0.00  0.00    +0.000 A 
ATOM      5  N   UNL     1      44.450   7.064  11.127  0.00  0.00    +0.000 N 
ATOM      6  N   UNL     1      46.496   7.948  11.637  0.00  0.00    +0.000 NA
ATOM      7  C   UNL     1      47.662   7.919  12.336  0.00  0.00    +0.000 A 
ATOM      8  H   UNL     1      44.444   7.852  10.492  0.00  0.00    +0.000 HD
ENDROOT
BRANCH   1  10
ATOM      9  N   UNL     1      50.323   7.518  13.264  0.00  0.00    +0.000 N 
ATOM     10  C   UNL     1      49.274   6.995  13.971  0.00  0.00    +0.000 C 
ATOM     11  O   UNL     1      49.415   6.602  15.120  0.00  0.00    +0.000 OA
ATOM     12  H   UNL     1      51.199   7.619  13.761  0.00  0.00    +0.000 HD
ATOM     13  H   UNL     1      50.199   8.068  12.426  0.00  0.00    +0.000 HD
ENDBRANCH   1  10
BRANCH   5  14
ATOM     14  C   UNL     1      43.284   6.219  11.222  0.00  0.00    +0.000 C 
BRANCH  14  15
ATOM     15  C   UNL     1      43.570   4.794  10.832  0.00  0.00    +0.000 A 
ATOM     16  C   UNL     1      43.057   3.744  11.581  0.00  0.00    +0.000 A 
ATOM     17  N   UNL     1      43.313   2.443  11.330  0.00  0.00    +0.000 NA
ATOM     18  C   UNL     1      44.129   2.171  10.282  0.00  0.00    +0.000 A 
ATOM     19  C   UNL     1      44.724   3.128   9.457  0.00  0.00    +0.000 A 
ATOM     20  C   UNL     1      44.422   4.464   9.768  0.00  0.00    +0.000 A 
BRANCH  19  21
ATOM     21  C   UNL     1      45.615   2.770   8.343  0.00  0.00    +0.000 A 
ATOM     22  C   UNL     1      46.210   1.522   8.208  0.00  0.00    +0.000 A 
ATOM     23  N   UNL     1      47.022   1.155   7.192  0.00  0.00    +0.000 NA
ATOM     24  C   UNL     1      47.256   2.094   6.267  0.00  0.00    +0.000 A 
ATOM     25  N   UNL     1      46.756   3.337   6.272  0.00  0.00    +0.000 NA
ATOM     26  C   UNL     1      45.945   3.638   7.311  0.00  0.00    +0.000 A 
ENDBRANCH  19  21
ENDBRANCH  14  15
ENDBRANCH   5  14
TORSDOF 4
ENDMDL
MODEL 4
REMARK VINA RESULT:    -6.890      3.292      8.251
REMARK INTER + INTRA:          -9.073
REMARK INTER:                  -8.713
REMARK INTRA:                  -0.360
REMARK UNBOUND:                -0.572
REMARK  Name = 
REMARK  4 active torsions:
REMARK  status: ('A' for Active; 'I' for Inactive)
REMARK    1  A    between atoms: C_2  and  C_4
REMARK    2  A    between atoms: N_8  and  C_9
REMARK    3  A    between atoms: C_9  and  C_10
REMARK    4  A    between atoms: C_14  and  C_15
REMARK                            x       y       z     vdW  Elec       q    Type
REMARK                         _______ _______ _______ _____ _____    ______ ____
ROOT
ATOM      1  C   UNL     1      49.135   4.110  17.617  0.00  0.00    +0.000 A 
ATOM      2  C   UNL     1      48.413   5.204  17.158  0.00  0.00    +0.000 A 
ATOM      3  C   UNL     1      47.591   5.056  16.041  0.00  0.00    +0.000 A 
ATOM      4  C   UNL     1      47.503   3.825  15.404  0.00  0.00    +0.000 A 
ATOM      5  N   UNL     1      46.677   3.574  14.346  0.00  0.00    +0.000 N 
ATOM      6  N   UNL     1      48.226   2.766  15.821  0.00  0.00    +0.000 NA
ATOM      7  C   UNL     1      49.031   2.926  16.906  0.00  0.00    +0.000 A 
ATOM      8  H   UNL     1      46.770   2.635  13.978  0.00  0.00    +0.000 HD
ENDROOT
BRANCH   1  10
ATOM      9  N   UNL     1      49.386   4.237  20.028  0.00  0.00    +0.000 N 
ATOM     10  C   UNL     1      50.006   4.171  18.810  0.00  0.00    +0.000 C 
ATOM     11  O   UNL     1      51.225   4.130  18.718  0.00  0.00    +0.000 OA
ATOM     12  H   UNL     1      49.983   4.186  20.844  0.00  0.00    +0.000 HD
ATOM     13  H   UNL     1      48.406   4.026  20.156  0.00  0.00    +0.000 HD
ENDBRANCH   1  10
BRANCH   5  14
ATOM     14  C   UNL     1      45.829   4.523  13.665  0.00  0.00    +0.000 C 
BRANCH  14  15
ATOM     15  C   UNL     1      45.102   3.912  12.497  0.00  0.00    +0.000 A 
ATOM     16  C   UNL     1      43.823   3.397  12.658  0.00  0.00    +0.000 A 
ATOM     17  N   UNL     1      43.127   2.784  11.677  0.00  0.00    +0.000 NA
ATOM     18  C   UNL     1      43.739   2.671  10.472  0.00  0.00    +0.000 A 
ATOM     19  C   UNL     1      45.025   3.130  10.177  0.00  0.00    +0.000 A 
ATOM     20  C   UNL     1      45.699   3.756  11.238  0.00  0.00    +0.000 A 
BRANCH  19  21
ATOM     21  C   UNL     1      45.642   2.962   8.853  0.00  0.00    +0.000 A 
ATOM     22  C   UNL     1      46.073   1.738   8.358  0.00  0.00    +0.000 A 
ATOM     23  N   UNL     1      46.630   1.545   7.142  0.00  0.00    +0.000 NA
ATOM     24  C   UNL     1      46.771   2.641   6.387  0.00  0.00    +0.000 A 
ATOM     25  N   UNL     1      46.406   3.882   6.736  0.00  0.00    +0.000 NA
ATOM     26  C   UNL     1      45.847   4.006   7.962  0.00  0.00    +0.000 A 
ENDBRANCH  19  21
ENDBRANCH  14  15
ENDBRANCH   5  14
TORSDOF 4
ENDMDL
MODEL 5
REMARK VINA RESULT:    -6.439      3.897      8.496
REMARK INTER + INTRA:          -8.517
REMARK INTER:                  -8.004
REMARK INTRA:                  -0.512
REMARK UNBOUND:                -0.572
REMARK  Name = 
REMARK  4 active torsions:
REMARK  status: ('A' for Active; 'I' for Inactive)
REMARK    1  A    between atoms: C_2  and  C_4
REMARK    2  A    between atoms: N_8  and  C_9
REMARK    3  A    between atoms: C_9  and  C_10
REMARK    4  A    between atoms: C_14  and  C_15
REMARK                            x       y       z     vdW  Elec       q    Type
REMARK                         _______ _______ _______ _____ _____    ______ ____
ROOT
ATOM      1  C   UNL     1      52.457   2.380  17.951  0.00  0.00    +0.000 A 
ATOM      2  C   UNL     1      51.812   3.597  18.132  0.00  0.00    +0.000 A 
ATOM      3  C   UNL     1      50.473   3.718  17.759  0.00  0.00    +0.000 A 
ATOM      4  C   UNL     1      49.803   2.630  17.215  0.00  0.00    +0.000 A 
ATOM      5  N   UNL     1      48.479   2.642  16.882  0.00  0.00    +0.000 N 
ATOM      6  N   UNL     1      50.430   1.455  17.004  0.00  0.00    +0.000 NA
ATOM      7  C   UNL     1      51.737   1.352  17.363  0.00  0.00    +0.000 A 
ATOM      8  H   UNL     1      48.164   1.777  16.460  0.00  0.00    +0.000 HD
ENDROOT
BRANCH   1  10
ATOM      9  N   UNL     1      54.122   2.049  19.685  0.00  0.00    +0.000 N 
ATOM     10  C   UNL     1      53.863   2.155  18.345  0.00  0.00    +0.000 C 
ATOM     11  O   UNL     1      54.751   2.034  17.514  0.00  0.00    +0.000 OA
ATOM     12  H   UNL     1      55.069   1.805  19.945  0.00  0.00    +0.000 HD
ATOM     13  H   UNL     1      53.398   1.898  20.373  0.00  0.00    +0.000 HD
ENDBRANCH   1  10
BRANCH   5  14
ATOM     14  C   UNL     1      47.577   3.765  16.956  0.00  0.00    +0.000 C 
BRANCH  14  15
ATOM     15  C   UNL     1      47.527   4.550  15.672  0.00  0.00    +0.000 A 
ATOM     16  C   UNL     1      48.314   5.681  15.509  0.00  0.00    +0.000 A 
ATOM     17  N   UNL     1      48.286   6.469  14.413  0.00  0.00    +0.000 NA
ATOM     18  C   UNL     1      47.423   6.116  13.429  0.00  0.00    +0.000 A 
ATOM     19  C   UNL     1      46.566   5.015  13.468  0.00  0.00    +0.000 A 
ATOM     20  C   UNL     1      46.639   4.235  14.633  0.00  0.00    +0.000 A 
BRANCH  19  21
ATOM     21  C   UNL     1      45.638   4.693  12.372  0.00  0.00    +0.000 A 
ATOM     22  C   UNL     1      45.576   5.412  11.185  0.00  0.00    +0.000 A 
ATOM     23  N   UNL     1      44.747   5.136  10.154  0.00  0.00    +0.000 NA
ATOM     24  C   UNL     1      43.931   4.090  10.328  0.00  0.00    +0.000 A 
ATOM     25  N   UNL     1      43.878   3.313  11.419  0.00  0.00    +0.000 NA
ATOM     26  C   UNL     1      44.739   3.637  12.411  0.00  0.00    +0.000 A 
ENDBRANCH  19  21
ENDBRANCH  14  15
ENDBRANCH   5  14
TORSDOF 4
ENDMDL
MODEL 6
REMARK VINA RESULT:    -6.317      3.231      6.958
REMARK INTER + INTRA:          -8.366
REMARK INTER:                  -7.844
REMARK INTRA:                  -0.522
REMARK UNBOUND:                -0.572
REMARK  Name = 
REMARK  4 active torsions:
REMARK  status: ('A' for Active; 'I' for Inactive)
REMARK    1  A    between atoms: C_2  and  C_4
REMARK    2  A    between atoms: N_8  and  C_9
REMARK    3  A    between atoms: C_9  and  C_10
REMARK    4  A    between atoms: C_14  and  C_15
REMARK                            x       y       z     vdW  Elec       q    Type
REMARK                         _______ _______ _______ _____ _____    ______ ____
ROOT
ATOM      1  C   UNL     1      48.847   8.814  12.328  0.00  0.00    +0.000 A 
ATOM      2  C   UNL     1      47.481   8.771  12.579  0.00  0.00    +0.000 A 
ATOM      3  C   UNL     1      46.909   7.577  13.020  0.00  0.00    +0.000 A 
ATOM      4  C   UNL     1      47.704   6.453  13.204  0.00  0.00    +0.000 A 
ATOM      5  N   UNL     1      47.240   5.265  13.693  0.00  0.00    +0.000 N 
ATOM      6  N   UNL     1      49.024   6.477  12.931  0.00  0.00    +0.000 NA
ATOM      7  C   UNL     1      49.568   7.643  12.493  0.00  0.00    +0.000 A 
ATOM      8  H   UNL     1      47.946   4.541  13.723  0.00  0.00    +0.000 HD
ENDROOT
BRANCH   1  10
ATOM      9  N   UNL     1      48.837  10.894  11.078  0.00  0.00    +0.000 N 
ATOM     10  C   UNL     1      49.539  10.043  11.888  0.00  0.00    +0.000 C 
ATOM     11  O   UNL     1      50.675  10.307  12.255  0.00  0.00    +0.000 OA
ATOM     12  H   UNL     1      49.281  11.776  10.853  0.00  0.00    +0.000 HD
ATOM     13  H   UNL     1      47.835  10.835  10.959  0.00  0.00    +0.000 HD
ENDBRANCH   1  10
BRANCH   5  14
ATOM     14  C   UNL     1      45.874   4.940  14.024  0.00  0.00    +0.000 C 
BRANCH  14  15
ATOM     15  C   UNL     1      45.042   4.634  12.807  0.00  0.00    +0.000 A 
ATOM     16  C   UNL     1      43.657   4.698  12.868  0.00  0.00    +0.000 A 
ATOM     17  N   UNL     1      42.841   4.385  11.840  0.00  0.00    +0.000 NA
ATOM     18  C   UNL     1      43.434   3.979  10.690  0.00  0.00    +0.000 A 
ATOM     19  C   UNL     1      44.811   3.856  10.496  0.00  0.00    +0.000 A 
ATOM     20  C   UNL     1      45.609   4.193  11.602  0.00  0.00    +0.000 A 
BRANCH  19  21
ATOM     21  C   UNL     1      45.395   3.393   9.228  0.00  0.00    +0.000 A 
ATOM     22  C   UNL     1      45.613   2.055   8.928  0.00  0.00    +0.000 A 
ATOM     23  N   UNL     1      46.134   1.594   7.769  0.00  0.00    +0.000 NA
ATOM     24  C   UNL     1      46.461   2.527   6.867  0.00  0.00    +0.000 A 
ATOM     25  N   UNL     1      46.311   3.850   7.023  0.00  0.00    +0.000 NA
ATOM     26  C   UNL     1      45.778   4.245   8.201  0.00  0.00    +0.000 A 
ENDBRANCH  19  21
ENDBRANCH  14  15
ENDBRANCH   5  14
TORSDOF 4
ENDMDL
MODEL 7
REMARK VINA RESULT:    -6.251      3.676      8.366
REMARK INTER + INTRA:          -8.284
REMARK INTER:                  -7.862
REMARK INTRA:                  -0.422
REMARK UNBOUND:                -0.572
REMARK  Name = 
REMARK  4 active torsions:
REMARK  status: ('A' for Active; 'I' for Inactive)
REMARK    1  A    between atoms: C_2  and  C_4
REMARK    2  A    between atoms: N_8  and  C_9
REMARK    3  A    between atoms: C_9  and  C_10
REMARK    4  A    between atoms: C_14  and  C_15
REMARK                            x       y       z     vdW  Elec       q    Type
REMARK                         _______ _______ _______ _____ _____    ______ ____
ROOT
ATOM      1  C   UNL     1      48.866   5.281  18.604  0.00  0.00    +0.000 A 
ATOM      2  C   UNL     1      48.783   6.612  18.217  0.00  0.00    +0.000 A 
ATOM      3  C   UNL     1      48.536   6.917  16.878  0.00  0.00    +0.000 A 
ATOM      4  C   UNL     1      48.375   5.893  15.952  0.00  0.00    +0.000 A 
ATOM      5  N   UNL     1      48.068   6.099  14.638  0.00  0.00    +0.000 N 
ATOM      6  N   UNL     1      48.487   4.599  16.312  0.00  0.00    +0.000 NA
ATOM      7  C   UNL     1      48.738   4.315  17.619  0.00  0.00    +0.000 A 
ATOM      8  H   UNL     1      48.029   5.244  14.097  0.00  0.00    +0.000 HD
ENDROOT
BRANCH   1  10
ATOM      9  N   UNL     1      48.586   3.657  20.385  0.00  0.00    +0.000 N 
ATOM     10  C   UNL     1      49.095   4.869  20.004  0.00  0.00    +0.000 C 
ATOM     11  O   UNL     1      49.738   5.561  20.780  0.00  0.00    +0.000 OA
ATOM     12  H   UNL     1      48.823   3.338  21.317  0.00  0.00    +0.000 HD
ATOM     13  H   UNL     1      48.272   2.961  19.723  0.00  0.00    +0.000 HD
ENDBRANCH   1  10
BRANCH   5  14
ATOM     14  C   UNL     1      47.934   7.370  13.968  0.00  0.00    +0.000 C 
BRANCH  14  15
ATOM     15  C   UNL     1      46.823   7.372  12.952  0.00  0.00    +0.000 A 
ATOM     16  C   UNL     1      45.989   8.474  12.826  0.00  0.00    +0.000 A 
ATOM     17  N   UNL     1      44.938   8.532  11.981  0.00  0.00    +0.000 NA
ATOM     18  C   UNL     1      44.701   7.433  11.224  0.00  0.00    +0.000 A 
ATOM     19  C   UNL     1      45.449   6.255  11.260  0.00  0.00    +0.000 A 
ATOM     20  C   UNL     1      46.527   6.253  12.161  0.00  0.00    +0.000 A 
BRANCH  19  21
ATOM     21  C   UNL     1      45.131   5.087  10.425  0.00  0.00    +0.000 A 
ATOM     22  C   UNL     1      44.298   4.055  10.838  0.00  0.00    +0.000 A 
ATOM     23  N   UNL     1      43.973   2.975  10.092  0.00  0.00    +0.000 NA
ATOM     24  C   UNL     1      44.520   2.925   8.872  0.00  0.00    +0.000 A 
ATOM     25  N   UNL     1      45.342   3.843   8.347  0.00  0.00    +0.000 NA
ATOM     26  C   UNL     1      45.621   4.903   9.140  0.00  0.00    +0.000 A 
ENDBRANCH  19  21
ENDBRANCH  14  15
ENDBRANCH   5  14
TORSDOF 4
ENDMDL
MODEL 8
REMARK VINA RESULT:    -5.928      3.122      4.543
REMARK INTER + INTRA:          -7.886
REMARK INTER:                  -7.273
REMARK INTRA:                  -0.613
REMARK UNBOUND:                -0.572
REMARK  Name = 
REMARK  4 active torsions:
REMARK  status: ('A' for Active; 'I' for Inactive)
REMARK    1  A    between atoms: C_2  and  C_4
REMARK    2  A    between atoms: N_8  and  C_9
REMARK    3  A    between atoms: C_9  and  C_10
REMARK    4  A    between atoms: C_14  and  C_15
REMARK                            x       y       z     vdW  Elec       q    Type
REMARK                         _______ _______ _______ _____ _____    ______ ____
ROOT
ATOM      1  C   UNL     1      44.426   4.262  11.214  0.00  0.00    +0.000 A 
ATOM      2  C   UNL     1      45.174   5.177  10.483  0.00  0.00    +0.000 A 
ATOM      3  C   UNL     1      45.406   6.444  11.016  0.00  0.00    +0.000 A 
ATOM      4  C   UNL     1      44.892   6.778  12.263  0.00  0.00    +0.000 A 
ATOM      5  N   UNL     1      45.124   7.970  12.887  0.00  0.00    +0.000 N 
ATOM      6  N   UNL     1      44.137   5.908  12.964  0.00  0.00    +0.000 NA
ATOM      7  C   UNL     1      43.909   4.679  12.430  0.00  0.00    +0.000 A 
ATOM      8  H   UNL     1      44.639   8.060  13.771  0.00  0.00    +0.000 HD
ENDROOT
BRANCH   1  10
ATOM      9  N   UNL     1      43.412   2.084  11.557  0.00  0.00    +0.000 N 
ATOM     10  C   UNL     1      44.157   2.889  10.738  0.00  0.00    +0.000 C 
ATOM     11  O   UNL     1      44.551   2.498   9.649  0.00  0.00    +0.000 OA
ATOM     12  H   UNL     1      43.153   1.177  11.188  0.00  0.00    +0.000 HD
ATOM     13  H   UNL     1      42.871   2.441  12.332  0.00  0.00    +0.000 HD
ENDBRANCH   1  10
BRANCH   5  14
ATOM     14  C   UNL     1      45.853   9.097  12.358  0.00  0.00    +0.000 C 
BRANCH  14  15
ATOM     15  C   UNL     1      47.256   9.181  12.896  0.00  0.00    +0.000 A 
ATOM     16  C   UNL     1      48.136  10.142  12.418  0.00  0.00    +0.000 A 
ATOM     17  N   UNL     1      49.424  10.246  12.808  0.00  0.00    +0.000 NA
ATOM     18  C   UNL     1      49.862   9.341  13.718  0.00  0.00    +0.000 A 
ATOM     19  C   UNL     1      49.091   8.317  14.269  0.00  0.00    +0.000 A 
ATOM     20  C   UNL     1      47.761   8.257  13.823  0.00  0.00    +0.000 A 
BRANCH  19  21
ATOM     21  C   UNL     1      49.630   7.354  15.242  0.00  0.00    +0.000 A 
ATOM     22  C   UNL     1      50.945   7.371  15.688  0.00  0.00    +0.000 A 
ATOM     23  N   UNL     1      51.470   6.512  16.590  0.00  0.00    +0.000 NA
ATOM     24  C   UNL     1      50.632   5.581  17.061  0.00  0.00    +0.000 A 
ATOM     25  N   UNL     1      49.345   5.443  16.717  0.00  0.00    +0.000 NA
ATOM     26  C   UNL     1      48.879   6.338  15.817  0.00  0.00    +0.000 A 
ENDBRANCH  19  21
ENDBRANCH  14  15
ENDBRANCH   5  14
TORSDOF 4
ENDMDL
MODEL 9
REMARK VINA RESULT:    -5.924      5.255      7.461
REMARK INTER + INTRA:          -7.880
REMARK INTER:                  -7.403
REMARK INTRA:                  -0.477
REMARK UNBOUND:                -0.572
REMARK  Name = 
REMARK  4 active torsions:
REMARK  status: ('A' for Active; 'I' for Inactive)
REMARK    1  A    between atoms: C_2  and  C_4
REMARK    2  A    between atoms: N_8  and  C_9
REMARK    3  A    between atoms: C_9  and  C_10
REMARK    4  A    between atoms: C_14  and  C_15
REMARK                            x       y       z     vdW  Elec       q    Type
REMARK                         _______ _______ _______ _____ _____    ______ ____
ROOT
ATOM      1  C   UNL     1      45.450   4.759  12.269  0.00  0.00    +0.000 A 
ATOM      2  C   UNL     1      45.657   5.876  11.469  0.00  0.00    +0.000 A 
ATOM      3  C   UNL     1      46.795   6.657  11.674  0.00  0.00    +0.000 A 
ATOM      4  C   UNL     1      47.702   6.313  12.669  0.00  0.00    +0.000 A 
ATOM      5  N   UNL     1      48.870   6.983  12.896  0.00  0.00    +0.000 N 
ATOM      6  N   UNL     1      47.492   5.251  13.472  0.00  0.00    +0.000 NA
ATOM      7  C   UNL     1      46.375   4.503  13.268  0.00  0.00    +0.000 A 
ATOM      8  H   UNL     1      49.391   6.623  13.685  0.00  0.00    +0.000 HD
ENDROOT
BRANCH   1  10
ATOM      9  N   UNL     1      44.455   2.556  12.480  0.00  0.00    +0.000 N 
ATOM     10  C   UNL     1      44.289   3.860  12.101  0.00  0.00    +0.000 C 
ATOM     11  O   UNL     1      43.218   4.268  11.676  0.00  0.00    +0.000 OA
ATOM     12  H   UNL     1      43.632   1.966  12.448  0.00  0.00    +0.000 HD
ATOM     13  H   UNL     1      45.226   2.245  13.053  0.00  0.00    +0.000 HD
ENDBRANCH   1  10
BRANCH   5  14
ATOM     14  C   UNL     1      49.330   8.175  12.225  0.00  0.00    +0.000 C 
BRANCH  14  15
ATOM     15  C   UNL     1      50.771   8.078  11.800  0.00  0.00    +0.000 A 
ATOM     16  C   UNL     1      51.754   8.782  12.482  0.00  0.00    +0.000 A 
ATOM     17  N   UNL     1      53.056   8.792  12.130  0.00  0.00    +0.000 NA
ATOM     18  C   UNL     1      53.400   8.068  11.035  0.00  0.00    +0.000 A 
ATOM     19  C   UNL     1      52.513   7.328  10.251  0.00  0.00    +0.000 A 
ATOM     20  C   UNL     1      51.172   7.358  10.665  0.00  0.00    +0.000 A 
BRANCH  19  21
ATOM     21  C   UNL     1      52.945   6.575   9.063  0.00  0.00    +0.000 A 
ATOM     22  C   UNL     1      53.936   5.602   9.091  0.00  0.00    +0.000 A 
ATOM     23  N   UNL     1      54.347   4.883   8.024  0.00  0.00    +0.000 NA
ATOM     24  C   UNL     1      53.737   5.161   6.865  0.00  0.00    +0.000 A 
ATOM     25  N   UNL     1      52.772   6.074   6.690  0.00  0.00    +0.000 NA
ATOM     26  C   UNL     1      52.401   6.754   7.799  0.00  0.00    +0.000 A 
ENDBRANCH  19  21
ENDBRANCH  14  15
ENDBRANCH   5  14
TORSDOF 4
ENDMDL
