MODEL 1
REMARK VINA RESULT:    -7.827      0.000      0.000
REMARK INTER + INTRA:         -11.082
REMARK INTER:                 -10.344
REMARK INTRA:                  -0.738
REMARK UNBOUND:                -0.738
REMARK  Name = 
REMARK  6 active torsions:
REMARK  status: ('A' for Active; 'I' for Inactive)
REMARK    1  A    between atoms: N_1  and  C_2
REMARK    2  A    between atoms: C_2  and  C_3
REMARK    3  A    between atoms: C_3  and  C_4
REMARK    4  A    between atoms: C_7  and  C_8
REMARK    5  A    between atoms: C_8  and  N_9
REMARK    6  A    between atoms: C_14  and  C_15
REMARK                            x       y       z     vdW  Elec       q    Type
REMARK                         _______ _______ _______ _____ _____    ______ ____
ROOT
ATOM      1  N   UNL     1      43.841   4.277  10.536  0.00  0.00    +0.000 N 
ATOM      2  C   UNL     1      43.387   3.139  11.149  0.00  0.00    +0.000 A 
ATOM      3  N   UNL     1      43.877   2.055  10.594  0.00  0.00    +0.000 NA
ATOM      4  C   UNL     1      44.673   2.503   9.574  0.00  0.00    +0.000 A 
ATOM      5  C   UNL     1      45.558   1.785   8.759  0.00  0.00    +0.000 A 
ATOM      6  C   UNL     1      46.330   2.477   7.811  0.00  0.00    +0.000 A 
ATOM      7  C   UNL     1      46.112   3.846   7.597  0.00  0.00    +0.000 A 
ATOM      8  C   UNL     1      45.225   4.580   8.404  0.00  0.00    +0.000 A 
ATOM      9  C   UNL     1      44.576   3.885   9.431  0.00  0.00    +0.000 A 
ENDROOT
BRANCH   6  10
ATOM     10  C   UNL     1      47.428   1.710   7.153  0.00  0.00    +0.000 C 
ATOM     11  N   UNL     1      48.419   2.389   6.501  0.00  0.00    +0.000 N 
ATOM     12  O   UNL     1      47.491   0.487   7.231  0.00  0.00    +0.000 OA
ATOM     13  H   UNL     1      48.460   3.385   6.367  0.00  0.00    +0.000 HD
ATOM     14  H   UNL     1      49.179   1.826   6.138  0.00  0.00    +0.000 HD
ENDBRANCH   6  10
BRANCH   1  15
ATOM     15  C   UNL     1      43.955   5.587  11.173  0.00  0.00    +0.000 C 
BRANCH  15  19
ATOM     16  C   UNL     1      47.753   6.481  13.059  0.00  0.00    +0.000 A 
ATOM     17  C   UNL     1      47.402   7.089  11.850  0.00  0.00    +0.000 A 
ATOM     18  C   UNL     1      46.181   6.794  11.235  0.00  0.00    +0.000 A 
ATOM     19  C   UNL     1      45.285   5.882  11.818  0.00  0.00    +0.000 A 
ATOM     20  C   UNL     1      45.634   5.278  13.033  0.00  0.00    +0.000 A 
ATOM     21  C   UNL     1      46.851   5.586  13.650  0.00  0.00    +0.000 A 
BRANCH  16  22
ATOM     22  C   UNL     1      49.083   6.770  13.716  0.00  0.00    +0.000 C 
BRANCH  22  23
ATOM     23  C   UNL     1      48.969   7.012  15.226  0.00  0.00    +0.000 C 
BRANCH  23  24
ATOM     24  N   UNL     1      49.808   6.072  15.969  0.00  0.00    +0.000 NA
ATOM     25  H   UNL     1      49.541   6.085  16.954  0.00  0.00    +0.000 HD
ATOM     26  H   UNL     1      50.781   6.373  15.934  0.00  0.00    +0.000 HD
ENDBRANCH  23  24
ENDBRANCH  22  23
ENDBRANCH  16  22
ENDBRANCH  15  19
ENDBRANCH   1  15
TORSDOF 6
ENDMDL
MODEL 2
REMARK VINA RESULT:    -7.699      2.560      6.448
REMARK INTER + INTRA:         -10.912
REMARK INTER:                 -10.292
REMARK INTRA:                  -0.620
REMARK UNBOUND:                -0.738
REMARK  Name = 
REMARK  6 active torsions:
REMARK  status: ('A' for Active; 'I' for Inactive)
REMARK    1  A    between atoms: N_1  and  C_2
REMARK    2  A    between atoms: C_2  and  C_3
REMARK    3  A    between atoms: C_3  and  C_4
REMARK    4  A    between atoms: C_7  and  C_8
REMARK    5  A    between atoms: C_8  and  N_9
REMARK    6  A    between atoms: C_14  and  C_15
REMARK                            x       y       z     vdW  Elec       q    Type
REMARK                         _______ _______ _______ _____ _____    ______ ____
ROOT
ATOM      1  N   UNL     1      43.835   5.888  11.563  0.00  0.00    +0.000 N 
ATOM      2  C   UNL     1      43.667   7.152  11.061  0.00  0.00    +0.000 A 
ATOM      3  N   UNL     1      44.668   7.942  11.378  0.00  0.00    +0.000 NA
ATOM      4  C   UNL     1      45.515   7.165  12.123  0.00  0.00    +0.000 A 
ATOM      5  C   UNL     1      46.806   7.453  12.584  0.00  0.00    +0.000 A 
ATOM      6  C   UNL     1      47.520   6.465  13.281  0.00  0.00    +0.000 A 
ATOM      7  C   UNL     1      46.890   5.259  13.625  0.00  0.00    +0.000 A 
ATOM      8  C   UNL     1      45.593   4.957  13.174  0.00  0.00    +0.000 A 
ATOM      9  C   UNL     1      44.964   5.909  12.364  0.00  0.00    +0.000 A 
ENDROOT
BRANCH   6  10
ATOM     10  C   UNL     1      48.969   6.730  13.524  0.00  0.00    +0.000 C 
ATOM     11  N   UNL     1      49.769   7.077  12.472  0.00  0.00    +0.000 N 
ATOM     12  O   UNL     1      49.445   6.697  14.654  0.00  0.00    +0.000 OA
ATOM     13  H   UNL     1      49.487   7.123  11.508  0.00  0.00    +0.000 HD
ATOM     14  H   UNL     1      50.726   7.319  12.703  0.00  0.00    +0.000 HD
ENDBRANCH   6  10
BRANCH   1  15
ATOM     15  C   UNL     1      43.257   4.674  10.993  0.00  0.00    +0.000 C 
BRANCH  15  19
ATOM     16  C   UNL     1      45.832   2.530   8.245  0.00  0.00    +0.000 A 
ATOM     17  C   UNL     1      45.788   3.928   8.231  0.00  0.00    +0.000 A 
ATOM     18  C   UNL     1      44.951   4.621   9.110  0.00  0.00    +0.000 A 
ATOM     19  C   UNL     1      44.137   3.929  10.022  0.00  0.00    +0.000 A 
ATOM     20  C   UNL     1      44.185   2.528  10.041  0.00  0.00    +0.000 A 
ATOM     21  C   UNL     1      45.034   1.840   9.168  0.00  0.00    +0.000 A 
BRANCH  16  22
ATOM     22  C   UNL     1      46.711   1.772   7.277  0.00  0.00    +0.000 C 
BRANCH  22  23
ATOM     23  C   UNL     1      47.839   2.629   6.691  0.00  0.00    +0.000 C 
BRANCH  23  24
ATOM     24  N   UNL     1      48.611   1.870   5.706  0.00  0.00    +0.000 NA
ATOM     25  H   UNL     1      48.099   1.838   4.825  0.00  0.00    +0.000 HD
ATOM     26  H   UNL     1      48.709   0.903   6.014  0.00  0.00    +0.000 HD
ENDBRANCH  23  24
ENDBRANCH  22  23
ENDBRANCH  16  22
ENDBRANCH  15  19
ENDBRANCH   1  15
TORSDOF 6
ENDMDL
MODEL 3
REMARK VINA RESULT:    -6.802      2.838      6.803
REMARK INTER + INTRA:          -9.727
REMARK INTER:                  -9.560
REMARK INTRA:                  -0.167
REMARK UNBOUND:                -0.738
REMARK  Name = 
REMARK  6 active torsions:
REMARK  status: ('A' for Active; 'I' for Inactive)
REMARK    1  A    between atoms: N_1  and  C_2
REMARK    2  A    between atoms: C_2  and  C_3
REMARK    3  A    between atoms: C_3  and  C_4
REMARK    4  A    between atoms: C_7  and  C_8
REMARK    5  A    between atoms: C_8  and  N_9
REMARK    6  A    between atoms: C_14  and  C_15
REMARK                            x       y       z     vdW  Elec       q    Type
REMARK                         _______ _______ _______ _____ _____    ______ ____
ROOT
ATOM      1  N   UNL     1      44.046   4.948  11.430  0.00  0.00    +0.000 N 
ATOM      2  C   UNL     1      43.263   5.050  12.550  0.00  0.00    +0.000 A 
ATOM      3  N   UNL     1      43.751   5.914  13.411  0.00  0.00    +0.000 NA
ATOM      4  C   UNL     1      44.900   6.385  12.834  0.00  0.00    +0.000 A 
ATOM      5  C   UNL     1      45.731   7.436  13.243  0.00  0.00    +0.000 A 
ATOM      6  C   UNL     1      46.833   7.787  12.447  0.00  0.00    +0.000 A 
ATOM      7  C   UNL     1      47.168   7.003  11.332  0.00  0.00    +0.000 A 
ATOM      8  C   UNL     1      46.346   5.943  10.911  0.00  0.00    +0.000 A 
ATOM      9  C   UNL     1      45.181   5.709  11.649  0.00  0.00    +0.000 A 
ENDROOT
BRANCH   6  10
ATOM     10  C   UNL     1      47.528   9.063  12.789  0.00  0.00    +0.000 C 
ATOM     11  N   UNL     1      47.497   9.515  14.078  0.00  0.00    +0.000 N 
ATOM     12  O   UNL     1      48.173   9.686  11.951  0.00  0.00    +0.000 OA
ATOM     13  H   UNL     1      46.993   9.091  14.839  0.00  0.00    +0.000 HD
ATOM     14  H   UNL     1      48.047  10.343  14.272  0.00  0.00    +0.000 HD
ENDBRANCH   6  10
BRANCH   1  15
ATOM     15  C   UNL     1      43.573   4.542  10.108  0.00  0.00    +0.000 C 
BRANCH  15  19
ATOM     16  C   UNL     1      46.297   2.138   7.746  0.00  0.00    +0.000 A 
ATOM     17  C   UNL     1      45.489   1.542   8.719  0.00  0.00    +0.000 A 
ATOM     18  C   UNL     1      44.616   2.318   9.489  0.00  0.00    +0.000 A 
ATOM     19  C   UNL     1      44.536   3.708   9.302  0.00  0.00    +0.000 A 
ATOM     20  C   UNL     1      45.342   4.304   8.322  0.00  0.00    +0.000 A 
ATOM     21  C   UNL     1      46.203   3.522   7.546  0.00  0.00    +0.000 A 
BRANCH  16  22
ATOM     22  C   UNL     1      47.265   1.313   6.930  0.00  0.00    +0.000 C 
BRANCH  22  23
ATOM     23  C   UNL     1      48.451   2.128   6.399  0.00  0.00    +0.000 C 
BRANCH  23  24
ATOM     24  N   UNL     1      48.262   2.465   4.988  0.00  0.00    +0.000 NA
ATOM     25  H   UNL     1      47.661   1.767   4.551  0.00  0.00    +0.000 HD
ATOM     26  H   UNL     1      49.155   2.418   4.498  0.00  0.00    +0.000 HD
ENDBRANCH  23  24
ENDBRANCH  22  23
ENDBRANCH  16  22
ENDBRANCH  15  19
ENDBRANCH   1  15
TORSDOF 6
ENDMDL
MODEL 4
REMARK VINA RESULT:    -6.598      3.067      7.225
REMARK INTER + INTRA:          -9.458
REMARK INTER:                  -8.842
REMARK INTRA:                  -0.616
REMARK UNBOUND:                -0.738
REMARK  Name = 
REMARK  6 active torsions:
REMARK  status: ('A' for Active; 'I' for Inactive)
REMARK    1  A    between atoms: N_1  and  C_2
REMARK    2  A    between atoms: C_2  and  C_3
REMARK    3  A    between atoms: C_3  and  C_4
REMARK    4  A    between atoms: C_7  and  C_8
REMARK    5  A    between atoms: C_8  and  N_9
REMARK    6  A    between atoms: C_14  and  C_15
REMARK                            x       y       z     vdW  Elec       q    Type
REMARK                         _______ _______ _______ _____ _____    ______ ____
ROOT
ATOM      1  N   UNL     1      46.101   4.592  12.400  0.00  0.00    +0.000 N 
ATOM      2  C   UNL     1      46.388   3.767  13.455  0.00  0.00    +0.000 A 
ATOM      3  N   UNL     1      47.105   4.375  14.371  0.00  0.00    +0.000 NA
ATOM      4  C   UNL     1      47.301   5.643  13.890  0.00  0.00    +0.000 A 
ATOM      5  C   UNL     1      47.860   6.757  14.530  0.00  0.00    +0.000 A 
ATOM      6  C   UNL     1      47.896   7.987  13.854  0.00  0.00    +0.000 A 
ATOM      7  C   UNL     1      47.500   8.058  12.509  0.00  0.00    +0.000 A 
ATOM      8  C   UNL     1      46.939   6.948  11.853  0.00  0.00    +0.000 A 
ATOM      9  C   UNL     1      46.791   5.775  12.601  0.00  0.00    +0.000 A 
ENDROOT
BRANCH   6  10
ATOM     10  C   UNL     1      48.265   9.186  14.663  0.00  0.00    +0.000 C 
ATOM     11  N   UNL     1      47.738   9.334  15.915  0.00  0.00    +0.000 N 
ATOM     12  O   UNL     1      49.072  10.013  14.251  0.00  0.00    +0.000 OA
ATOM     13  H   UNL     1      47.062   8.726  16.345  0.00  0.00    +0.000 HD
ATOM     14  H   UNL     1      48.078  10.124  16.450  0.00  0.00    +0.000 HD
ENDBRANCH   6  10
BRANCH   1  15
ATOM     15  C   UNL     1      44.942   4.459  11.520  0.00  0.00    +0.000 C 
BRANCH  15  19
ATOM     16  C   UNL     1      45.853   3.045   7.526  0.00  0.00    +0.000 A 
ATOM     17  C   UNL     1      45.991   4.399   7.846  0.00  0.00    +0.000 A 
ATOM     18  C   UNL     1      45.688   4.859   9.132  0.00  0.00    +0.000 A 
ATOM     19  C   UNL     1      45.239   3.972  10.124  0.00  0.00    +0.000 A 
ATOM     20  C   UNL     1      45.106   2.614   9.805  0.00  0.00    +0.000 A 
ATOM     21  C   UNL     1      45.423   2.157   8.521  0.00  0.00    +0.000 A 
BRANCH  16  22
ATOM     22  C   UNL     1      46.148   2.544   6.131  0.00  0.00    +0.000 C 
BRANCH  22  23
ATOM     23  C   UNL     1      47.624   2.689   5.739  0.00  0.00    +0.000 C 
BRANCH  23  24
ATOM     24  N   UNL     1      48.457   1.750   6.490  0.00  0.00    +0.000 NA
ATOM     25  H   UNL     1      49.212   2.260   6.949  0.00  0.00    +0.000 HD
ATOM     26  H   UNL     1      48.904   1.095   5.850  0.00  0.00    +0.000 HD
ENDBRANCH  23  24
ENDBRANCH  22  23
ENDBRANCH  16  22
ENDBRANCH  15  19
ENDBRANCH   1  15
TORSDOF 6
ENDMDL
MODEL 5
REMARK VINA RESULT:    -6.131      4.147      6.173
REMARK INTER + INTRA:          -8.840
REMARK INTER:                  -8.368
REMARK INTRA:                  -0.472
REMARK UNBOUND:                -0.738
REMARK  Name = 
REMARK  6 active torsions:
REMARK  status: ('A' for Active; 'I' for Inactive)
REMARK    1  A    between atoms: N_1  and  C_2
REMARK    2  A    between atoms: C_2  and  C_3
REMARK    3  A    between atoms: C_3  and  C_4
REMARK    4  A    between atoms: C_7  and  C_8
REMARK    5  A    between atoms: C_8  and  N_9
REMARK    6  A    between atoms: C_14  and  C_15
REMARK                            x       y       z     vdW  Elec       q    Type
REMARK                         _______ _______ _______ _____ _____    ______ ____
ROOT
ATOM      1  N   UNL     1      47.460   5.088  14.726  0.00  0.00    +0.000 N 
ATOM      2  C   UNL     1      47.870   6.373  14.483  0.00  0.00    +0.000 A 
ATOM      3  N   UNL     1      47.349   6.853  13.377  0.00  0.00    +0.000 NA
ATOM      4  C   UNL     1      46.577   5.839  12.875  0.00  0.00    +0.000 A 
ATOM      5  C   UNL     1      45.675   5.858  11.803  0.00  0.00    +0.000 A 
ATOM      6  C   UNL     1      44.936   4.701  11.510  0.00  0.00    +0.000 A 
ATOM      7  C   UNL     1      45.201   3.508  12.199  0.00  0.00    +0.000 A 
ATOM      8  C   UNL     1      46.105   3.471  13.275  0.00  0.00    +0.000 A 
ATOM      9  C   UNL     1      46.722   4.677  13.629  0.00  0.00    +0.000 A 
ENDROOT
BRANCH   6  10
ATOM     10  C   UNL     1      43.817   4.850  10.532  0.00  0.00    +0.000 C 
ATOM     11  N   UNL     1      44.010   4.468   9.235  0.00  0.00    +0.000 N 
ATOM     12  O   UNL     1      42.713   5.258  10.879  0.00  0.00    +0.000 OA
ATOM     13  H   UNL     1      44.873   4.132   8.841  0.00  0.00    +0.000 HD
ATOM     14  H   UNL     1      43.198   4.519   8.631  0.00  0.00    +0.000 HD
ENDBRANCH   6  10
BRANCH   1  15
ATOM     15  C   UNL     1      47.384   4.466  16.045  0.00  0.00    +0.000 C 
BRANCH  15  19
ATOM     16  C   UNL     1      51.057   2.748  17.574  0.00  0.00    +0.000 A 
ATOM     17  C   UNL     1      50.814   4.120  17.692  0.00  0.00    +0.000 A 
ATOM     18  C   UNL     1      49.634   4.677  17.191  0.00  0.00    +0.000 A 
ATOM     19  C   UNL     1      48.672   3.872  16.558  0.00  0.00    +0.000 A 
ATOM     20  C   UNL     1      48.913   2.496  16.445  0.00  0.00    +0.000 A 
ATOM     21  C   UNL     1      50.089   1.942  16.960  0.00  0.00    +0.000 A 
BRANCH  16  22
ATOM     22  C   UNL     1      52.344   2.141  18.085  0.00  0.00    +0.000 C 
BRANCH  22  23
ATOM     23  C   UNL     1      52.684   0.803  17.417  0.00  0.00    +0.000 C 
BRANCH  23  24
ATOM     24  N   UNL     1      52.967  -0.223  18.421  0.00  0.00    +0.000 NA
ATOM     25  H   UNL     1      52.601   0.077  19.325  0.00  0.00    +0.000 HD
ATOM     26  H   UNL     1      53.975  -0.321  18.541  0.00  0.00    +0.000 HD
ENDBRANCH  23  24
ENDBRANCH  22  23
ENDBRANCH  16  22
ENDBRANCH  15  19
ENDBRANCH   1  15
TORSDOF 6
ENDMDL
MODEL 6
REMARK VINA RESULT:    -6.047      3.324      6.693
REMARK INTER + INTRA:          -8.729
REMARK INTER:                  -8.330
REMARK INTRA:                  -0.399
REMARK UNBOUND:                -0.738
REMARK  Name = 
REMARK  6 active torsions:
REMARK  status: ('A' for Active; 'I' for Inactive)
REMARK    1  A    between atoms: N_1  and  C_2
REMARK    2  A    between atoms: C_2  and  C_3
REMARK    3  A    between atoms: C_3  and  C_4
REMARK    4  A    between atoms: C_7  and  C_8
REMARK    5  A    between atoms: C_8  and  N_9
REMARK    6  A    between atoms: C_14  and  C_15
REMARK                            x       y       z     vdW  Elec       q    Type
REMARK                         _______ _______ _______ _____ _____    ______ ____
ROOT
ATOM      1  N   UNL     1      45.794   7.291  12.938  0.00  0.00    +0.000 N 
ATOM      2  C   UNL     1      45.257   8.504  12.599  0.00  0.00    +0.000 A 
ATOM      3  N   UNL     1      46.175   9.348  12.186  0.00  0.00    +0.000 NA
ATOM      4  C   UNL     1      47.357   8.660  12.269  0.00  0.00    +0.000 A 
ATOM      5  C   UNL     1      48.628   9.024  11.806  0.00  0.00    +0.000 A 
ATOM      6  C   UNL     1      49.692   8.117  11.945  0.00  0.00    +0.000 A 
ATOM      7  C   UNL     1      49.505   6.923  12.658  0.00  0.00    +0.000 A 
ATOM      8  C   UNL     1      48.236   6.546  13.131  0.00  0.00    +0.000 A 
ATOM      9  C   UNL     1      47.170   7.410  12.854  0.00  0.00    +0.000 A 
ENDROOT
BRANCH   6  10
ATOM     10  C   UNL     1      50.952   8.446  11.215  0.00  0.00    +0.000 C 
ATOM     11  N   UNL     1      51.798   7.436  10.855  0.00  0.00    +0.000 N 
ATOM     12  O   UNL     1      51.218   9.598  10.884  0.00  0.00    +0.000 OA
ATOM     13  H   UNL     1      51.684   6.463  11.083  0.00  0.00    +0.000 HD
ATOM     14  H   UNL     1      52.600   7.705  10.297  0.00  0.00    +0.000 HD
ENDBRANCH   6  10
BRANCH   1  15
ATOM     15  C   UNL     1      45.079   6.017  12.908  0.00  0.00    +0.000 C 
BRANCH  15  19
ATOM     16  C   UNL     1      45.103   3.949   9.100  0.00  0.00    +0.000 A 
ATOM     17  C   UNL     1      45.728   5.193   9.234  0.00  0.00    +0.000 A 
ATOM     18  C   UNL     1      45.713   5.866  10.460  0.00  0.00    +0.000 A 
ATOM     19  C   UNL     1      45.069   5.308  11.578  0.00  0.00    +0.000 A 
ATOM     20  C   UNL     1      44.448   4.059  11.444  0.00  0.00    +0.000 A 
ATOM     21  C   UNL     1      44.478   3.384  10.219  0.00  0.00    +0.000 A 
BRANCH  16  22
ATOM     22  C   UNL     1      45.087   3.228   7.772  0.00  0.00    +0.000 C 
BRANCH  22  23
ATOM     23  C   UNL     1      46.491   2.897   7.251  0.00  0.00    +0.000 C 
BRANCH  23  24
ATOM     24  N   UNL     1      46.922   3.878   6.254  0.00  0.00    +0.000 NA
ATOM     25  H   UNL     1      47.446   4.621   6.715  0.00  0.00    +0.000 HD
ATOM     26  H   UNL     1      46.107   4.323   5.832  0.00  0.00    +0.000 HD
ENDBRANCH  23  24
ENDBRANCH  22  23
ENDBRANCH  16  22
ENDBRANCH  15  19
ENDBRANCH   1  15
TORSDOF 6
ENDMDL
MODEL 7
REMARK VINA RESULT:    -5.837      1.634      2.071
REMARK INTER + INTRA:          -8.452
REMARK INTER:                  -8.001
REMARK INTRA:                  -0.451
REMARK UNBOUND:                -0.738
REMARK  Name = 
REMARK  6 active torsions:
REMARK  status: ('A' for Active; 'I' for Inactive)
REMARK    1  A    between atoms: N_1  and  C_2
REMARK    2  A    between atoms: C_2  and  C_3
REMARK    3  A    between atoms: C_3  and  C_4
REMARK    4  A    between atoms: C_7  and  C_8
REMARK    5  A    between atoms: C_8  and  N_9
REMARK    6  A    between atoms: C_14  and  C_15
REMARK                            x       y       z     vdW  Elec       q    Type
REMARK                         _______ _______ _______ _____ _____    ______ ____
ROOT
ATOM      1  N   UNL     1      44.270   5.508  12.054  0.00  0.00    +0.000 N 
ATOM      2  C   UNL     1      44.393   4.650  13.115  0.00  0.00    +0.000 A 
ATOM      3  N   UNL     1      44.713   3.436  12.729  0.00  0.00    +0.000 NA
ATOM      4  C   UNL     1      44.792   3.504  11.363  0.00  0.00    +0.000 A 
ATOM      5  C   UNL     1      45.251   2.544  10.452  0.00  0.00    +0.000 A 
ATOM      6  C   UNL     1      45.304   2.865   9.087  0.00  0.00    +0.000 A 
ATOM      7  C   UNL     1      44.775   4.084   8.634  0.00  0.00    +0.000 A 
ATOM      8  C   UNL     1      44.307   5.057   9.535  0.00  0.00    +0.000 A 
ATOM      9  C   UNL     1      44.398   4.757  10.899  0.00  0.00    +0.000 A 
ENDROOT
BRANCH   6  10
ATOM     10  C   UNL     1      46.031   1.909   8.200  0.00  0.00    +0.000 C 
ATOM     11  N   UNL     1      46.782   2.395   7.168  0.00  0.00    +0.000 N 
ATOM     12  O   UNL     1      46.014   0.700   8.412  0.00  0.00    +0.000 OA
ATOM     13  H   UNL     1      46.857   3.361   6.898  0.00  0.00    +0.000 HD
ATOM     14  H   UNL     1      47.315   1.710   6.644  0.00  0.00    +0.000 HD
ENDBRANCH   6  10
BRANCH   1  15
ATOM     15  C   UNL     1      44.462   6.955  12.117  0.00  0.00    +0.000 C 
BRANCH  15  19
ATOM     16  C   UNL     1      48.540   8.313  12.673  0.00  0.00    +0.000 A 
ATOM     17  C   UNL     1      48.259   7.252  11.806  0.00  0.00    +0.000 A 
ATOM     18  C   UNL     1      46.945   6.806  11.633  0.00  0.00    +0.000 A 
ATOM     19  C   UNL     1      45.884   7.413  12.326  0.00  0.00    +0.000 A 
ATOM     20  C   UNL     1      46.165   8.480  13.190  0.00  0.00    +0.000 A 
ATOM     21  C   UNL     1      47.480   8.930  13.349  0.00  0.00    +0.000 A 
BRANCH  16  22
ATOM     22  C   UNL     1      49.961   8.782  12.890  0.00  0.00    +0.000 C 
BRANCH  22  23
ATOM     23  C   UNL     1      50.546   8.325  14.232  0.00  0.00    +0.000 C 
BRANCH  23  24
ATOM     24  N   UNL     1      50.090   6.975  14.566  0.00  0.00    +0.000 NA
ATOM     25  H   UNL     1      49.471   6.635  13.830  0.00  0.00    +0.000 HD
ATOM     26  H   UNL     1      49.531   7.000  15.419  0.00  0.00    +0.000 HD
ENDBRANCH  23  24
ENDBRANCH  22  23
ENDBRANCH  16  22
ENDBRANCH  15  19
ENDBRANCH   1  15
TORSDOF 6
ENDMDL
MODEL 8
REMARK VINA RESULT:    -5.502      3.440      6.112
REMARK INTER + INTRA:          -8.009
REMARK INTER:                  -7.418
REMARK INTRA:                  -0.590
REMARK UNBOUND:                -0.738
REMARK  Name = 
REMARK  6 active torsions:
REMARK  status: ('A' for Active; 'I' for Inactive)
REMARK    1  A    between atoms: N_1  and  C_2
REMARK    2  A    between atoms: C_2  and  C_3
REMARK    3  A    between atoms: C_3  and  C_4
REMARK    4  A    between atoms: C_7  and  C_8
REMARK    5  A    between atoms: C_8  and  N_9
REMARK    6  A    between atoms: C_14  and  C_15
REMARK                            x       y       z     vdW  Elec       q    Type
REMARK                         _______ _______ _______ _____ _____    ______ ____
ROOT
ATOM      1  N   UNL     1      48.258   6.756  13.979  0.00  0.00    +0.000 N 
ATOM      2  C   UNL     1      48.827   7.494  12.975  0.00  0.00    +0.000 A 
ATOM      3  N   UNL     1      48.161   7.384  11.848  0.00  0.00    +0.000 NA
ATOM      4  C   UNL     1      47.125   6.533  12.127  0.00  0.00    +0.000 A 
ATOM      5  C   UNL     1      46.020   6.194  11.335  0.00  0.00    +0.000 A 
ATOM      6  C   UNL     1      45.036   5.342  11.862  0.00  0.00    +0.000 A 
ATOM      7  C   UNL     1      45.233   4.737  13.113  0.00  0.00    +0.000 A 
ATOM      8  C   UNL     1      46.337   5.065  13.918  0.00  0.00    +0.000 A 
ATOM      9  C   UNL     1      47.227   6.023  13.418  0.00  0.00    +0.000 A 
ENDROOT
BRANCH   6  10
ATOM     10  C   UNL     1      43.769   5.217  11.082  0.00  0.00    +0.000 C 
ATOM     11  N   UNL     1      43.826   4.819   9.776  0.00  0.00    +0.000 N 
ATOM     12  O   UNL     1      42.675   5.411  11.603  0.00  0.00    +0.000 OA
ATOM     13  H   UNL     1      44.665   4.645   9.250  0.00  0.00    +0.000 HD
ATOM     14  H   UNL     1      42.935   4.677   9.316  0.00  0.00    +0.000 HD
ENDBRANCH   6  10
BRANCH   1  15
ATOM     15  C   UNL     1      48.376   7.046  15.406  0.00  0.00    +0.000 C 
BRANCH  15  19
ATOM     16  C   UNL     1      50.920   4.395  17.704  0.00  0.00    +0.000 A 
ATOM     17  C   UNL     1      51.455   5.529  17.084  0.00  0.00    +0.000 A 
ATOM     18  C   UNL     1      50.637   6.380  16.334  0.00  0.00    +0.000 A 
ATOM     19  C   UNL     1      49.266   6.113  16.187  0.00  0.00    +0.000 A 
ATOM     20  C   UNL     1      48.729   4.980  16.813  0.00  0.00    +0.000 A 
ATOM     21  C   UNL     1      49.549   4.139  17.573  0.00  0.00    +0.000 A 
BRANCH  16  22
ATOM     22  C   UNL     1      51.801   3.452  18.491  0.00  0.00    +0.000 C 
BRANCH  22  23
ATOM     23  C   UNL     1      52.304   2.265  17.660  0.00  0.00    +0.000 C 
BRANCH  23  24
ATOM     24  N   UNL     1      51.690   1.016  18.112  0.00  0.00    +0.000 NA
ATOM     25  H   UNL     1      51.488   1.080  19.110  0.00  0.00    +0.000 HD
ATOM     26  H   UNL     1      52.350   0.247  18.004  0.00  0.00    +0.000 HD
ENDBRANCH  23  24
ENDBRANCH  22  23
ENDBRANCH  16  22
ENDBRANCH  15  19
ENDBRANCH   1  15
TORSDOF 6
ENDMDL
MODEL 9
REMARK VINA RESULT:    -5.399      4.256      6.272
REMARK INTER + INTRA:          -7.873
REMARK INTER:                  -7.141
REMARK INTRA:                  -0.732
REMARK UNBOUND:                -0.738
REMARK  Name = 
REMARK  6 active torsions:
REMARK  status: ('A' for Active; 'I' for Inactive)
REMARK    1  A    between atoms: N_1  and  C_2
REMARK    2  A    between atoms: C_2  and  C_3
REMARK    3  A    between atoms: C_3  and  C_4
REMARK    4  A    between atoms: C_7  and  C_8
REMARK    5  A    between atoms: C_8  and  N_9
REMARK    6  A    between atoms: C_14  and  C_15
REMARK                            x       y       z     vdW  Elec       q    Type
REMARK                         _______ _______ _______ _____ _____    ______ ____
ROOT
ATOM      1  N   UNL     1      48.058   8.511  12.994  0.00  0.00    +0.000 N 
ATOM      2  C   UNL     1      47.311   9.573  12.558  0.00  0.00    +0.000 A 
ATOM      3  N   UNL     1      46.087   9.213  12.243  0.00  0.00    +0.000 NA
ATOM      4  C   UNL     1      46.039   7.864  12.473  0.00  0.00    +0.000 A 
ATOM      5  C   UNL     1      44.936   7.000  12.455  0.00  0.00    +0.000 A 
ATOM      6  C   UNL     1      45.119   5.650  12.794  0.00  0.00    +0.000 A 
ATOM      7  C   UNL     1      46.414   5.153  13.012  0.00  0.00    +0.000 A 
ATOM      8  C   UNL     1      47.531   6.006  13.030  0.00  0.00    +0.000 A 
ATOM      9  C   UNL     1      47.293   7.370  12.825  0.00  0.00    +0.000 A 
ENDROOT
BRANCH   6  10
ATOM     10  C   UNL     1      43.884   4.839  13.005  0.00  0.00    +0.000 C 
ATOM     11  N   UNL     1      42.668   5.462  13.008  0.00  0.00    +0.000 N 
ATOM     12  O   UNL     1      43.932   3.618  13.122  0.00  0.00    +0.000 OA
ATOM     13  H   UNL     1      42.515   6.453  12.932  0.00  0.00    +0.000 HD
ATOM     14  H   UNL     1      41.859   4.857  13.079  0.00  0.00    +0.000 HD
ENDBRANCH   6  10
BRANCH   1  15
ATOM     15  C   UNL     1      49.203   8.603  13.897  0.00  0.00    +0.000 C 
BRANCH  15  19
ATOM     16  C   UNL     1      48.478   7.541  18.035  0.00  0.00    +0.000 A 
ATOM     17  C   UNL     1      49.187   6.675  17.195  0.00  0.00    +0.000 A 
ATOM     18  C   UNL     1      49.413   7.013  15.857  0.00  0.00    +0.000 A 
ATOM     19  C   UNL     1      48.933   8.223  15.330  0.00  0.00    +0.000 A 
ATOM     20  C   UNL     1      48.228   9.093  16.173  0.00  0.00    +0.000 A 
ATOM     21  C   UNL     1      48.015   8.756  17.514  0.00  0.00    +0.000 A 
BRANCH  16  22
ATOM     22  C   UNL     1      48.201   7.171  19.474  0.00  0.00    +0.000 C 
BRANCH  22  23
ATOM     23  C   UNL     1      47.707   5.729  19.640  0.00  0.00    +0.000 C 
BRANCH  23  24
ATOM     24  N   UNL     1      46.451   5.522  18.918  0.00  0.00    +0.000 NA
ATOM     25  H   UNL     1      45.723   6.104  19.331  0.00  0.00    +0.000 HD
ATOM     26  H   UNL     1      46.142   4.557  19.031  0.00  0.00    +0.000 HD
ENDBRANCH  23  24
ENDBRANCH  22  23
ENDBRANCH  16  22
ENDBRANCH  15  19
ENDBRANCH   1  15
TORSDOF 6
ENDMDL
