MODEL 1
REMARK VINA RESULT:    -8.061      0.000      0.000
REMARK INTER + INTRA:         -11.831
REMARK INTER:                 -10.888
REMARK INTRA:                  -0.942
REMARK UNBOUND:                -0.942
REMARK  Name = 
REMARK  7 active torsions:
REMARK  status: ('A' for Active; 'I' for Inactive)
REMARK    1  A    between atoms: C_1  and  C_2
REMARK    2  A    between atoms: C_2  and  N_3
REMARK    3  A    between atoms: C_2  and  C_16
REMARK    4  A    between atoms: C_4  and  C_6
REMARK    5  A    between atoms: C_19  and  C_20
REMARK    6  A    between atoms: C_20  and  N_21
REMARK    7  A    between atoms: C_22  and  C_24
REMARK                            x       y       z     vdW  Elec       q    Type
REMARK                         _______ _______ _______ _____ _____    ______ ____
ROOT
ATOM      1  C   UNL     1      46.376   9.021  13.197  0.00  0.00    +0.000 C 
ATOM      2  C   UNL     1      47.089   7.661  13.204  0.00  0.00    +0.000 C 
ENDROOT
BRANCH   2   3
ATOM      3  C   UNL     1      46.161   6.613  12.584  0.00  0.00    +0.000 A 
ATOM      4  C   UNL     1      45.086   7.006  11.784  0.00  0.00    +0.000 A 
ATOM      5  C   UNL     1      44.319   6.035  11.144  0.00  0.00    +0.000 A 
ATOM      6  C   UNL     1      44.630   4.687  11.310  0.00  0.00    +0.000 A 
ATOM      7  C   UNL     1      45.682   4.382  12.168  0.00  0.00    +0.000 A 
ATOM      8  N   UNL     1      46.447   5.306  12.799  0.00  0.00    +0.000 NA
BRANCH   6   9
ATOM      9  C   UNL     1      43.863   3.611  10.602  0.00  0.00    +0.000 C 
BRANCH   9  10
ATOM     10  N   UNL     1      44.719   2.794   9.776  0.00  0.00    +0.000 N 
ATOM     11  C   UNL     1      45.227   3.273   8.594  0.00  0.00    +0.000 C 
ATOM     12  O   UNL     1      44.952   4.388   8.160  0.00  0.00    +0.000 OA
ATOM     13  H   UNL     1      45.021   1.900  10.133  0.00  0.00    +0.000 HD
BRANCH  11  14
ATOM     14  C   UNL     1      46.120   2.380   7.899  0.00  0.00    +0.000 A 
ATOM     15  C   UNL     1      46.320   1.014   7.960  0.00  0.00    +0.000 A 
ATOM     16  N   UNL     1      47.308   0.613   7.098  0.00  0.00    +0.000 NA
ATOM     17  C   UNL     1      47.714   1.711   6.505  0.00  0.00    +0.000 A 
ATOM     18  N   UNL     1      47.022   2.800   6.948  0.00  0.00    +0.000 N 
ATOM     19  H   UNL     1      47.145   3.758   6.646  0.00  0.00    +0.000 HD
ENDBRANCH  11  14
ENDBRANCH   9  10
ENDBRANCH   6   9
ENDBRANCH   2   3
BRANCH   2  20
ATOM     20  N   UNL     1      47.509   7.250  14.541  0.00  0.00    +0.000 N 
ATOM     21  C   UNL     1      48.809   6.930  14.849  0.00  0.00    +0.000 C 
ATOM     22  O   UNL     1      49.728   7.020  14.042  0.00  0.00    +0.000 OA
ATOM     23  H   UNL     1      46.784   6.818  15.108  0.00  0.00    +0.000 HD
BRANCH  21  24
ATOM     24  C   UNL     1      49.070   6.548  16.242  0.00  0.00    +0.000 A 
ATOM     25  C   UNL     1      49.752   7.423  17.078  0.00  0.00    +0.000 A 
ATOM     26  S   UNL     1      49.961   6.831  18.663  0.00  0.00    +0.000 S 
ATOM     27  C   UNL     1      49.187   5.366  18.275  0.00  0.00    +0.000 A 
ATOM     28  N   UNL     1      49.063   4.374  19.197  0.00  0.00    +0.000 NA
ATOM     29  C   UNL     1      48.491   3.303  18.754  0.00  0.00    +0.000 A 
ATOM     30  N   UNL     1      48.014   3.143  17.477  0.00  0.00    +0.000 N 
ATOM     31  C   UNL     1      48.065   4.139  16.532  0.00  0.00    +0.000 A 
ATOM     32  O   UNL     1      47.544   4.007  15.430  0.00  0.00    +0.000 OA
ATOM     33  C   UNL     1      48.742   5.345  16.965  0.00  0.00    +0.000 A 
ATOM     34  H   UNL     1      47.554   2.289  17.203  0.00  0.00    +0.000 HD
ENDBRANCH  21  24
ENDBRANCH   2  20
TORSDOF 6
ENDMDL
MODEL 2
REMARK VINA RESULT:    -7.909      1.712      2.215
REMARK INTER + INTRA:         -11.625
REMARK INTER:                 -10.793
REMARK INTRA:                  -0.832
REMARK UNBOUND:                -0.942
REMARK  Name = 
REMARK  7 active torsions:
REMARK  status: ('A' for Active; 'I' for Inactive)
REMARK    1  A    between atoms: C_1  and  C_2
REMARK    2  A    between atoms: C_2  and  N_3
REMARK    3  A    between atoms: C_2  and  C_16
REMARK    4  A    between atoms: C_4  and  C_6
REMARK    5  A    between atoms: C_19  and  C_20
REMARK    6  A    between atoms: C_20  and  N_21
REMARK    7  A    between atoms: C_22  and  C_24
REMARK                            x       y       z     vdW  Elec       q    Type
REMARK                         _______ _______ _______ _____ _____    ______ ____
ROOT
ATOM      1  C   UNL     1      47.447   8.568  13.683  0.00  0.00    +0.000 C 
ATOM      2  C   UNL     1      47.690   7.052  13.670  0.00  0.00    +0.000 C 
ENDROOT
BRANCH   2   3
ATOM      3  C   UNL     1      46.617   6.386  12.804  0.00  0.00    +0.000 A 
ATOM      4  C   UNL     1      45.834   7.151  11.937  0.00  0.00    +0.000 A 
ATOM      5  C   UNL     1      44.938   6.513  11.081  0.00  0.00    +0.000 A 
ATOM      6  C   UNL     1      44.832   5.124  11.101  0.00  0.00    +0.000 A 
ATOM      7  C   UNL     1      45.609   4.444  12.035  0.00  0.00    +0.000 A 
ATOM      8  N   UNL     1      46.491   5.039  12.875  0.00  0.00    +0.000 NA
BRANCH   6   9
ATOM      9  C   UNL     1      43.918   4.392  10.165  0.00  0.00    +0.000 C 
BRANCH   9  10
ATOM     10  N   UNL     1      44.608   3.352   9.442  0.00  0.00    +0.000 N 
ATOM     11  C   UNL     1      45.511   3.658   8.454  0.00  0.00    +0.000 C 
ATOM     12  O   UNL     1      45.746   4.811   8.108  0.00  0.00    +0.000 OA
ATOM     13  H   UNL     1      44.491   2.397   9.746  0.00  0.00    +0.000 HD
BRANCH  11  14
ATOM     14  C   UNL     1      46.178   2.528   7.857  0.00  0.00    +0.000 A 
ATOM     15  C   UNL     1      47.030   2.400   6.777  0.00  0.00    +0.000 A 
ATOM     16  N   UNL     1      47.405   1.096   6.584  0.00  0.00    +0.000 NA
ATOM     17  C   UNL     1      46.799   0.421   7.533  0.00  0.00    +0.000 A 
ATOM     18  N   UNL     1      46.055   1.240   8.330  0.00  0.00    +0.000 N 
ATOM     19  H   UNL     1      45.499   0.964   9.128  0.00  0.00    +0.000 HD
ENDBRANCH  11  14
ENDBRANCH   9  10
ENDBRANCH   6   9
ENDBRANCH   2   3
BRANCH   2  20
ATOM     20  N   UNL     1      47.704   6.471  15.010  0.00  0.00    +0.000 N 
ATOM     21  C   UNL     1      48.859   6.287  15.731  0.00  0.00    +0.000 C 
ATOM     22  O   UNL     1      49.960   6.649  15.331  0.00  0.00    +0.000 OA
ATOM     23  H   UNL     1      46.929   5.846  15.218  0.00  0.00    +0.000 HD
BRANCH  21  24
ATOM     24  C   UNL     1      48.702   5.702  17.068  0.00  0.00    +0.000 A 
ATOM     25  C   UNL     1      48.917   4.343  17.253  0.00  0.00    +0.000 A 
ATOM     26  S   UNL     1      48.705   3.829  18.864  0.00  0.00    +0.000 S 
ATOM     27  C   UNL     1      48.273   5.397  19.363  0.00  0.00    +0.000 A 
ATOM     28  N   UNL     1      47.919   5.649  20.652  0.00  0.00    +0.000 NA
ATOM     29  C   UNL     1      47.576   6.873  20.880  0.00  0.00    +0.000 A 
ATOM     30  N   UNL     1      47.572   7.873  19.940  0.00  0.00    +0.000 N 
ATOM     31  C   UNL     1      47.978   7.676  18.642  0.00  0.00    +0.000 A 
ATOM     32  O   UNL     1      48.060   8.605  17.846  0.00  0.00    +0.000 OA
ATOM     33  C   UNL     1      48.327   6.306  18.322  0.00  0.00    +0.000 A 
ATOM     34  H   UNL     1      47.317   8.816  20.191  0.00  0.00    +0.000 HD
ENDBRANCH  21  24
ENDBRANCH   2  20
TORSDOF 6
ENDMDL
MODEL 3
REMARK VINA RESULT:    -7.880      2.135      3.885
REMARK INTER + INTRA:         -11.586
REMARK INTER:                 -10.552
REMARK INTRA:                  -1.034
REMARK UNBOUND:                -0.942
REMARK  Name = 
REMARK  7 active torsions:
REMARK  status: ('A' for Active; 'I' for Inactive)
REMARK    1  A    between atoms: C_1  and  C_2
REMARK    2  A    between atoms: C_2  and  N_3
REMARK    3  A    between atoms: C_2  and  C_16
REMARK    4  A    between atoms: C_4  and  C_6
REMARK    5  A    between atoms: C_19  and  C_20
REMARK    6  A    between atoms: C_20  and  N_21
REMARK    7  A    between atoms: C_22  and  C_24
REMARK                            x       y       z     vdW  Elec       q    Type
REMARK                         _______ _______ _______ _____ _____    ______ ____
ROOT
ATOM      1  C   UNL     1      47.538   3.520  15.384  0.00  0.00    +0.000 C 
ATOM      2  C   UNL     1      46.907   4.858  14.970  0.00  0.00    +0.000 C 
ENDROOT
BRANCH   2   3
ATOM      3  C   UNL     1      46.043   4.634  13.726  0.00  0.00    +0.000 A 
ATOM      4  C   UNL     1      45.417   5.713  13.097  0.00  0.00    +0.000 A 
ATOM      5  C   UNL     1      44.726   5.502  11.906  0.00  0.00    +0.000 A 
ATOM      6  C   UNL     1      44.664   4.221  11.359  0.00  0.00    +0.000 A 
ATOM      7  C   UNL     1      45.268   3.196  12.080  0.00  0.00    +0.000 A 
ATOM      8  N   UNL     1      45.951   3.373  13.238  0.00  0.00    +0.000 NA
BRANCH   6   9
ATOM      9  C   UNL     1      43.972   3.957  10.055  0.00  0.00    +0.000 C 
BRANCH   9  10
ATOM     10  N   UNL     1      44.798   3.193   9.153  0.00  0.00    +0.000 N 
ATOM     11  C   UNL     1      45.714   3.810   8.339  0.00  0.00    +0.000 C 
ATOM     12  O   UNL     1      45.850   5.029   8.302  0.00  0.00    +0.000 OA
ATOM     13  H   UNL     1      44.762   2.185   9.206  0.00  0.00    +0.000 HD
BRANCH  11  14
ATOM     14  C   UNL     1      46.520   2.925   7.535  0.00  0.00    +0.000 A 
ATOM     15  C   UNL     1      46.779   1.569   7.598  0.00  0.00    +0.000 A 
ATOM     16  N   UNL     1      47.633   1.174   6.602  0.00  0.00    +0.000 NA
ATOM     17  C   UNL     1      47.899   2.266   5.924  0.00  0.00    +0.000 A 
ATOM     18  N   UNL     1      47.245   3.345   6.442  0.00  0.00    +0.000 N 
ATOM     19  H   UNL     1      47.282   4.296   6.100  0.00  0.00    +0.000 HD
ENDBRANCH  11  14
ENDBRANCH   9  10
ENDBRANCH   6   9
ENDBRANCH   2   3
BRANCH   2  20
ATOM     20  N   UNL     1      47.902   5.900  14.726  0.00  0.00    +0.000 N 
ATOM     21  C   UNL     1      48.619   6.497  15.734  0.00  0.00    +0.000 C 
ATOM     22  O   UNL     1      48.523   6.162  16.910  0.00  0.00    +0.000 OA
ATOM     23  H   UNL     1      47.755   6.447  13.882  0.00  0.00    +0.000 HD
BRANCH  21  24
ATOM     24  C   UNL     1      49.589   7.518  15.322  0.00  0.00    +0.000 A 
ATOM     25  C   UNL     1      50.927   7.372  15.663  0.00  0.00    +0.000 A 
ATOM     26  S   UNL     1      51.919   8.638  15.098  0.00  0.00    +0.000 S 
ATOM     27  C   UNL     1      50.588   9.449  14.417  0.00  0.00    +0.000 A 
ATOM     28  N   UNL     1      50.740  10.651  13.799  0.00  0.00    +0.000 NA
ATOM     29  C   UNL     1      49.640  11.171  13.366  0.00  0.00    +0.000 A 
ATOM     30  N   UNL     1      48.403  10.587  13.476  0.00  0.00    +0.000 N 
ATOM     31  C   UNL     1      48.211   9.348  14.038  0.00  0.00    +0.000 A 
ATOM     32  O   UNL     1      47.112   8.805  14.037  0.00  0.00    +0.000 OA
ATOM     33  C   UNL     1      49.409   8.744  14.586  0.00  0.00    +0.000 A 
ATOM     34  H   UNL     1      47.586  11.036  13.091  0.00  0.00    +0.000 HD
ENDBRANCH  21  24
ENDBRANCH   2  20
TORSDOF 6
ENDMDL
MODEL 4
REMARK VINA RESULT:    -7.385      4.474      9.287
REMARK INTER + INTRA:         -10.918
REMARK INTER:                 -10.081
REMARK INTRA:                  -0.837
REMARK UNBOUND:                -0.942
REMARK  Name = 
REMARK  7 active torsions:
REMARK  status: ('A' for Active; 'I' for Inactive)
REMARK    1  A    between atoms: C_1  and  C_2
REMARK    2  A    between atoms: C_2  and  N_3
REMARK    3  A    between atoms: C_2  and  C_16
REMARK    4  A    between atoms: C_4  and  C_6
REMARK    5  A    between atoms: C_19  and  C_20
REMARK    6  A    between atoms: C_20  and  N_21
REMARK    7  A    between atoms: C_22  and  C_24
REMARK                            x       y       z     vdW  Elec       q    Type
REMARK                         _______ _______ _______ _____ _____    ______ ____
ROOT
ATOM      1  C   UNL     1      47.103   4.841  18.458  0.00  0.00    +0.000 C 
ATOM      2  C   UNL     1      47.535   4.118  17.173  0.00  0.00    +0.000 C 
ENDROOT
BRANCH   2   3
ATOM      3  C   UNL     1      49.025   3.779  17.275  0.00  0.00    +0.000 A 
ATOM      4  C   UNL     1      49.953   4.766  17.611  0.00  0.00    +0.000 A 
ATOM      5  C   UNL     1      51.288   4.413  17.803  0.00  0.00    +0.000 A 
ATOM      6  C   UNL     1      51.680   3.084  17.656  0.00  0.00    +0.000 A 
ATOM      7  C   UNL     1      50.701   2.176  17.266  0.00  0.00    +0.000 A 
ATOM      8  N   UNL     1      49.396   2.490  17.077  0.00  0.00    +0.000 NA
BRANCH   6   9
ATOM      9  C   UNL     1      53.094   2.651  17.900  0.00  0.00    +0.000 C 
BRANCH   9  10
ATOM     10  N   UNL     1      53.164   1.309  18.425  0.00  0.00    +0.000 N 
ATOM     11  C   UNL     1      53.925   0.348  17.809  0.00  0.00    +0.000 C 
ATOM     12  O   UNL     1      54.544   0.560  16.771  0.00  0.00    +0.000 OA
ATOM     13  H   UNL     1      52.724   1.118  19.314  0.00  0.00    +0.000 HD
BRANCH  11  14
ATOM     14  C   UNL     1      53.960  -0.931  18.474  0.00  0.00    +0.000 A 
ATOM     15  C   UNL     1      54.982  -1.814  18.764  0.00  0.00    +0.000 A 
ATOM     16  N   UNL     1      54.515  -2.927  19.414  0.00  0.00    +0.000 NA
ATOM     17  C   UNL     1      53.221  -2.739  19.530  0.00  0.00    +0.000 A 
ATOM     18  N   UNL     1      52.840  -1.548  18.987  0.00  0.00    +0.000 N 
ATOM     19  H   UNL     1      51.902  -1.172  18.952  0.00  0.00    +0.000 HD
ENDBRANCH  11  14
ENDBRANCH   9  10
ENDBRANCH   6   9
ENDBRANCH   2   3
BRANCH   2  20
ATOM     20  N   UNL     1      47.266   4.900  15.968  0.00  0.00    +0.000 N 
ATOM     21  C   UNL     1      47.229   4.345  14.712  0.00  0.00    +0.000 C 
ATOM     22  O   UNL     1      47.360   3.143  14.510  0.00  0.00    +0.000 OA
ATOM     23  H   UNL     1      47.516   5.884  16.027  0.00  0.00    +0.000 HD
BRANCH  21  24
ATOM     24  C   UNL     1      46.934   5.263  13.607  0.00  0.00    +0.000 A 
ATOM     25  C   UNL     1      47.914   6.142  13.164  0.00  0.00    +0.000 A 
ATOM     26  S   UNL     1      47.412   7.129  11.867  0.00  0.00    +0.000 S 
ATOM     27  C   UNL     1      45.853   6.448  11.882  0.00  0.00    +0.000 A 
ATOM     28  N   UNL     1      44.889   6.885  11.028  0.00  0.00    +0.000 NA
ATOM     29  C   UNL     1      43.743   6.308  11.177  0.00  0.00    +0.000 A 
ATOM     30  N   UNL     1      43.479   5.320  12.091  0.00  0.00    +0.000 N 
ATOM     31  C   UNL     1      44.437   4.806  12.932  0.00  0.00    +0.000 A 
ATOM     32  O   UNL     1      44.202   3.856  13.671  0.00  0.00    +0.000 OA
ATOM     33  C   UNL     1      45.730   5.455  12.838  0.00  0.00    +0.000 A 
ATOM     34  H   UNL     1      42.567   4.892  12.138  0.00  0.00    +0.000 HD
ENDBRANCH  21  24
ENDBRANCH   2  20
TORSDOF 6
ENDMDL
MODEL 5
REMARK VINA RESULT:    -7.061      4.468      9.283
REMARK INTER + INTRA:         -10.480
REMARK INTER:                  -9.354
REMARK INTRA:                  -1.126
REMARK UNBOUND:                -0.942
REMARK  Name = 
REMARK  7 active torsions:
REMARK  status: ('A' for Active; 'I' for Inactive)
REMARK    1  A    between atoms: C_1  and  C_2
REMARK    2  A    between atoms: C_2  and  N_3
REMARK    3  A    between atoms: C_2  and  C_16
REMARK    4  A    between atoms: C_4  and  C_6
REMARK    5  A    between atoms: C_19  and  C_20
REMARK    6  A    between atoms: C_20  and  N_21
REMARK    7  A    between atoms: C_22  and  C_24
REMARK                            x       y       z     vdW  Elec       q    Type
REMARK                         _______ _______ _______ _____ _____    ______ ____
ROOT
ATOM      1  C   UNL     1      47.172   4.927  18.471  0.00  0.00    +0.000 C 
ATOM      2  C   UNL     1      47.593   4.175  17.200  0.00  0.00    +0.000 C 
ENDROOT
BRANCH   2   3
ATOM      3  C   UNL     1      49.071   3.794  17.317  0.00  0.00    +0.000 A 
ATOM      4  C   UNL     1      50.023   4.755  17.661  0.00  0.00    +0.000 A 
ATOM      5  C   UNL     1      51.345   4.365  17.868  0.00  0.00    +0.000 A 
ATOM      6  C   UNL     1      51.701   3.025  17.726  0.00  0.00    +0.000 A 
ATOM      7  C   UNL     1      50.701   2.144  17.327  0.00  0.00    +0.000 A 
ATOM      8  N   UNL     1      49.407   2.495  17.124  0.00  0.00    +0.000 NA
BRANCH   6   9
ATOM      9  C   UNL     1      53.100   2.553  17.986  0.00  0.00    +0.000 C 
BRANCH   9  10
ATOM     10  N   UNL     1      53.124   1.237  18.576  0.00  0.00    +0.000 N 
ATOM     11  C   UNL     1      53.755   0.192  17.949  0.00  0.00    +0.000 C 
ATOM     12  O   UNL     1      54.289   0.307  16.849  0.00  0.00    +0.000 OA
ATOM     13  H   UNL     1      52.756   1.122  19.509  0.00  0.00    +0.000 HD
BRANCH  11  14
ATOM     14  C   UNL     1      53.761  -1.052  18.677  0.00  0.00    +0.000 A 
ATOM     15  C   UNL     1      54.776  -1.875  19.126  0.00  0.00    +0.000 A 
ATOM     16  N   UNL     1      54.280  -2.976  19.774  0.00  0.00    +0.000 NA
ATOM     17  C   UNL     1      52.975  -2.840  19.733  0.00  0.00    +0.000 A 
ATOM     18  N   UNL     1      52.615  -1.692  19.091  0.00  0.00    +0.000 N 
ATOM     19  H   UNL     1      51.673  -1.359  18.931  0.00  0.00    +0.000 HD
ENDBRANCH  11  14
ENDBRANCH   9  10
ENDBRANCH   6   9
ENDBRANCH   2   3
BRANCH   2  20
ATOM     20  N   UNL     1      47.355   4.948  15.983  0.00  0.00    +0.000 N 
ATOM     21  C   UNL     1      47.286   4.375  14.737  0.00  0.00    +0.000 C 
ATOM     22  O   UNL     1      47.360   3.164  14.555  0.00  0.00    +0.000 OA
ATOM     23  H   UNL     1      47.651   5.920  16.024  0.00  0.00    +0.000 HD
BRANCH  21  24
ATOM     24  C   UNL     1      47.030   5.287  13.617  0.00  0.00    +0.000 A 
ATOM     25  C   UNL     1      45.920   5.086  12.806  0.00  0.00    +0.000 A 
ATOM     26  S   UNL     1      45.764   6.240  11.561  0.00  0.00    +0.000 S 
ATOM     27  C   UNL     1      47.199   7.023  12.034  0.00  0.00    +0.000 A 
ATOM     28  N   UNL     1      47.673   8.094  11.343  0.00  0.00    +0.000 NA
ATOM     29  C   UNL     1      48.792   8.562  11.788  0.00  0.00    +0.000 A 
ATOM     30  N   UNL     1      49.469   8.069  12.874  0.00  0.00    +0.000 N 
ATOM     31  C   UNL     1      48.997   7.028  13.637  0.00  0.00    +0.000 A 
ATOM     32  O   UNL     1      49.569   6.669  14.660  0.00  0.00    +0.000 OA
ATOM     33  C   UNL     1      47.768   6.434  13.149  0.00  0.00    +0.000 A 
ATOM     34  H   UNL     1      50.327   8.498  13.185  0.00  0.00    +0.000 HD
ENDBRANCH  21  24
ENDBRANCH   2  20
TORSDOF 6
ENDMDL
MODEL 6
REMARK VINA RESULT:    -6.044      4.730      9.267
REMARK INTER + INTRA:          -9.106
REMARK INTER:                  -8.608
REMARK INTRA:                  -0.499
REMARK UNBOUND:                -0.942
REMARK  Name = 
REMARK  7 active torsions:
REMARK  status: ('A' for Active; 'I' for Inactive)
REMARK    1  A    between atoms: C_1  and  C_2
REMARK    2  A    between atoms: C_2  and  N_3
REMARK    3  A    between atoms: C_2  and  C_16
REMARK    4  A    between atoms: C_4  and  C_6
REMARK    5  A    between atoms: C_19  and  C_20
REMARK    6  A    between atoms: C_20  and  N_21
REMARK    7  A    between atoms: C_22  and  C_24
REMARK                            x       y       z     vdW  Elec       q    Type
REMARK                         _______ _______ _______ _____ _____    ______ ____
ROOT
ATOM      1  C   UNL     1      49.001   5.992  18.858  0.00  0.00    +0.000 C 
ATOM      2  C   UNL     1      48.644   4.738  18.046  0.00  0.00    +0.000 C 
ENDROOT
BRANCH   2   3
ATOM      3  C   UNL     1      49.912   3.907  17.836  0.00  0.00    +0.000 A 
ATOM      4  C   UNL     1      51.143   4.364  18.311  0.00  0.00    +0.000 A 
ATOM      5  C   UNL     1      52.265   3.544  18.206  0.00  0.00    +0.000 A 
ATOM      6  C   UNL     1      52.146   2.281  17.627  0.00  0.00    +0.000 A 
ATOM      7  C   UNL     1      50.895   1.928  17.131  0.00  0.00    +0.000 A 
ATOM      8  N   UNL     1      49.788   2.704  17.224  0.00  0.00    +0.000 NA
BRANCH   6   9
ATOM      9  C   UNL     1      53.315   1.347  17.537  0.00  0.00    +0.000 C 
BRANCH   9  10
ATOM     10  N   UNL     1      53.017   0.056  18.107  0.00  0.00    +0.000 N 
ATOM     11  C   UNL     1      53.970  -0.931  18.158  0.00  0.00    +0.000 C 
ATOM     12  O   UNL     1      55.095  -0.788  17.689  0.00  0.00    +0.000 OA
ATOM     13  H   UNL     1      52.126  -0.074  18.563  0.00  0.00    +0.000 HD
BRANCH  11  14
ATOM     14  C   UNL     1      53.562  -2.149  18.812  0.00  0.00    +0.000 A 
ATOM     15  C   UNL     1      52.836  -2.403  19.960  0.00  0.00    +0.000 A 
ATOM     16  N   UNL     1      52.713  -3.750  20.189  0.00  0.00    +0.000 NA
ATOM     17  C   UNL     1      53.349  -4.326  19.195  0.00  0.00    +0.000 A 
ATOM     18  N   UNL     1      53.870  -3.404  18.336  0.00  0.00    +0.000 N 
ATOM     19  H   UNL     1      54.400  -3.593  17.495  0.00  0.00    +0.000 HD
ENDBRANCH  11  14
ENDBRANCH   9  10
ENDBRANCH   6   9
ENDBRANCH   2   3
BRANCH   2  20
ATOM     20  N   UNL     1      48.019   5.056  16.764  0.00  0.00    +0.000 N 
ATOM     21  C   UNL     1      48.642   5.805  15.796  0.00  0.00    +0.000 C 
ATOM     22  O   UNL     1      49.791   6.217  15.908  0.00  0.00    +0.000 OA
ATOM     23  H   UNL     1      47.002   5.070  16.771  0.00  0.00    +0.000 HD
BRANCH  21  24
ATOM     24  C   UNL     1      47.883   6.026  14.559  0.00  0.00    +0.000 A 
ATOM     25  C   UNL     1      47.822   7.299  14.008  0.00  0.00    +0.000 A 
ATOM     26  S   UNL     1      46.912   7.378  12.569  0.00  0.00    +0.000 S 
ATOM     27  C   UNL     1      46.531   5.722  12.655  0.00  0.00    +0.000 A 
ATOM     28  N   UNL     1      45.727   5.139  11.726  0.00  0.00    +0.000 NA
ATOM     29  C   UNL     1      45.489   3.887  11.939  0.00  0.00    +0.000 A 
ATOM     30  N   UNL     1      45.998   3.161  12.985  0.00  0.00    +0.000 N 
ATOM     31  C   UNL     1      46.861   3.694  13.912  0.00  0.00    +0.000 A 
ATOM     32  O   UNL     1      47.380   3.002  14.781  0.00  0.00    +0.000 OA
ATOM     33  C   UNL     1      47.121   5.111  13.747  0.00  0.00    +0.000 A 
ATOM     34  H   UNL     1      45.792   2.178  13.079  0.00  0.00    +0.000 HD
ENDBRANCH  21  24
ENDBRANCH   2  20
TORSDOF 6
ENDMDL
MODEL 7
REMARK VINA RESULT:    -5.761      1.813      2.916
REMARK INTER + INTRA:          -8.725
REMARK INTER:                  -8.137
REMARK INTRA:                  -0.588
REMARK UNBOUND:                -0.942
REMARK  Name = 
REMARK  7 active torsions:
REMARK  status: ('A' for Active; 'I' for Inactive)
REMARK    1  A    between atoms: C_1  and  C_2
REMARK    2  A    between atoms: C_2  and  N_3
REMARK    3  A    between atoms: C_2  and  C_16
REMARK    4  A    between atoms: C_4  and  C_6
REMARK    5  A    between atoms: C_19  and  C_20
REMARK    6  A    between atoms: C_20  and  N_21
REMARK    7  A    between atoms: C_22  and  C_24
REMARK                            x       y       z     vdW  Elec       q    Type
REMARK                         _______ _______ _______ _____ _____    ______ ____
ROOT
ATOM      1  C   UNL     1      50.702   9.390  14.317  0.00  0.00    +0.000 C 
ATOM      2  C   UNL     1      50.343   7.906  14.482  0.00  0.00    +0.000 C 
ENDROOT
BRANCH   2   3
ATOM      3  C   UNL     1      48.992   7.646  13.809  0.00  0.00    +0.000 A 
ATOM      4  C   UNL     1      48.191   8.714  13.398  0.00  0.00    +0.000 A 
ATOM      5  C   UNL     1      47.017   8.456  12.691  0.00  0.00    +0.000 A 
ATOM      6  C   UNL     1      46.657   7.140  12.407  0.00  0.00    +0.000 A 
ATOM      7  C   UNL     1      47.483   6.136  12.902  0.00  0.00    +0.000 A 
ATOM      8  N   UNL     1      48.632   6.359  13.586  0.00  0.00    +0.000 NA
BRANCH   6   9
ATOM      9  C   UNL     1      45.429   6.818  11.608  0.00  0.00    +0.000 C 
BRANCH   9  10
ATOM     10  N   UNL     1      45.640   5.697  10.725  0.00  0.00    +0.000 N 
ATOM     11  C   UNL     1      44.659   4.757  10.531  0.00  0.00    +0.000 C 
ATOM     12  O   UNL     1      43.583   4.793  11.120  0.00  0.00    +0.000 OA
ATOM     13  H   UNL     1      46.484   5.672  10.173  0.00  0.00    +0.000 HD
BRANCH  11  14
ATOM     14  C   UNL     1      44.974   3.726   9.573  0.00  0.00    +0.000 A 
ATOM     15  C   UNL     1      45.377   3.759   8.253  0.00  0.00    +0.000 A 
ATOM     16  N   UNL     1      45.547   2.496   7.747  0.00  0.00    +0.000 NA
ATOM     17  C   UNL     1      45.259   1.688   8.740  0.00  0.00    +0.000 A 
ATOM     18  N   UNL     1      44.916   2.381   9.863  0.00  0.00    +0.000 N 
ATOM     19  H   UNL     1      44.655   1.990  10.759  0.00  0.00    +0.000 HD
ENDBRANCH  11  14
ENDBRANCH   9  10
ENDBRANCH   6   9
ENDBRANCH   2   3
BRANCH   2  20
ATOM     20  N   UNL     1      50.310   7.485  15.881  0.00  0.00    +0.000 N 
ATOM     21  C   UNL     1      49.639   8.184  16.854  0.00  0.00    +0.000 C 
ATOM     22  O   UNL     1      48.967   9.182  16.616  0.00  0.00    +0.000 OA
ATOM     23  H   UNL     1      51.106   6.929  16.182  0.00  0.00    +0.000 HD
BRANCH  21  24
ATOM     24  C   UNL     1      49.694   7.624  18.209  0.00  0.00    +0.000 A 
ATOM     25  C   UNL     1      50.337   8.327  19.219  0.00  0.00    +0.000 A 
ATOM     26  S   UNL     1      50.299   7.542  20.731  0.00  0.00    +0.000 S 
ATOM     27  C   UNL     1      49.461   6.213  20.080  0.00  0.00    +0.000 A 
ATOM     28  N   UNL     1      49.144   5.138  20.851  0.00  0.00    +0.000 NA
ATOM     29  C   UNL     1      48.546   4.185  20.217  0.00  0.00    +0.000 A 
ATOM     30  N   UNL     1      48.218   4.217  18.885  0.00  0.00    +0.000 N 
ATOM     31  C   UNL     1      48.466   5.305  18.083  0.00  0.00    +0.000 A 
ATOM     32  O   UNL     1      48.077   5.349  16.921  0.00  0.00    +0.000 OA
ATOM     33  C   UNL     1      49.182   6.383  18.736  0.00  0.00    +0.000 A 
ATOM     34  H   UNL     1      47.727   3.448  18.456  0.00  0.00    +0.000 HD
ENDBRANCH  21  24
ENDBRANCH   2  20
TORSDOF 6
ENDMDL
MODEL 8
REMARK VINA RESULT:    -5.656      2.449      3.446
REMARK INTER + INTRA:          -8.583
REMARK INTER:                  -8.076
REMARK INTRA:                  -0.507
REMARK UNBOUND:                -0.942
REMARK  Name = 
REMARK  7 active torsions:
REMARK  status: ('A' for Active; 'I' for Inactive)
REMARK    1  A    between atoms: C_1  and  C_2
REMARK    2  A    between atoms: C_2  and  N_3
REMARK    3  A    between atoms: C_2  and  C_16
REMARK    4  A    between atoms: C_4  and  C_6
REMARK    5  A    between atoms: C_19  and  C_20
REMARK    6  A    between atoms: C_20  and  N_21
REMARK    7  A    between atoms: C_22  and  C_24
REMARK                            x       y       z     vdW  Elec       q    Type
REMARK                         _______ _______ _______ _____ _____    ______ ____
ROOT
ATOM      1  C   UNL     1      51.167  10.132  13.156  0.00  0.00    +0.000 C 
ATOM      2  C   UNL     1      50.942   8.636  12.889  0.00  0.00    +0.000 C 
ENDROOT
BRANCH   2   3
ATOM      3  C   UNL     1      49.444   8.390  12.690  0.00  0.00    +0.000 A 
ATOM      4  C   UNL     1      48.593   9.445  12.353  0.00  0.00    +0.000 A 
ATOM      5  C   UNL     1      47.255   9.180  12.071  0.00  0.00    +0.000 A 
ATOM      6  C   UNL     1      46.781   7.871  12.131  0.00  0.00    +0.000 A 
ATOM      7  C   UNL     1      47.683   6.889  12.529  0.00  0.00    +0.000 A 
ATOM      8  N   UNL     1      48.991   7.118  12.804  0.00  0.00    +0.000 NA
BRANCH   6   9
ATOM      9  C   UNL     1      45.361   7.533  11.789  0.00  0.00    +0.000 C 
BRANCH   9  10
ATOM     10  N   UNL     1      45.277   6.448  10.843  0.00  0.00    +0.000 N 
ATOM     11  C   UNL     1      44.742   5.236  11.203  0.00  0.00    +0.000 C 
ATOM     12  O   UNL     1      44.351   4.999  12.342  0.00  0.00    +0.000 OA
ATOM     13  H   UNL     1      45.526   6.628   9.882  0.00  0.00    +0.000 HD
BRANCH  11  14
ATOM     14  C   UNL     1      44.658   4.260  10.146  0.00  0.00    +0.000 A 
ATOM     15  C   UNL     1      44.373   2.908  10.133  0.00  0.00    +0.000 A 
ATOM     16  N   UNL     1      44.424   2.396   8.862  0.00  0.00    +0.000 NA
ATOM     17  C   UNL     1      44.731   3.415   8.094  0.00  0.00    +0.000 A 
ATOM     18  N   UNL     1      44.874   4.561   8.819  0.00  0.00    +0.000 N 
ATOM     19  H   UNL     1      45.105   5.478   8.461  0.00  0.00    +0.000 HD
ENDBRANCH  11  14
ENDBRANCH   9  10
ENDBRANCH   6   9
ENDBRANCH   2   3
BRANCH   2  20
ATOM     20  N   UNL     1      51.467   7.787  13.955  0.00  0.00    +0.000 N 
ATOM     21  C   UNL     1      51.085   7.917  15.268  0.00  0.00    +0.000 C 
ATOM     22  O   UNL     1      50.232   8.716  15.639  0.00  0.00    +0.000 OA
ATOM     23  H   UNL     1      52.391   7.399  13.783  0.00  0.00    +0.000 HD
BRANCH  21  24
ATOM     24  C   UNL     1      51.695   6.979  16.217  0.00  0.00    +0.000 A 
ATOM     25  C   UNL     1      53.020   7.150  16.597  0.00  0.00    +0.000 A 
ATOM     26  S   UNL     1      53.569   5.982  17.711  0.00  0.00    +0.000 S 
ATOM     27  C   UNL     1      52.069   5.181  17.691  0.00  0.00    +0.000 A 
ATOM     28  N   UNL     1      51.871   4.046  18.414  0.00  0.00    +0.000 NA
ATOM     29  C   UNL     1      50.699   3.521  18.273  0.00  0.00    +0.000 A 
ATOM     30  N   UNL     1      49.700   4.040  17.488  0.00  0.00    +0.000 N 
ATOM     31  C   UNL     1      49.835   5.214  16.788  0.00  0.00    +0.000 A 
ATOM     32  O   UNL     1      48.897   5.709  16.173  0.00  0.00    +0.000 OA
ATOM     33  C   UNL     1      51.151   5.817  16.875  0.00  0.00    +0.000 A 
ATOM     34  H   UNL     1      48.797   3.593  17.442  0.00  0.00    +0.000 HD
ENDBRANCH  21  24
ENDBRANCH   2  20
TORSDOF 6
ENDMDL
