MODEL 1
REMARK VINA RESULT:    -8.640      0.000      0.000
REMARK INTER + INTRA:         -14.131
REMARK INTER:                 -12.680
REMARK INTRA:                  -1.450
REMARK UNBOUND:                -1.450
REMARK  Name = 
REMARK  9 active torsions:
REMARK  status: ('A' for Active; 'I' for Inactive)
REMARK    1  A    between atoms: C_1  and  C_2
REMARK    2  A    between atoms: C_2  and  C_3
REMARK    3  A    between atoms: C_3  and  N_4
REMARK    4  A    between atoms: C_3  and  C_17
REMARK    5  A    between atoms: C_5  and  C_7
REMARK    6  A    between atoms: C_20  and  C_21
REMARK    7  A    between atoms: C_21  and  N_22
REMARK    8  A    between atoms: N_22  and  C_23
REMARK    9  A    between atoms: C_23  and  C_24
REMARK                            x       y       z     vdW  Elec       q    Type
REMARK                         _______ _______ _______ _____ _____    ______ ____
ROOT
ATOM      1  C   UNL     1      48.148   6.715  13.203  0.00  0.00    +0.000 C 
ENDROOT
BRANCH   1   2
ATOM      2  C   UNL     1      46.942   5.961  12.657  0.00  0.00    +0.000 A 
ATOM      3  C   UNL     1      46.399   6.307  11.413  0.00  0.00    +0.000 A 
ATOM      4  C   UNL     1      45.308   5.604  10.890  0.00  0.00    +0.000 A 
ATOM      5  C   UNL     1      44.739   4.532  11.593  0.00  0.00    +0.000 A 
ATOM      6  C   UNL     1      45.282   4.182  12.834  0.00  0.00    +0.000 A 
ATOM      7  C   UNL     1      46.369   4.887  13.359  0.00  0.00    +0.000 A 
BRANCH   5   8
ATOM      8  C   UNL     1      43.557   3.774  11.030  0.00  0.00    +0.000 C 
BRANCH   8   9
ATOM      9  N   UNL     1      43.781   3.409   9.636  0.00  0.00    +0.000 NA
ATOM     10  H   UNL     1      44.362   4.124   9.193  0.00  0.00    +0.000 HD
BRANCH   9  11
ATOM     11  C   UNL     1      44.489   2.131   9.519  0.00  0.00    +0.000 C 
BRANCH  11  12
ATOM     12  C   UNL     1      45.534   2.205   8.422  0.00  0.00    +0.000 A 
ATOM     13  C   UNL     1      45.780   3.414   7.773  0.00  0.00    +0.000 A 
ATOM     14  C   UNL     1      46.810   3.479   6.841  0.00  0.00    +0.000 A 
ATOM     15  C   UNL     1      47.571   2.345   6.588  0.00  0.00    +0.000 A 
ATOM     16  C   UNL     1      47.263   1.183   7.275  0.00  0.00    +0.000 A 
ATOM     17  N   UNL     1      46.267   1.085   8.183  0.00  0.00    +0.000 NA
ENDBRANCH  11  12
ENDBRANCH   9  11
ENDBRANCH   8   9
ENDBRANCH   5   8
ENDBRANCH   1   2
BRANCH   1  18
ATOM     18  N   UNL     1      48.031   6.794  14.651  0.00  0.00    +0.000 N 
ATOM     19  C   UNL     1      49.101   6.808  15.503  0.00  0.00    +0.000 C 
ATOM     20  O   UNL     1      50.261   6.805  15.100  0.00  0.00    +0.000 OA
ATOM     21  H   UNL     1      47.094   6.713  15.032  0.00  0.00    +0.000 HD
BRANCH  19  22
ATOM     22  C   UNL     1      48.789   6.857  16.939  0.00  0.00    +0.000 A 
ATOM     23  C   UNL     1      48.490   8.071  17.543  0.00  0.00    +0.000 A 
ATOM     24  S   UNL     1      48.202   7.950  19.220  0.00  0.00    +0.000 S 
ATOM     25  C   UNL     1      48.506   6.278  19.208  0.00  0.00    +0.000 A 
ATOM     26  N   UNL     1      48.488   5.552  20.358  0.00  0.00    +0.000 NA
ATOM     27  C   UNL     1      48.782   4.303  20.208  0.00  0.00    +0.000 A 
ATOM     28  N   UNL     1      49.068   3.706  19.008  0.00  0.00    +0.000 N 
ATOM     29  C   UNL     1      48.995   4.379  17.812  0.00  0.00    +0.000 A 
ATOM     30  O   UNL     1      49.069   3.778  16.746  0.00  0.00    +0.000 OA
ATOM     31  C   UNL     1      48.763   5.803  17.932  0.00  0.00    +0.000 A 
ATOM     32  H   UNL     1      49.235   2.715  18.948  0.00  0.00    +0.000 HD
ENDBRANCH  19  22
ENDBRANCH   1  18
BRANCH   1  34
ATOM     33  C   UNL     1      49.509   8.254  11.672  0.00  0.00    +0.000 C 
ATOM     34  C   UNL     1      48.303   8.123  12.594  0.00  0.00    +0.000 C 
ENDBRANCH   1  34
TORSDOF 8
ENDMDL
MODEL 2
REMARK VINA RESULT:    -8.033      1.682      2.789
REMARK INTER + INTRA:         -13.240
REMARK INTER:                 -11.795
REMARK INTRA:                  -1.445
REMARK UNBOUND:                -1.450
REMARK  Name = 
REMARK  9 active torsions:
REMARK  status: ('A' for Active; 'I' for Inactive)
REMARK    1  A    between atoms: C_1  and  C_2
REMARK    2  A    between atoms: C_2  and  C_3
REMARK    3  A    between atoms: C_3  and  N_4
REMARK    4  A    between atoms: C_3  and  C_17
REMARK    5  A    between atoms: C_5  and  C_7
REMARK    6  A    between atoms: C_20  and  C_21
REMARK    7  A    between atoms: C_21  and  N_22
REMARK    8  A    between atoms: N_22  and  C_23
REMARK    9  A    between atoms: C_23  and  C_24
REMARK                            x       y       z     vdW  Elec       q    Type
REMARK                         _______ _______ _______ _____ _____    ______ ____
ROOT
ATOM      1  C   UNL     1      48.514   6.767  13.441  0.00  0.00    +0.000 C 
ENDROOT
BRANCH   1   2
ATOM      2  C   UNL     1      47.245   6.237  12.785  0.00  0.00    +0.000 A 
ATOM      3  C   UNL     1      46.444   5.302  13.455  0.00  0.00    +0.000 A 
ATOM      4  C   UNL     1      45.263   4.828  12.874  0.00  0.00    +0.000 A 
ATOM      5  C   UNL     1      44.847   5.285  11.615  0.00  0.00    +0.000 A 
ATOM      6  C   UNL     1      45.643   6.222  10.945  0.00  0.00    +0.000 A 
ATOM      7  C   UNL     1      46.827   6.691  11.523  0.00  0.00    +0.000 A 
BRANCH   5   8
ATOM      8  C   UNL     1      43.572   4.770  10.984  0.00  0.00    +0.000 C 
BRANCH   8   9
ATOM      9  N   UNL     1      43.825   4.231   9.652  0.00  0.00    +0.000 NA
ATOM     10  H   UNL     1      44.543   4.795   9.194  0.00  0.00    +0.000 HD
BRANCH   9  11
ATOM     11  C   UNL     1      44.319   2.853   9.713  0.00  0.00    +0.000 C 
BRANCH  11  12
ATOM     12  C   UNL     1      45.356   2.616   8.632  0.00  0.00    +0.000 A 
ATOM     13  C   UNL     1      45.794   3.677   7.841  0.00  0.00    +0.000 A 
ATOM     14  C   UNL     1      46.817   3.456   6.924  0.00  0.00    +0.000 A 
ATOM     15  C   UNL     1      47.380   2.190   6.827  0.00  0.00    +0.000 A 
ATOM     16  C   UNL     1      46.890   1.190   7.650  0.00  0.00    +0.000 A 
ATOM     17  N   UNL     1      45.896   1.371   8.547  0.00  0.00    +0.000 NA
ENDBRANCH  11  12
ENDBRANCH   9  11
ENDBRANCH   8   9
ENDBRANCH   5   8
ENDBRANCH   1   2
BRANCH   1  18
ATOM     18  N   UNL     1      48.211   7.127  14.818  0.00  0.00    +0.000 N 
ATOM     19  C   UNL     1      49.044   6.874  15.873  0.00  0.00    +0.000 C 
ATOM     20  O   UNL     1      50.150   6.361  15.729  0.00  0.00    +0.000 OA
ATOM     21  H   UNL     1      47.274   7.475  14.996  0.00  0.00    +0.000 HD
BRANCH  19  22
ATOM     22  C   UNL     1      48.555   7.279  17.200  0.00  0.00    +0.000 A 
ATOM     23  C   UNL     1      48.363   6.325  18.189  0.00  0.00    +0.000 A 
ATOM     24  S   UNL     1      47.747   6.963  19.646  0.00  0.00    +0.000 S 
ATOM     25  C   UNL     1      47.676   8.531  18.995  0.00  0.00    +0.000 A 
ATOM     26  N   UNL     1      47.171   9.569  19.715  0.00  0.00    +0.000 NA
ATOM     27  C   UNL     1      47.136  10.693  19.080  0.00  0.00    +0.000 A 
ATOM     28  N   UNL     1      47.583  10.883  17.798  0.00  0.00    +0.000 N 
ATOM     29  C   UNL     1      48.194   9.887  17.075  0.00  0.00    +0.000 A 
ATOM     30  O   UNL     1      48.752  10.133  16.012  0.00  0.00    +0.000 OA
ATOM     31  C   UNL     1      48.175   8.583  17.704  0.00  0.00    +0.000 A 
ATOM     32  H   UNL     1      47.580  11.797  17.377  0.00  0.00    +0.000 HD
ENDBRANCH  19  22
ENDBRANCH   1  18
BRANCH   1  34
ATOM     33  C   UNL     1      50.127   7.561  11.616  0.00  0.00    +0.000 C 
ATOM     34  C   UNL     1      49.123   7.967  12.688  0.00  0.00    +0.000 C 
ENDBRANCH   1  34
TORSDOF 8
ENDMDL
MODEL 3
REMARK VINA RESULT:    -7.258      2.938      8.482
REMARK INTER + INTRA:         -12.102
REMARK INTER:                 -10.174
REMARK INTRA:                  -1.928
REMARK UNBOUND:                -1.450
REMARK  Name = 
REMARK  9 active torsions:
REMARK  status: ('A' for Active; 'I' for Inactive)
REMARK    1  A    between atoms: C_1  and  C_2
REMARK    2  A    between atoms: C_2  and  C_3
REMARK    3  A    between atoms: C_3  and  N_4
REMARK    4  A    between atoms: C_3  and  C_17
REMARK    5  A    between atoms: C_5  and  C_7
REMARK    6  A    between atoms: C_20  and  C_21
REMARK    7  A    between atoms: C_21  and  N_22
REMARK    8  A    between atoms: N_22  and  C_23
REMARK    9  A    between atoms: C_23  and  C_24
REMARK                            x       y       z     vdW  Elec       q    Type
REMARK                         _______ _______ _______ _____ _____    ______ ____
ROOT
ATOM      1  C   UNL     1      47.829   7.674  12.106  0.00  0.00    +0.000 C 
ENDROOT
BRANCH   1   2
ATOM      2  C   UNL     1      48.091   7.754  13.604  0.00  0.00    +0.000 A 
ATOM      3  C   UNL     1      48.680   6.673  14.274  0.00  0.00    +0.000 A 
ATOM      4  C   UNL     1      48.949   6.744  15.645  0.00  0.00    +0.000 A 
ATOM      5  C   UNL     1      48.648   7.902  16.378  0.00  0.00    +0.000 A 
ATOM      6  C   UNL     1      48.063   8.984  15.711  0.00  0.00    +0.000 A 
ATOM      7  C   UNL     1      47.788   8.911  14.342  0.00  0.00    +0.000 A 
BRANCH   5   8
ATOM      8  C   UNL     1      48.935   7.979  17.861  0.00  0.00    +0.000 C 
BRANCH   8   9
ATOM      9  N   UNL     1      47.815   7.464  18.641  0.00  0.00    +0.000 NA
ATOM     10  H   UNL     1      47.090   7.130  18.004  0.00  0.00    +0.000 HD
BRANCH   9  11
ATOM     11  C   UNL     1      48.218   6.332  19.482  0.00  0.00    +0.000 C 
BRANCH  11  12
ATOM     12  C   UNL     1      48.283   5.060  18.658  0.00  0.00    +0.000 A 
ATOM     13  C   UNL     1      47.163   4.632  17.946  0.00  0.00    +0.000 A 
ATOM     14  C   UNL     1      47.277   3.519  17.120  0.00  0.00    +0.000 A 
ATOM     15  C   UNL     1      48.500   2.869  17.020  0.00  0.00    +0.000 A 
ATOM     16  C   UNL     1      49.564   3.357  17.759  0.00  0.00    +0.000 A 
ATOM     17  N   UNL     1      49.486   4.433  18.573  0.00  0.00    +0.000 NA
ENDBRANCH  11  12
ENDBRANCH   9  11
ENDBRANCH   8   9
ENDBRANCH   5   8
ENDBRANCH   1   2
BRANCH   1  18
ATOM     18  N   UNL     1      46.985   6.518  11.842  0.00  0.00    +0.000 N 
ATOM     19  C   UNL     1      45.618   6.561  11.816  0.00  0.00    +0.000 C 
ATOM     20  O   UNL     1      44.991   7.606  11.968  0.00  0.00    +0.000 OA
ATOM     21  H   UNL     1      47.455   5.620  11.795  0.00  0.00    +0.000 HD
BRANCH  19  22
ATOM     22  C   UNL     1      44.931   5.285  11.567  0.00  0.00    +0.000 A 
ATOM     23  C   UNL     1      44.137   4.720  12.556  0.00  0.00    +0.000 A 
ATOM     24  S   UNL     1      43.458   3.219  12.114  0.00  0.00    +0.000 S 
ATOM     25  C   UNL     1      44.232   3.251  10.601  0.00  0.00    +0.000 A 
ATOM     26  N   UNL     1      44.119   2.210   9.732  0.00  0.00    +0.000 NA
ATOM     27  C   UNL     1      44.796   2.349   8.641  0.00  0.00    +0.000 A 
ATOM     28  N   UNL     1      45.557   3.444   8.325  0.00  0.00    +0.000 N 
ATOM     29  C   UNL     1      45.614   4.559   9.127  0.00  0.00    +0.000 A 
ATOM     30  O   UNL     1      46.144   5.591   8.733  0.00  0.00    +0.000 OA
ATOM     31  C   UNL     1      44.949   4.419  10.406  0.00  0.00    +0.000 A 
ATOM     32  H   UNL     1      46.017   3.517   7.433  0.00  0.00    +0.000 HD
ENDBRANCH  19  22
ENDBRANCH   1  18
BRANCH   1  34
ATOM     33  C   UNL     1      50.039   8.803  11.473  0.00  0.00    +0.000 C 
ATOM     34  C   UNL     1      49.123   7.602  11.272  0.00  0.00    +0.000 C 
ENDBRANCH   1  34
TORSDOF 8
ENDMDL
MODEL 4
REMARK VINA RESULT:    -6.878      2.939      4.401
REMARK INTER + INTRA:         -11.545
REMARK INTER:                 -10.372
REMARK INTRA:                  -1.173
REMARK UNBOUND:                -1.450
REMARK  Name = 
REMARK  9 active torsions:
REMARK  status: ('A' for Active; 'I' for Inactive)
REMARK    1  A    between atoms: C_1  and  C_2
REMARK    2  A    between atoms: C_2  and  C_3
REMARK    3  A    between atoms: C_3  and  N_4
REMARK    4  A    between atoms: C_3  and  C_17
REMARK    5  A    between atoms: C_5  and  C_7
REMARK    6  A    between atoms: C_20  and  C_21
REMARK    7  A    between atoms: C_21  and  N_22
REMARK    8  A    between atoms: N_22  and  C_23
REMARK    9  A    between atoms: C_23  and  C_24
REMARK                            x       y       z     vdW  Elec       q    Type
REMARK                         _______ _______ _______ _____ _____    ______ ____
ROOT
ATOM      1  C   UNL     1      49.288   6.620  17.104  0.00  0.00    +0.000 C 
ENDROOT
BRANCH   1   2
ATOM      2  C   UNL     1      48.482   5.914  16.021  0.00  0.00    +0.000 A 
ATOM      3  C   UNL     1      47.846   4.696  16.297  0.00  0.00    +0.000 A 
ATOM      4  C   UNL     1      47.082   4.052  15.318  0.00  0.00    +0.000 A 
ATOM      5  C   UNL     1      46.923   4.615  14.043  0.00  0.00    +0.000 A 
ATOM      6  C   UNL     1      47.554   5.834  13.766  0.00  0.00    +0.000 A 
ATOM      7  C   UNL     1      48.323   6.474  14.742  0.00  0.00    +0.000 A 
BRANCH   5   8
ATOM      8  C   UNL     1      46.100   3.918  12.983  0.00  0.00    +0.000 C 
BRANCH   8   9
ATOM      9  N   UNL     1      44.675   4.158  13.181  0.00  0.00    +0.000 NA
ATOM     10  H   UNL     1      44.542   4.677  14.052  0.00  0.00    +0.000 HD
BRANCH   9  11
ATOM     11  C   UNL     1      44.107   4.964  12.097  0.00  0.00    +0.000 C 
BRANCH  11  12
ATOM     12  C   UNL     1      44.470   4.367  10.750  0.00  0.00    +0.000 A 
ATOM     13  C   UNL     1      45.262   5.088   9.858  0.00  0.00    +0.000 A 
ATOM     14  C   UNL     1      45.663   4.481   8.672  0.00  0.00    +0.000 A 
ATOM     15  C   UNL     1      45.273   3.174   8.413  0.00  0.00    +0.000 A 
ATOM     16  C   UNL     1      44.487   2.526   9.351  0.00  0.00    +0.000 A 
ATOM     17  N   UNL     1      44.077   3.088  10.509  0.00  0.00    +0.000 NA
ENDBRANCH  11  12
ENDBRANCH   9  11
ENDBRANCH   8   9
ENDBRANCH   5   8
ENDBRANCH   1   2
BRANCH   1  18
ATOM     18  N   UNL     1      50.258   5.681  17.648  0.00  0.00    +0.000 N 
ATOM     19  C   UNL     1      51.549   5.575  17.206  0.00  0.00    +0.000 C 
ATOM     20  O   UNL     1      52.007   6.311  16.336  0.00  0.00    +0.000 OA
ATOM     21  H   UNL     1      49.901   4.997  18.307  0.00  0.00    +0.000 HD
BRANCH  19  22
ATOM     22  C   UNL     1      52.376   4.545  17.852  0.00  0.00    +0.000 A 
ATOM     23  C   UNL     1      53.497   4.913  18.583  0.00  0.00    +0.000 A 
ATOM     24  S   UNL     1      54.364   3.591  19.220  0.00  0.00    +0.000 S 
ATOM     25  C   UNL     1      53.297   2.476  18.508  0.00  0.00    +0.000 A 
ATOM     26  N   UNL     1      53.506   1.136  18.615  0.00  0.00    +0.000 NA
ATOM     27  C   UNL     1      52.643   0.408  17.987  0.00  0.00    +0.000 A 
ATOM     28  N   UNL     1      51.573   0.895  17.282  0.00  0.00    +0.000 N 
ATOM     29  C   UNL     1      51.267   2.234  17.237  0.00  0.00    +0.000 A 
ATOM     30  O   UNL     1      50.206   2.621  16.763  0.00  0.00    +0.000 OA
ATOM     31  C   UNL     1      52.255   3.102  17.845  0.00  0.00    +0.000 A 
ATOM     32  H   UNL     1      50.903   0.274  16.860  0.00  0.00    +0.000 HD
ENDBRANCH  19  22
ENDBRANCH   1  18
BRANCH   1  34
ATOM     33  C   UNL     1      48.104   8.684  18.052  0.00  0.00    +0.000 C 
ATOM     34  C   UNL     1      48.407   7.201  18.228  0.00  0.00    +0.000 C 
ENDBRANCH   1  34
TORSDOF 8
ENDMDL
MODEL 5
REMARK VINA RESULT:    -6.826      2.418      4.269
REMARK INTER + INTRA:         -11.469
REMARK INTER:                 -10.210
REMARK INTRA:                  -1.258
REMARK UNBOUND:                -1.450
REMARK  Name = 
REMARK  9 active torsions:
REMARK  status: ('A' for Active; 'I' for Inactive)
REMARK    1  A    between atoms: C_1  and  C_2
REMARK    2  A    between atoms: C_2  and  C_3
REMARK    3  A    between atoms: C_3  and  N_4
REMARK    4  A    between atoms: C_3  and  C_17
REMARK    5  A    between atoms: C_5  and  C_7
REMARK    6  A    between atoms: C_20  and  C_21
REMARK    7  A    between atoms: C_21  and  N_22
REMARK    8  A    between atoms: N_22  and  C_23
REMARK    9  A    between atoms: C_23  and  C_24
REMARK                            x       y       z     vdW  Elec       q    Type
REMARK                         _______ _______ _______ _____ _____    ______ ____
ROOT
ATOM      1  C   UNL     1      47.177   4.735  15.130  0.00  0.00    +0.000 C 
ENDROOT
BRANCH   1   2
ATOM      2  C   UNL     1      46.282   4.718  13.897  0.00  0.00    +0.000 A 
ATOM      3  C   UNL     1      45.818   5.920  13.347  0.00  0.00    +0.000 A 
ATOM      4  C   UNL     1      45.017   5.918  12.200  0.00  0.00    +0.000 A 
ATOM      5  C   UNL     1      44.670   4.715  11.568  0.00  0.00    +0.000 A 
ATOM      6  C   UNL     1      45.135   3.513  12.113  0.00  0.00    +0.000 A 
ATOM      7  C   UNL     1      45.930   3.515  13.263  0.00  0.00    +0.000 A 
BRANCH   5   8
ATOM      8  C   UNL     1      43.801   4.712  10.330  0.00  0.00    +0.000 C 
BRANCH   8   9
ATOM      9  N   UNL     1      44.601   4.517   9.126  0.00  0.00    +0.000 NA
ATOM     10  H   UNL     1      45.584   4.690   9.347  0.00  0.00    +0.000 HD
BRANCH   9  11
ATOM     11  C   UNL     1      44.497   3.143   8.625  0.00  0.00    +0.000 C 
BRANCH  11  12
ATOM     12  C   UNL     1      45.717   2.791   7.795  0.00  0.00    +0.000 A 
ATOM     13  C   UNL     1      46.379   1.581   8.007  0.00  0.00    +0.000 A 
ATOM     14  C   UNL     1      47.433   1.236   7.168  0.00  0.00    +0.000 A 
ATOM     15  C   UNL     1      47.793   2.097   6.139  0.00  0.00    +0.000 A 
ATOM     16  C   UNL     1      47.085   3.278   5.995  0.00  0.00    +0.000 A 
ATOM     17  N   UNL     1      46.059   3.645   6.795  0.00  0.00    +0.000 NA
ENDBRANCH  11  12
ENDBRANCH   9  11
ENDBRANCH   8   9
ENDBRANCH   5   8
ENDBRANCH   1   2
BRANCH   1  18
ATOM     18  N   UNL     1      48.255   5.688  14.910  0.00  0.00    +0.000 N 
ATOM     19  C   UNL     1      48.790   6.475  15.892  0.00  0.00    +0.000 C 
ATOM     20  O   UNL     1      48.429   6.400  17.063  0.00  0.00    +0.000 OA
ATOM     21  H   UNL     1      48.526   5.844  13.944  0.00  0.00    +0.000 HD
BRANCH  19  22
ATOM     22  C   UNL     1      49.851   7.404  15.476  0.00  0.00    +0.000 A 
ATOM     23  C   UNL     1      51.173   7.144  15.813  0.00  0.00    +0.000 A 
ATOM     24  S   UNL     1      52.263   8.348  15.293  0.00  0.00    +0.000 S 
ATOM     25  C   UNL     1      51.004   9.281  14.633  0.00  0.00    +0.000 A 
ATOM     26  N   UNL     1      51.249  10.496  14.073  0.00  0.00    +0.000 NA
ATOM     27  C   UNL     1      50.195  11.115  13.654  0.00  0.00    +0.000 A 
ATOM     28  N   UNL     1      48.919  10.619  13.719  0.00  0.00    +0.000 N 
ATOM     29  C   UNL     1      48.641   9.354  14.181  0.00  0.00    +0.000 A 
ATOM     30  O   UNL     1      47.524   8.869  14.051  0.00  0.00    +0.000 OA
ATOM     31  C   UNL     1      49.774   8.655  14.751  0.00  0.00    +0.000 A 
ATOM     32  H   UNL     1      48.145  11.125  13.324  0.00  0.00    +0.000 HD
ENDBRANCH  19  22
ENDBRANCH   1  18
BRANCH   1  34
ATOM     33  C   UNL     1      47.750   3.053  16.976  0.00  0.00    +0.000 C 
ATOM     34  C   UNL     1      47.745   3.345  15.480  0.00  0.00    +0.000 C 
ENDBRANCH   1  34
TORSDOF 8
ENDMDL
MODEL 6
REMARK VINA RESULT:    -6.734      2.898      4.599
REMARK INTER + INTRA:         -11.333
REMARK INTER:                 -10.129
REMARK INTRA:                  -1.204
REMARK UNBOUND:                -1.450
REMARK  Name = 
REMARK  9 active torsions:
REMARK  status: ('A' for Active; 'I' for Inactive)
REMARK    1  A    between atoms: C_1  and  C_2
REMARK    2  A    between atoms: C_2  and  C_3
REMARK    3  A    between atoms: C_3  and  N_4
REMARK    4  A    between atoms: C_3  and  C_17
REMARK    5  A    between atoms: C_5  and  C_7
REMARK    6  A    between atoms: C_20  and  C_21
REMARK    7  A    between atoms: C_21  and  N_22
REMARK    8  A    between atoms: N_22  and  C_23
REMARK    9  A    between atoms: C_23  and  C_24
REMARK                            x       y       z     vdW  Elec       q    Type
REMARK                         _______ _______ _______ _____ _____    ______ ____
ROOT
ATOM      1  C   UNL     1      47.556   6.286  14.394  0.00  0.00    +0.000 C 
ENDROOT
BRANCH   1   2
ATOM      2  C   UNL     1      46.486   5.911  13.375  0.00  0.00    +0.000 A 
ATOM      3  C   UNL     1      46.344   6.654  12.197  0.00  0.00    +0.000 A 
ATOM      4  C   UNL     1      45.383   6.304  11.243  0.00  0.00    +0.000 A 
ATOM      5  C   UNL     1      44.548   5.194  11.438  0.00  0.00    +0.000 A 
ATOM      6  C   UNL     1      44.690   4.446  12.613  0.00  0.00    +0.000 A 
ATOM      7  C   UNL     1      45.647   4.801  13.569  0.00  0.00    +0.000 A 
BRANCH   5   8
ATOM      8  C   UNL     1      43.506   4.815  10.409  0.00  0.00    +0.000 C 
BRANCH   8   9
ATOM      9  N   UNL     1      44.127   4.280   9.203  0.00  0.00    +0.000 NA
ATOM     10  H   UNL     1      44.976   4.812   9.000  0.00  0.00    +0.000 HD
BRANCH   9  11
ATOM     11  C   UNL     1      44.517   2.877   9.373  0.00  0.00    +0.000 C 
BRANCH  11  12
ATOM     12  C   UNL     1      45.551   2.486   8.335  0.00  0.00    +0.000 A 
ATOM     13  C   UNL     1      46.026   3.437   7.432  0.00  0.00    +0.000 A 
ATOM     14  C   UNL     1      47.046   3.080   6.555  0.00  0.00    +0.000 A 
ATOM     15  C   UNL     1      47.568   1.794   6.607  0.00  0.00    +0.000 A 
ATOM     16  C   UNL     1      47.042   0.910   7.533  0.00  0.00    +0.000 A 
ATOM     17  N   UNL     1      46.050   1.224   8.396  0.00  0.00    +0.000 NA
ENDBRANCH  11  12
ENDBRANCH   9  11
ENDBRANCH   8   9
ENDBRANCH   5   8
ENDBRANCH   1   2
BRANCH   1  18
ATOM     18  N   UNL     1      48.745   6.725  13.679  0.00  0.00    +0.000 N 
ATOM     19  C   UNL     1      49.224   8.006  13.711  0.00  0.00    +0.000 C 
ATOM     20  O   UNL     1      48.707   8.884  14.396  0.00  0.00    +0.000 OA
ATOM     21  H   UNL     1      49.155   6.057  13.034  0.00  0.00    +0.000 HD
BRANCH  19  22
ATOM     22  C   UNL     1      50.420   8.274  12.898  0.00  0.00    +0.000 A 
ATOM     23  C   UNL     1      50.294   8.503  11.534  0.00  0.00    +0.000 A 
ATOM     24  S   UNL     1      51.784   8.747  10.740  0.00  0.00    +0.000 S 
ATOM     25  C   UNL     1      52.654   8.515  12.182  0.00  0.00    +0.000 A 
ATOM     26  N   UNL     1      54.014   8.532  12.193  0.00  0.00    +0.000 NA
ATOM     27  C   UNL     1      54.543   8.296  13.347  0.00  0.00    +0.000 A 
ATOM     28  N   UNL     1      53.837   8.071  14.501  0.00  0.00    +0.000 N 
ATOM     29  C   UNL     1      52.466   8.150  14.554  0.00  0.00    +0.000 A 
ATOM     30  O   UNL     1      51.877   8.133  15.628  0.00  0.00    +0.000 OA
ATOM     31  C   UNL     1      51.819   8.317  13.269  0.00  0.00    +0.000 A 
ATOM     32  H   UNL     1      54.308   7.949  15.382  0.00  0.00    +0.000 HD
ENDBRANCH  19  22
ENDBRANCH   1  18
BRANCH   1  34
ATOM     33  C   UNL     1      48.745   5.572  16.547  0.00  0.00    +0.000 C 
ATOM     34  C   UNL     1      47.898   5.133  15.359  0.00  0.00    +0.000 C 
ENDBRANCH   1  34
TORSDOF 8
ENDMDL
MODEL 7
REMARK VINA RESULT:    -6.672      3.742      9.424
REMARK INTER + INTRA:         -11.242
REMARK INTER:                  -9.955
REMARK INTRA:                  -1.287
REMARK UNBOUND:                -1.450
REMARK  Name = 
REMARK  9 active torsions:
REMARK  status: ('A' for Active; 'I' for Inactive)
REMARK    1  A    between atoms: C_1  and  C_2
REMARK    2  A    between atoms: C_2  and  C_3
REMARK    3  A    between atoms: C_3  and  N_4
REMARK    4  A    between atoms: C_3  and  C_17
REMARK    5  A    between atoms: C_5  and  C_7
REMARK    6  A    between atoms: C_20  and  C_21
REMARK    7  A    between atoms: C_21  and  N_22
REMARK    8  A    between atoms: N_22  and  C_23
REMARK    9  A    between atoms: C_23  and  C_24
REMARK                            x       y       z     vdW  Elec       q    Type
REMARK                         _______ _______ _______ _____ _____    ______ ____
ROOT
ATOM      1  C   UNL     1      44.538   4.539  11.386  0.00  0.00    +0.000 C 
ENDROOT
BRANCH   1   2
ATOM      2  C   UNL     1      45.620   5.304  12.138  0.00  0.00    +0.000 A 
ATOM      3  C   UNL     1      45.953   6.610  11.756  0.00  0.00    +0.000 A 
ATOM      4  C   UNL     1      46.927   7.332  12.454  0.00  0.00    +0.000 A 
ATOM      5  C   UNL     1      47.584   6.770  13.559  0.00  0.00    +0.000 A 
ATOM      6  C   UNL     1      47.250   5.467  13.945  0.00  0.00    +0.000 A 
ATOM      7  C   UNL     1      46.282   4.743  13.243  0.00  0.00    +0.000 A 
BRANCH   5   8
ATOM      8  C   UNL     1      48.640   7.548  14.313  0.00  0.00    +0.000 C 
BRANCH   8   9
ATOM      9  N   UNL     1      49.669   6.660  14.842  0.00  0.00    +0.000 NA
ATOM     10  H   UNL     1      50.579   6.947  14.475  0.00  0.00    +0.000 HD
BRANCH   9  11
ATOM     11  C   UNL     1      49.742   6.729  16.304  0.00  0.00    +0.000 C 
BRANCH  11  12
ATOM     12  C   UNL     1      49.323   5.406  16.917  0.00  0.00    +0.000 A 
ATOM     13  C   UNL     1      47.994   5.199  17.285  0.00  0.00    +0.000 A 
ATOM     14  C   UNL     1      47.614   3.945  17.752  0.00  0.00    +0.000 A 
ATOM     15  C   UNL     1      48.562   2.933  17.830  0.00  0.00    +0.000 A 
ATOM     16  C   UNL     1      49.860   3.220  17.444  0.00  0.00    +0.000 A 
ATOM     17  N   UNL     1      50.262   4.427  16.990  0.00  0.00    +0.000 NA
ENDBRANCH  11  12
ENDBRANCH   9  11
ENDBRANCH   8   9
ENDBRANCH   5   8
ENDBRANCH   1   2
BRANCH   1  18
ATOM     18  N   UNL     1      45.167   3.755  10.334  0.00  0.00    +0.000 N 
ATOM     19  C   UNL     1      44.650   2.590   9.838  0.00  0.00    +0.000 C 
ATOM     20  O   UNL     1      43.573   2.137  10.214  0.00  0.00    +0.000 OA
ATOM     21  H   UNL     1      46.098   4.045  10.053  0.00  0.00    +0.000 HD
BRANCH  19  22
ATOM     22  C   UNL     1      45.444   1.917   8.798  0.00  0.00    +0.000 A 
ATOM     23  C   UNL     1      45.437   0.531   8.710  0.00  0.00    +0.000 A 
ATOM     24  S   UNL     1      46.449  -0.081   7.481  0.00  0.00    +0.000 S 
ATOM     25  C   UNL     1      46.964   1.480   7.049  0.00  0.00    +0.000 A 
ATOM     26  N   UNL     1      47.902   1.668   6.082  0.00  0.00    +0.000 NA
ATOM     27  C   UNL     1      48.232   2.902   5.890  0.00  0.00    +0.000 A 
ATOM     28  N   UNL     1      47.692   3.970   6.558  0.00  0.00    +0.000 N 
ATOM     29  C   UNL     1      46.669   3.832   7.466  0.00  0.00    +0.000 A 
ATOM     30  O   UNL     1      46.080   4.813   7.904  0.00  0.00    +0.000 OA
ATOM     31  C   UNL     1      46.327   2.462   7.789  0.00  0.00    +0.000 A 
ATOM     32  H   UNL     1      47.950   4.914   6.324  0.00  0.00    +0.000 HD
ENDBRANCH  19  22
ENDBRANCH   1  18
BRANCH   1  34
ATOM     33  C   UNL     1      42.295   5.719  11.760  0.00  0.00    +0.000 C 
ATOM     34  C   UNL     1      43.449   5.459  10.800  0.00  0.00    +0.000 C 
ENDBRANCH   1  34
TORSDOF 8
ENDMDL
MODEL 8
REMARK VINA RESULT:    -6.655      3.345      5.651
REMARK INTER + INTRA:         -11.218
REMARK INTER:                  -9.793
REMARK INTRA:                  -1.425
REMARK UNBOUND:                -1.450
REMARK  Name = 
REMARK  9 active torsions:
REMARK  status: ('A' for Active; 'I' for Inactive)
REMARK    1  A    between atoms: C_1  and  C_2
REMARK    2  A    between atoms: C_2  and  C_3
REMARK    3  A    between atoms: C_3  and  N_4
REMARK    4  A    between atoms: C_3  and  C_17
REMARK    5  A    between atoms: C_5  and  C_7
REMARK    6  A    between atoms: C_20  and  C_21
REMARK    7  A    between atoms: C_21  and  N_22
REMARK    8  A    between atoms: N_22  and  C_23
REMARK    9  A    between atoms: C_23  and  C_24
REMARK                            x       y       z     vdW  Elec       q    Type
REMARK                         _______ _______ _______ _____ _____    ______ ____
ROOT
ATOM      1  C   UNL     1      49.035   7.499  14.628  0.00  0.00    +0.000 C 
ENDROOT
BRANCH   1   2
ATOM      2  C   UNL     1      47.990   7.022  13.626  0.00  0.00    +0.000 A 
ATOM      3  C   UNL     1      47.468   5.725  13.717  0.00  0.00    +0.000 A 
ATOM      4  C   UNL     1      46.490   5.285  12.819  0.00  0.00    +0.000 A 
ATOM      5  C   UNL     1      46.001   6.134  11.816  0.00  0.00    +0.000 A 
ATOM      6  C   UNL     1      46.517   7.432  11.725  0.00  0.00    +0.000 A 
ATOM      7  C   UNL     1      47.500   7.870  12.619  0.00  0.00    +0.000 A 
BRANCH   5   8
ATOM      8  C   UNL     1      44.946   5.658  10.842  0.00  0.00    +0.000 C 
BRANCH   8   9
ATOM      9  N   UNL     1      45.544   5.253   9.575  0.00  0.00    +0.000 NA
ATOM     10  H   UNL     1      46.466   4.850   9.755  0.00  0.00    +0.000 HD
BRANCH   9  11
ATOM     11  C   UNL     1      44.740   4.230   8.900  0.00  0.00    +0.000 C 
BRANCH  11  12
ATOM     12  C   UNL     1      45.638   3.238   8.186  0.00  0.00    +0.000 A 
ATOM     13  C   UNL     1      46.567   3.687   7.249  0.00  0.00    +0.000 A 
ATOM     14  C   UNL     1      47.447   2.771   6.682  0.00  0.00    +0.000 A 
ATOM     15  C   UNL     1      47.382   1.438   7.067  0.00  0.00    +0.000 A 
ATOM     16  C   UNL     1      46.431   1.073   8.005  0.00  0.00    +0.000 A 
ATOM     17  N   UNL     1      45.561   1.937   8.572  0.00  0.00    +0.000 NA
ENDBRANCH  11  12
ENDBRANCH   9  11
ENDBRANCH   8   9
ENDBRANCH   5   8
ENDBRANCH   1   2
BRANCH   1  18
ATOM     18  N   UNL     1      50.326   7.559  13.960  0.00  0.00    +0.000 N 
ATOM     19  C   UNL     1      51.079   8.697  13.856  0.00  0.00    +0.000 C 
ATOM     20  O   UNL     1      50.739   9.759  14.369  0.00  0.00    +0.000 OA
ATOM     21  H   UNL     1      50.607   6.728  13.449  0.00  0.00    +0.000 HD
BRANCH  19  22
ATOM     22  C   UNL     1      52.344   8.574  13.115  0.00  0.00    +0.000 A 
ATOM     23  C   UNL     1      53.543   8.906  13.730  0.00  0.00    +0.000 A 
ATOM     24  S   UNL     1      54.902   8.752  12.711  0.00  0.00    +0.000 S 
ATOM     25  C   UNL     1      53.933   8.275  11.398  0.00  0.00    +0.000 A 
ATOM     26  N   UNL     1      54.476   8.041  10.173  0.00  0.00    +0.000 NA
ATOM     27  C   UNL     1      53.618   7.731   9.259  0.00  0.00    +0.000 A 
ATOM     28  N   UNL     1      52.268   7.607   9.461  0.00  0.00    +0.000 N 
ATOM     29  C   UNL     1      51.694   7.732  10.704  0.00  0.00    +0.000 A 
ATOM     30  O   UNL     1      50.520   7.430  10.887  0.00  0.00    +0.000 OA
ATOM     31  C   UNL     1      52.597   8.172  11.747  0.00  0.00    +0.000 A 
ATOM     32  H   UNL     1      51.657   7.307   8.720  0.00  0.00    +0.000 HD
ENDBRANCH  19  22
ENDBRANCH   1  18
BRANCH   1  34
ATOM     33  C   UNL     1      48.836   7.363  17.178  0.00  0.00    +0.000 C 
ATOM     34  C   UNL     1      49.115   6.609  15.884  0.00  0.00    +0.000 C 
ENDBRANCH   1  34
TORSDOF 8
ENDMDL
MODEL 9
REMARK VINA RESULT:    -6.638      3.176      8.718
REMARK INTER + INTRA:         -11.192
REMARK INTER:                 -10.058
REMARK INTRA:                  -1.135
REMARK UNBOUND:                -1.450
REMARK  Name = 
REMARK  9 active torsions:
REMARK  status: ('A' for Active; 'I' for Inactive)
REMARK    1  A    between atoms: C_1  and  C_2
REMARK    2  A    between atoms: C_2  and  C_3
REMARK    3  A    between atoms: C_3  and  N_4
REMARK    4  A    between atoms: C_3  and  C_17
REMARK    5  A    between atoms: C_5  and  C_7
REMARK    6  A    between atoms: C_20  and  C_21
REMARK    7  A    between atoms: C_21  and  N_22
REMARK    8  A    between atoms: N_22  and  C_23
REMARK    9  A    between atoms: C_23  and  C_24
REMARK                            x       y       z     vdW  Elec       q    Type
REMARK                         _______ _______ _______ _____ _____    ______ ____
ROOT
ATOM      1  C   UNL     1      47.947   7.554  12.670  0.00  0.00    +0.000 C 
ENDROOT
BRANCH   1   2
ATOM      2  C   UNL     1      48.392   7.445  14.123  0.00  0.00    +0.000 A 
ATOM      3  C   UNL     1      48.208   6.248  14.828  0.00  0.00    +0.000 A 
ATOM      4  C   UNL     1      48.637   6.128  16.154  0.00  0.00    +0.000 A 
ATOM      5  C   UNL     1      49.271   7.196  16.804  0.00  0.00    +0.000 A 
ATOM      6  C   UNL     1      49.460   8.392  16.101  0.00  0.00    +0.000 A 
ATOM      7  C   UNL     1      49.026   8.514  14.778  0.00  0.00    +0.000 A 
BRANCH   5   8
ATOM      8  C   UNL     1      49.731   7.069  18.240  0.00  0.00    +0.000 C 
BRANCH   8   9
ATOM      9  N   UNL     1      50.087   5.690  18.557  0.00  0.00    +0.000 NA
ATOM     10  H   UNL     1      49.460   5.059  18.055  0.00  0.00    +0.000 HD
BRANCH   9  11
ATOM     11  C   UNL     1      51.457   5.376  18.139  0.00  0.00    +0.000 C 
BRANCH  11  12
ATOM     12  C   UNL     1      51.592   3.894  17.847  0.00  0.00    +0.000 A 
ATOM     13  C   UNL     1      52.710   3.194  18.299  0.00  0.00    +0.000 A 
ATOM     14  C   UNL     1      52.764   1.817  18.105  0.00  0.00    +0.000 A 
ATOM     15  C   UNL     1      51.704   1.177  17.476  0.00  0.00    +0.000 A 
ATOM     16  C   UNL     1      50.631   1.945  17.057  0.00  0.00    +0.000 A 
ATOM     17  N   UNL     1      50.548   3.283  17.227  0.00  0.00    +0.000 NA
ENDBRANCH  11  12
ENDBRANCH   9  11
ENDBRANCH   8   9
ENDBRANCH   5   8
ENDBRANCH   1   2
BRANCH   1  18
ATOM     18  N   UNL     1      47.095   6.416  12.357  0.00  0.00    +0.000 N 
ATOM     19  C   UNL     1      45.828   6.528  11.852  0.00  0.00    +0.000 C 
ATOM     20  O   UNL     1      45.326   7.612  11.572  0.00  0.00    +0.000 OA
ATOM     21  H   UNL     1      47.434   5.506  12.651  0.00  0.00    +0.000 HD
BRANCH  19  22
ATOM     22  C   UNL     1      45.103   5.268  11.630  0.00  0.00    +0.000 A 
ATOM     23  C   UNL     1      44.346   4.714  12.654  0.00  0.00    +0.000 A 
ATOM     24  S   UNL     1      43.614   3.230  12.240  0.00  0.00    +0.000 S 
ATOM     25  C   UNL     1      44.314   3.253  10.691  0.00  0.00    +0.000 A 
ATOM     26  N   UNL     1      44.137   2.220   9.824  0.00  0.00    +0.000 NA
ATOM     27  C   UNL     1      44.763   2.350   8.702  0.00  0.00    +0.000 A 
ATOM     28  N   UNL     1      45.531   3.431   8.355  0.00  0.00    +0.000 N 
ATOM     29  C   UNL     1      45.650   4.539   9.157  0.00  0.00    +0.000 A 
ATOM     30  O   UNL     1      46.184   5.562   8.742  0.00  0.00    +0.000 OA
ATOM     31  C   UNL     1      45.046   4.407  10.467  0.00  0.00    +0.000 A 
ATOM     32  H   UNL     1      45.949   3.499   7.442  0.00  0.00    +0.000 HD
ENDBRANCH  19  22
ENDBRANCH   1  18
BRANCH   1  34
ATOM     33  C   UNL     1      49.559   9.060  11.368  0.00  0.00    +0.000 C 
ATOM     34  C   UNL     1      49.128   7.633  11.683  0.00  0.00    +0.000 C 
ENDBRANCH   1  34
TORSDOF 8
ENDMDL
