MODEL 1
REMARK VINA RESULT:    -7.504      0.000      0.000
REMARK INTER + INTRA:          -9.873
REMARK INTER:                  -9.479
REMARK INTRA:                  -0.395
REMARK UNBOUND:                -0.395
REMARK  Name = 
REMARK  5 active torsions:
REMARK  status: ('A' for Active; 'I' for Inactive)
REMARK    1  A    between atoms: N_1  and  C_2
REMARK    2  A    between atoms: C_2  and  C_3
REMARK    3  A    between atoms: C_6  and  O_7
REMARK    4  A    between atoms: O_7  and  C_8
REMARK    5  A    between atoms: C_8  and  C_9
REMARK                            x       y       z     vdW  Elec       q    Type
REMARK                         _______ _______ _______ _____ _____    ______ ____
ROOT
ATOM      1  C   UNL     1      46.553   4.516  13.775  0.00  0.00    +0.000 A 
ATOM      2  C   UNL     1      46.702   5.696  13.047  0.00  0.00    +0.000 A 
ATOM      3  C   UNL     1      46.078   5.805  11.804  0.00  0.00    +0.000 A 
ATOM      4  C   UNL     1      45.301   4.753  11.331  0.00  0.00    +0.000 A 
ATOM      5  C   UNL     1      45.241   3.601  12.105  0.00  0.00    +0.000 A 
ATOM      6  N   UNL     1      45.834   3.462  13.313  0.00  0.00    +0.000 NA
ENDROOT
BRANCH   1   7
ATOM      7  C   UNL     1      47.121   4.390  15.170  0.00  0.00    +0.000 C 
BRANCH   7   8
ATOM      8  N   UNL     1      47.768   3.092  15.378  0.00  0.00    +0.000 NA
ATOM      9  H   UNL     1      47.258   2.586  16.098  0.00  0.00    +0.000 HD
ATOM     10  H   UNL     1      48.694   3.278  15.771  0.00  0.00    +0.000 HD
ENDBRANCH   7   8
ENDBRANCH   1   7
BRANCH   4  11
ATOM     11  O   UNL     1      44.654   4.956  10.144  0.00  0.00    +0.000 OA
BRANCH  11  12
ATOM     12  C   UNL     1      44.135   3.769   9.540  0.00  0.00    +0.000 C 
BRANCH  12  13
ATOM     13  C   UNL     1      45.189   3.164   8.651  0.00  0.00    +0.000 A 
ATOM     14  C   UNL     1      45.918   3.964   7.756  0.00  0.00    +0.000 A 
ATOM     15  C   UNL     1      46.898   3.399   6.936  0.00  0.00    +0.000 A 
ATOM     16  C   UNL     1      47.158   2.032   7.004  0.00  0.00    +0.000 A 
ATOM     17  C   UNL     1      46.439   1.240   7.890  0.00  0.00    +0.000 A 
ATOM     18  F   UNL     1      46.692  -0.074   7.959  0.00  0.00    +0.000 F 
ATOM     19  C   UNL     1      45.461   1.790   8.711  0.00  0.00    +0.000 A 
ENDBRANCH  12  13
ENDBRANCH  11  12
ENDBRANCH   4  11
TORSDOF 5
ENDMDL
MODEL 2
REMARK VINA RESULT:    -7.295      2.972      5.648
REMARK INTER + INTRA:          -9.608
REMARK INTER:                  -9.137
REMARK INTRA:                  -0.471
REMARK UNBOUND:                -0.395
REMARK  Name = 
REMARK  5 active torsions:
REMARK  status: ('A' for Active; 'I' for Inactive)
REMARK    1  A    between atoms: N_1  and  C_2
REMARK    2  A    between atoms: C_2  and  C_3
REMARK    3  A    between atoms: C_6  and  O_7
REMARK    4  A    between atoms: O_7  and  C_8
REMARK    5  A    between atoms: C_8  and  C_9
REMARK                            x       y       z     vdW  Elec       q    Type
REMARK                         _______ _______ _______ _____ _____    ______ ____
ROOT
ATOM      1  C   UNL     1      46.423   1.957   7.765  0.00  0.00    +0.000 A 
ATOM      2  C   UNL     1      46.385   3.311   7.431  0.00  0.00    +0.000 A 
ATOM      3  C   UNL     1      45.484   4.144   8.094  0.00  0.00    +0.000 A 
ATOM      4  C   UNL     1      44.667   3.618   9.090  0.00  0.00    +0.000 A 
ATOM      5  C   UNL     1      44.744   2.252   9.328  0.00  0.00    +0.000 A 
ATOM      6  N   UNL     1      45.605   1.416   8.703  0.00  0.00    +0.000 NA
ENDROOT
BRANCH   1   7
ATOM      7  C   UNL     1      47.452   1.037   7.150  0.00  0.00    +0.000 C 
BRANCH   7   8
ATOM      8  N   UNL     1      48.352   1.756   6.243  0.00  0.00    +0.000 NA
ATOM      9  H   UNL     1      49.153   1.163   6.041  0.00  0.00    +0.000 HD
ATOM     10  H   UNL     1      48.721   2.557   6.760  0.00  0.00    +0.000 HD
ENDBRANCH   7   8
ENDBRANCH   1   7
BRANCH   4  11
ATOM     11  O   UNL     1      43.866   4.504   9.754  0.00  0.00    +0.000 OA
BRANCH  11  12
ATOM     12  C   UNL     1      43.700   4.227  11.146  0.00  0.00    +0.000 C 
BRANCH  12  13
ATOM     13  C   UNL     1      44.931   4.675  11.890  0.00  0.00    +0.000 A 
ATOM     14  C   UNL     1      45.495   5.937  11.648  0.00  0.00    +0.000 A 
ATOM     15  C   UNL     1      46.636   6.350  12.343  0.00  0.00    +0.000 A 
ATOM     16  C   UNL     1      47.219   5.505  13.285  0.00  0.00    +0.000 A 
ATOM     17  C   UNL     1      46.661   4.256  13.525  0.00  0.00    +0.000 A 
ATOM     18  F   UNL     1      47.220   3.445  14.433  0.00  0.00    +0.000 F 
ATOM     19  C   UNL     1      45.527   3.834  12.841  0.00  0.00    +0.000 A 
ENDBRANCH  12  13
ENDBRANCH  11  12
ENDBRANCH   4  11
TORSDOF 5
ENDMDL
MODEL 3
REMARK VINA RESULT:    -7.197      3.412      6.195
REMARK INTER + INTRA:          -9.485
REMARK INTER:                  -9.121
REMARK INTRA:                  -0.364
REMARK UNBOUND:                -0.395
REMARK  Name = 
REMARK  5 active torsions:
REMARK  status: ('A' for Active; 'I' for Inactive)
REMARK    1  A    between atoms: N_1  and  C_2
REMARK    2  A    between atoms: C_2  and  C_3
REMARK    3  A    between atoms: C_6  and  O_7
REMARK    4  A    between atoms: O_7  and  C_8
REMARK    5  A    between atoms: C_8  and  C_9
REMARK                            x       y       z     vdW  Elec       q    Type
REMARK                         _______ _______ _______ _____ _____    ______ ____
ROOT
ATOM      1  C   UNL     1      46.607   2.728   6.801  0.00  0.00    +0.000 A 
ATOM      2  C   UNL     1      46.468   1.623   7.640  0.00  0.00    +0.000 A 
ATOM      3  C   UNL     1      45.655   1.732   8.769  0.00  0.00    +0.000 A 
ATOM      4  C   UNL     1      44.980   2.922   9.016  0.00  0.00    +0.000 A 
ATOM      5  C   UNL     1      45.208   3.982   8.149  0.00  0.00    +0.000 A 
ATOM      6  N   UNL     1      45.990   3.912   7.047  0.00  0.00    +0.000 NA
ENDROOT
BRANCH   1   7
ATOM      7  C   UNL     1      47.391   2.627   5.512  0.00  0.00    +0.000 C 
BRANCH   7   8
ATOM      8  N   UNL     1      48.601   1.815   5.674  0.00  0.00    +0.000 NA
ATOM      9  H   UNL     1      48.341   0.922   6.087  0.00  0.00    +0.000 HD
ATOM     10  H   UNL     1      49.186   2.284   6.370  0.00  0.00    +0.000 HD
ENDBRANCH   7   8
ENDBRANCH   1   7
BRANCH   4  11
ATOM     11  O   UNL     1      44.139   2.935  10.094  0.00  0.00    +0.000 OA
BRANCH  11  12
ATOM     12  C   UNL     1      43.845   4.238  10.603  0.00  0.00    +0.000 C 
BRANCH  12  13
ATOM     13  C   UNL     1      44.968   4.682  11.504  0.00  0.00    +0.000 A 
ATOM     14  C   UNL     1      45.363   3.896  12.598  0.00  0.00    +0.000 A 
ATOM     15  C   UNL     1      46.408   4.311  13.429  0.00  0.00    +0.000 A 
ATOM     16  C   UNL     1      47.065   5.512  13.171  0.00  0.00    +0.000 A 
ATOM     17  C   UNL     1      46.676   6.289  12.088  0.00  0.00    +0.000 A 
ATOM     18  F   UNL     1      47.311   7.442  11.838  0.00  0.00    +0.000 F 
ATOM     19  C   UNL     1      45.638   5.888  11.255  0.00  0.00    +0.000 A 
ENDBRANCH  12  13
ENDBRANCH  11  12
ENDBRANCH   4  11
TORSDOF 5
ENDMDL
MODEL 4
REMARK VINA RESULT:    -7.036      1.927      2.515
REMARK INTER + INTRA:          -9.282
REMARK INTER:                  -8.855
REMARK INTRA:                  -0.427
REMARK UNBOUND:                -0.395
REMARK  Name = 
REMARK  5 active torsions:
REMARK  status: ('A' for Active; 'I' for Inactive)
REMARK    1  A    between atoms: N_1  and  C_2
REMARK    2  A    between atoms: C_2  and  C_3
REMARK    3  A    between atoms: C_6  and  O_7
REMARK    4  A    between atoms: O_7  and  C_8
REMARK    5  A    between atoms: C_8  and  C_9
REMARK                            x       y       z     vdW  Elec       q    Type
REMARK                         _______ _______ _______ _____ _____    ______ ____
ROOT
ATOM      1  C   UNL     1      45.749   7.056  12.556  0.00  0.00    +0.000 A 
ATOM      2  C   UNL     1      44.888   6.930  11.466  0.00  0.00    +0.000 A 
ATOM      3  C   UNL     1      44.593   5.654  10.985  0.00  0.00    +0.000 A 
ATOM      4  C   UNL     1      45.134   4.539  11.617  0.00  0.00    +0.000 A 
ATOM      5  C   UNL     1      46.012   4.762  12.670  0.00  0.00    +0.000 A 
ATOM      6  N   UNL     1      46.321   5.984  13.161  0.00  0.00    +0.000 NA
ENDROOT
BRANCH   1   7
ATOM      7  C   UNL     1      46.015   8.408  13.178  0.00  0.00    +0.000 C 
BRANCH   7   8
ATOM      8  N   UNL     1      44.984   9.385  12.819  0.00  0.00    +0.000 NA
ATOM      9  H   UNL     1      44.832   9.344  11.813  0.00  0.00    +0.000 HD
ATOM     10  H   UNL     1      45.372  10.313  13.004  0.00  0.00    +0.000 HD
ENDBRANCH   7   8
ENDBRANCH   1   7
BRANCH   4  11
ATOM     11  O   UNL     1      44.741   3.318  11.145  0.00  0.00    +0.000 OA
BRANCH  11  12
ATOM     12  C   UNL     1      44.151   3.346   9.843  0.00  0.00    +0.000 C 
BRANCH  12  13
ATOM     13  C   UNL     1      45.189   2.960   8.821  0.00  0.00    +0.000 A 
ATOM     14  C   UNL     1      45.744   3.922   7.963  0.00  0.00    +0.000 A 
ATOM     15  C   UNL     1      46.709   3.560   7.020  0.00  0.00    +0.000 A 
ATOM     16  C   UNL     1      47.128   2.234   6.928  0.00  0.00    +0.000 A 
ATOM     17  C   UNL     1      46.580   1.281   7.778  0.00  0.00    +0.000 A 
ATOM     18  F   UNL     1      46.985   0.007   7.693  0.00  0.00    +0.000 F 
ATOM     19  C   UNL     1      45.619   1.629   8.720  0.00  0.00    +0.000 A 
ENDBRANCH  12  13
ENDBRANCH  11  12
ENDBRANCH   4  11
TORSDOF 5
ENDMDL
MODEL 5
REMARK VINA RESULT:    -6.047      1.609      2.236
REMARK INTER + INTRA:          -8.033
REMARK INTER:                  -7.570
REMARK INTRA:                  -0.462
REMARK UNBOUND:                -0.395
REMARK  Name = 
REMARK  5 active torsions:
REMARK  status: ('A' for Active; 'I' for Inactive)
REMARK    1  A    between atoms: N_1  and  C_2
REMARK    2  A    between atoms: C_2  and  C_3
REMARK    3  A    between atoms: C_6  and  O_7
REMARK    4  A    between atoms: O_7  and  C_8
REMARK    5  A    between atoms: C_8  and  C_9
REMARK                            x       y       z     vdW  Elec       q    Type
REMARK                         _______ _______ _______ _____ _____    ______ ____
ROOT
ATOM      1  C   UNL     1      47.136   5.161  14.422  0.00  0.00    +0.000 A 
ATOM      2  C   UNL     1      45.911   4.654  13.991  0.00  0.00    +0.000 A 
ATOM      3  C   UNL     1      45.456   4.983  12.714  0.00  0.00    +0.000 A 
ATOM      4  C   UNL     1      46.243   5.780  11.889  0.00  0.00    +0.000 A 
ATOM      5  C   UNL     1      47.430   6.272  12.416  0.00  0.00    +0.000 A 
ATOM      6  N   UNL     1      47.899   5.975  13.649  0.00  0.00    +0.000 NA
ENDROOT
BRANCH   1   7
ATOM      7  C   UNL     1      47.718   4.748  15.755  0.00  0.00    +0.000 C 
BRANCH   7   8
ATOM      8  N   UNL     1      47.435   3.343  16.061  0.00  0.00    +0.000 NA
ATOM      9  H   UNL     1      47.148   2.875  15.204  0.00  0.00    +0.000 HD
ATOM     10  H   UNL     1      46.617   3.329  16.674  0.00  0.00    +0.000 HD
ENDBRANCH   7   8
ENDBRANCH   1   7
BRANCH   4  11
ATOM     11  O   UNL     1      45.776   5.998  10.624  0.00  0.00    +0.000 OA
BRANCH  11  12
ATOM     12  C   UNL     1      44.686   5.157  10.240  0.00  0.00    +0.000 C 
BRANCH  12  13
ATOM     13  C   UNL     1      45.192   4.083   9.312  0.00  0.00    +0.000 A 
ATOM     14  C   UNL     1      45.063   2.726   9.648  0.00  0.00    +0.000 A 
ATOM     15  C   UNL     1      45.531   1.733   8.783  0.00  0.00    +0.000 A 
ATOM     16  C   UNL     1      46.129   2.089   7.575  0.00  0.00    +0.000 A 
ATOM     17  C   UNL     1      46.255   3.432   7.242  0.00  0.00    +0.000 A 
ATOM     18  F   UNL     1      46.826   3.774   6.079  0.00  0.00    +0.000 F 
ATOM     19  C   UNL     1      45.794   4.428   8.094  0.00  0.00    +0.000 A 
ENDBRANCH  12  13
ENDBRANCH  11  12
ENDBRANCH   4  11
TORSDOF 5
ENDMDL
MODEL 6
REMARK VINA RESULT:    -5.854      1.969      3.164
REMARK INTER + INTRA:          -7.788
REMARK INTER:                  -7.494
REMARK INTRA:                  -0.295
REMARK UNBOUND:                -0.395
REMARK  Name = 
REMARK  5 active torsions:
REMARK  status: ('A' for Active; 'I' for Inactive)
REMARK    1  A    between atoms: N_1  and  C_2
REMARK    2  A    between atoms: C_2  and  C_3
REMARK    3  A    between atoms: C_6  and  O_7
REMARK    4  A    between atoms: O_7  and  C_8
REMARK    5  A    between atoms: C_8  and  C_9
REMARK                            x       y       z     vdW  Elec       q    Type
REMARK                         _______ _______ _______ _____ _____    ______ ____
ROOT
ATOM      1  C   UNL     1      47.651   4.842  15.980  0.00  0.00    +0.000 A 
ATOM      2  C   UNL     1      48.199   6.010  15.452  0.00  0.00    +0.000 A 
ATOM      3  C   UNL     1      47.939   6.334  14.120  0.00  0.00    +0.000 A 
ATOM      4  C   UNL     1      47.119   5.508  13.359  0.00  0.00    +0.000 A 
ATOM      5  C   UNL     1      46.649   4.345  13.956  0.00  0.00    +0.000 A 
ATOM      6  N   UNL     1      46.883   4.000  15.243  0.00  0.00    +0.000 NA
ENDROOT
BRANCH   1   7
ATOM      7  C   UNL     1      47.817   4.503  17.444  0.00  0.00    +0.000 C 
BRANCH   7   8
ATOM      8  N   UNL     1      46.702   5.010  18.249  0.00  0.00    +0.000 NA
ATOM      9  H   UNL     1      45.838   4.879  17.729  0.00  0.00    +0.000 HD
ATOM     10  H   UNL     1      46.827   6.021  18.332  0.00  0.00    +0.000 HD
ENDBRANCH   7   8
ENDBRANCH   1   7
BRANCH   4  11
ATOM     11  O   UNL     1      46.842   5.925  12.088  0.00  0.00    +0.000 OA
BRANCH  11  12
ATOM     12  C   UNL     1      45.450   5.942  11.758  0.00  0.00    +0.000 C 
BRANCH  12  13
ATOM     13  C   UNL     1      45.168   4.859  10.751  0.00  0.00    +0.000 A 
ATOM     14  C   UNL     1      44.431   3.719  11.110  0.00  0.00    +0.000 A 
ATOM     15  C   UNL     1      44.168   2.718  10.170  0.00  0.00    +0.000 A 
ATOM     16  C   UNL     1      44.638   2.850   8.865  0.00  0.00    +0.000 A 
ATOM     17  C   UNL     1      45.366   3.979   8.508  0.00  0.00    +0.000 A 
ATOM     18  F   UNL     1      45.814   4.107   7.253  0.00  0.00    +0.000 F 
ATOM     19  C   UNL     1      45.634   4.980   9.434  0.00  0.00    +0.000 A 
ENDBRANCH  12  13
ENDBRANCH  11  12
ENDBRANCH   4  11
TORSDOF 5
ENDMDL
MODEL 7
REMARK VINA RESULT:    -5.472      4.084      5.561
REMARK INTER + INTRA:          -7.306
REMARK INTER:                  -6.924
REMARK INTRA:                  -0.382
REMARK UNBOUND:                -0.395
REMARK  Name = 
REMARK  5 active torsions:
REMARK  status: ('A' for Active; 'I' for Inactive)
REMARK    1  A    between atoms: N_1  and  C_2
REMARK    2  A    between atoms: C_2  and  C_3
REMARK    3  A    between atoms: C_6  and  O_7
REMARK    4  A    between atoms: O_7  and  C_8
REMARK    5  A    between atoms: C_8  and  C_9
REMARK                            x       y       z     vdW  Elec       q    Type
REMARK                         _______ _______ _______ _____ _____    ______ ____
ROOT
ATOM      1  C   UNL     1      48.261   4.772  18.225  0.00  0.00    +0.000 A 
ATOM      2  C   UNL     1      47.562   3.673  17.728  0.00  0.00    +0.000 A 
ATOM      3  C   UNL     1      47.245   3.634  16.370  0.00  0.00    +0.000 A 
ATOM      4  C   UNL     1      47.658   4.669  15.538  0.00  0.00    +0.000 A 
ATOM      5  C   UNL     1      48.315   5.742  16.127  0.00  0.00    +0.000 A 
ATOM      6  N   UNL     1      48.636   5.813  17.439  0.00  0.00    +0.000 NA
ENDROOT
BRANCH   1   7
ATOM      7  C   UNL     1      48.718   4.811  19.666  0.00  0.00    +0.000 C 
BRANCH   7   8
ATOM      8  N   UNL     1      48.402   3.565  20.370  0.00  0.00    +0.000 NA
ATOM      9  H   UNL     1      47.400   3.402  20.311  0.00  0.00    +0.000 HD
ATOM     10  H   UNL     1      48.601   3.722  21.361  0.00  0.00    +0.000 HD
ENDBRANCH   7   8
ENDBRANCH   1   7
BRANCH   4  11
ATOM     11  O   UNL     1      47.384   4.529  14.206  0.00  0.00    +0.000 OA
BRANCH  11  12
ATOM     12  C   UNL     1      46.556   5.557  13.659  0.00  0.00    +0.000 C 
BRANCH  12  13
ATOM     13  C   UNL     1      45.374   4.925  12.971  0.00  0.00    +0.000 A 
ATOM     14  C   UNL     1      45.443   3.608  12.491  0.00  0.00    +0.000 A 
ATOM     15  C   UNL     1      44.342   3.025  11.857  0.00  0.00    +0.000 A 
ATOM     16  C   UNL     1      43.165   3.754  11.699  0.00  0.00    +0.000 A 
ATOM     17  C   UNL     1      43.095   5.057  12.175  0.00  0.00    +0.000 A 
ATOM     18  F   UNL     1      41.962   5.756  12.026  0.00  0.00    +0.000 F 
ATOM     19  C   UNL     1      44.183   5.648  12.807  0.00  0.00    +0.000 A 
ENDBRANCH  12  13
ENDBRANCH  11  12
ENDBRANCH   4  11
TORSDOF 5
ENDMDL
MODEL 8
REMARK VINA RESULT:    -5.186      3.544      6.053
REMARK INTER + INTRA:          -6.945
REMARK INTER:                  -6.481
REMARK INTRA:                  -0.464
REMARK UNBOUND:                -0.395
REMARK  Name = 
REMARK  5 active torsions:
REMARK  status: ('A' for Active; 'I' for Inactive)
REMARK    1  A    between atoms: N_1  and  C_2
REMARK    2  A    between atoms: C_2  and  C_3
REMARK    3  A    between atoms: C_6  and  O_7
REMARK    4  A    between atoms: O_7  and  C_8
REMARK    5  A    between atoms: C_8  and  C_9
REMARK                            x       y       z     vdW  Elec       q    Type
REMARK                         _______ _______ _______ _____ _____    ______ ____
ROOT
ATOM      1  C   UNL     1      44.781   3.247   9.899  0.00  0.00    +0.000 A 
ATOM      2  C   UNL     1      45.239   4.490   9.464  0.00  0.00    +0.000 A 
ATOM      3  C   UNL     1      45.424   5.507  10.401  0.00  0.00    +0.000 A 
ATOM      4  C   UNL     1      45.180   5.253  11.747  0.00  0.00    +0.000 A 
ATOM      5  C   UNL     1      44.689   3.998  12.084  0.00  0.00    +0.000 A 
ATOM      6  N   UNL     1      44.496   2.992  11.202  0.00  0.00    +0.000 NA
ENDROOT
BRANCH   1   7
ATOM      7  C   UNL     1      44.665   2.085   8.939  0.00  0.00    +0.000 C 
BRANCH   7   8
ATOM      8  N   UNL     1      45.979   1.551   8.571  0.00  0.00    +0.000 NA
ATOM      9  H   UNL     1      46.213   0.793   9.208  0.00  0.00    +0.000 HD
ATOM     10  H   UNL     1      46.664   2.288   8.751  0.00  0.00    +0.000 HD
ENDBRANCH   7   8
ENDBRANCH   1   7
BRANCH   4  11
ATOM     11  O   UNL     1      45.458   6.267  12.620  0.00  0.00    +0.000 OA
BRANCH  11  12
ATOM     12  C   UNL     1      46.749   6.190  13.228  0.00  0.00    +0.000 C 
BRANCH  12  13
ATOM     13  C   UNL     1      47.634   7.263  12.649  0.00  0.00    +0.000 A 
ATOM     14  C   UNL     1      47.144   8.563  12.444  0.00  0.00    +0.000 A 
ATOM     15  C   UNL     1      47.970   9.556  11.910  0.00  0.00    +0.000 A 
ATOM     16  C   UNL     1      49.290   9.257  11.577  0.00  0.00    +0.000 A 
ATOM     17  C   UNL     1      49.775   7.971  11.781  0.00  0.00    +0.000 A 
ATOM     18  F   UNL     1      51.045   7.686  11.465  0.00  0.00    +0.000 F 
ATOM     19  C   UNL     1      48.964   6.976  12.311  0.00  0.00    +0.000 A 
ENDBRANCH  12  13
ENDBRANCH  11  12
ENDBRANCH   4  11
TORSDOF 5
ENDMDL
MODEL 9
REMARK VINA RESULT:    -5.180      4.245      6.452
REMARK INTER + INTRA:          -6.938
REMARK INTER:                  -6.515
REMARK INTRA:                  -0.422
REMARK UNBOUND:                -0.395
REMARK  Name = 
REMARK  5 active torsions:
REMARK  status: ('A' for Active; 'I' for Inactive)
REMARK    1  A    between atoms: N_1  and  C_2
REMARK    2  A    between atoms: C_2  and  C_3
REMARK    3  A    between atoms: C_6  and  O_7
REMARK    4  A    between atoms: O_7  and  C_8
REMARK    5  A    between atoms: C_8  and  C_9
REMARK                            x       y       z     vdW  Elec       q    Type
REMARK                         _______ _______ _______ _____ _____    ______ ____
ROOT
ATOM      1  C   UNL     1      44.773   3.985  11.526  0.00  0.00    +0.000 A 
ATOM      2  C   UNL     1      45.163   5.124  10.822  0.00  0.00    +0.000 A 
ATOM      3  C   UNL     1      45.966   6.069  11.461  0.00  0.00    +0.000 A 
ATOM      4  C   UNL     1      46.384   5.844  12.768  0.00  0.00    +0.000 A 
ATOM      5  C   UNL     1      45.914   4.702  13.404  0.00  0.00    +0.000 A 
ATOM      6  N   UNL     1      45.134   3.767  12.816  0.00  0.00    +0.000 NA
ENDROOT
BRANCH   1   7
ATOM      7  C   UNL     1      43.992   2.885  10.844  0.00  0.00    +0.000 C 
BRANCH   7   8
ATOM      8  N   UNL     1      43.029   2.258  11.754  0.00  0.00    +0.000 NA
ATOM      9  H   UNL     1      42.749   2.941  12.454  0.00  0.00    +0.000 HD
ATOM     10  H   UNL     1      43.529   1.526  12.263  0.00  0.00    +0.000 HD
ENDBRANCH   7   8
ENDBRANCH   1   7
BRANCH   4  11
ATOM     11  O   UNL     1      47.233   6.769  13.307  0.00  0.00    +0.000 OA
BRANCH  11  12
ATOM     12  C   UNL     1      48.596   6.635  12.897  0.00  0.00    +0.000 C 
BRANCH  12  13
ATOM     13  C   UNL     1      49.053   7.925  12.268  0.00  0.00    +0.000 A 
ATOM     14  C   UNL     1      48.183   9.022  12.169  0.00  0.00    +0.000 A 
ATOM     15  C   UNL     1      48.613  10.218  11.587  0.00  0.00    +0.000 A 
ATOM     16  C   UNL     1      49.915  10.327  11.102  0.00  0.00    +0.000 A 
ATOM     17  C   UNL     1      50.776   9.241  11.201  0.00  0.00    +0.000 A 
ATOM     18  F   UNL     1      52.029   9.347  10.738  0.00  0.00    +0.000 F 
ATOM     19  C   UNL     1      50.361   8.047  11.777  0.00  0.00    +0.000 A 
ENDBRANCH  12  13
ENDBRANCH  11  12
ENDBRANCH   4  11
TORSDOF 5
ENDMDL
