MODEL 1
REMARK VINA RESULT:    -7.910      0.000      0.000
REMARK INTER + INTRA:         -10.244
REMARK INTER:                  -9.760
REMARK INTRA:                  -0.485
REMARK UNBOUND:                -0.485
REMARK  Name = 
REMARK  6 active torsions:
REMARK  status: ('A' for Active; 'I' for Inactive)
REMARK    1  A    between atoms: C_1  and  C_2
REMARK    2  A    between atoms: C_7  and  C_8
REMARK    3  A    between atoms: C_8  and  O_9
REMARK    4  A    between atoms: O_9  and  C_10
REMARK    5  A    between atoms: C_13  and  C_14
REMARK    6  A    between atoms: C_23  and  C_24
REMARK                            x       y       z     vdW  Elec       q    Type
REMARK                         _______ _______ _______ _____ _____    ______ ____
ROOT
ATOM      1  C   UNL     1      47.978   8.676  15.116  0.00  0.00    +0.000 C 
ATOM      2  C   UNL     1      49.049   7.625  14.840  0.00  0.00    +0.000 C 
ATOM      3  C   UNL     1      48.803   6.812  13.556  0.00  0.00    +0.000 C 
ATOM      4  N   UNL     1      47.798   5.759  13.728  0.00  0.00    +0.000 N 
ATOM      5  C   UNL     1      46.567   5.892  13.112  0.00  0.00    +0.000 A 
ATOM      6  C   UNL     1      45.854   4.745  12.756  0.00  0.00    +0.000 A 
ATOM      7  C   UNL     1      44.610   4.841  12.121  0.00  0.00    +0.000 A 
ATOM      8  C   UNL     1      44.121   6.112  11.837  0.00  0.00    +0.000 A 
ATOM      9  C   UNL     1      44.885   7.204  12.208  0.00  0.00    +0.000 A 
ATOM     10  N   UNL     1      46.087   7.119  12.824  0.00  0.00    +0.000 NA
ATOM     11  C   UNL     1      47.893   4.976  14.966  0.00  0.00    +0.000 C 
ATOM     12  C   UNL     1      48.160   5.869  16.197  0.00  0.00    +0.000 C 
ATOM     13  C   UNL     1      48.515   5.008  17.406  0.00  0.00    +0.000 C 
ATOM     14  O   UNL     1      49.257   6.771  15.981  0.00  0.00    +0.000 OA
ENDROOT
BRANCH   7  15
ATOM     15  C   UNL     1      43.839   3.601  11.757  0.00  0.00    +0.000 C 
BRANCH  15  16
ATOM     16  O   UNL     1      43.426   3.671  10.393  0.00  0.00    +0.000 OA
BRANCH  16  17
ATOM     17  C   UNL     1      44.385   3.419   9.456  0.00  0.00    +0.000 A 
ATOM     18  C   UNL     1      44.976   4.313   8.584  0.00  0.00    +0.000 A 
ATOM     19  N   UNL     1      45.938   3.985   7.688  0.00  0.00    +0.000 NA
ATOM     20  C   UNL     1      46.306   2.682   7.682  0.00  0.00    +0.000 A 
ATOM     21  N   UNL     1      45.798   1.721   8.474  0.00  0.00    +0.000 NA
ATOM     22  C   UNL     1      44.843   2.122   9.344  0.00  0.00    +0.000 A 
BRANCH  20  23
ATOM     23  C   UNL     1      47.397   2.291   6.708  0.00  0.00    +0.000 C 
ATOM     24  N   UNL     1      47.427   2.998   5.529  0.00  0.00    +0.000 N 
ATOM     25  O   UNL     1      48.225   1.410   6.922  0.00  0.00    +0.000 OA
ATOM     26  H   UNL     1      46.750   3.727   5.349  0.00  0.00    +0.000 HD
ATOM     27  H   UNL     1      48.142   2.778   4.844  0.00  0.00    +0.000 HD
ENDBRANCH  20  23
ENDBRANCH  16  17
ENDBRANCH  15  16
ENDBRANCH   7  15
TORSDOF 4
ENDMDL
MODEL 2
REMARK VINA RESULT:    -7.787      1.591      2.741
REMARK INTER + INTRA:         -10.092
REMARK INTER:                  -9.851
REMARK INTRA:                  -0.242
REMARK UNBOUND:                -0.485
REMARK  Name = 
REMARK  6 active torsions:
REMARK  status: ('A' for Active; 'I' for Inactive)
REMARK    1  A    between atoms: C_1  and  C_2
REMARK    2  A    between atoms: C_7  and  C_8
REMARK    3  A    between atoms: C_8  and  O_9
REMARK    4  A    between atoms: O_9  and  C_10
REMARK    5  A    between atoms: C_13  and  C_14
REMARK    6  A    between atoms: C_23  and  C_24
REMARK                            x       y       z     vdW  Elec       q    Type
REMARK                         _______ _______ _______ _____ _____    ______ ____
ROOT
ATOM      1  C   UNL     1      49.871   7.527  14.302  0.00  0.00    +0.000 C 
ATOM      2  C   UNL     1      49.030   8.796  14.399  0.00  0.00    +0.000 C 
ATOM      3  C   UNL     1      47.519   8.529  14.520  0.00  0.00    +0.000 C 
ATOM      4  N   UNL     1      46.891   8.197  13.239  0.00  0.00    +0.000 N 
ATOM      5  C   UNL     1      46.448   6.905  13.018  0.00  0.00    +0.000 A 
ATOM      6  C   UNL     1      45.380   6.689  12.143  0.00  0.00    +0.000 A 
ATOM      7  C   UNL     1      44.899   5.397  11.903  0.00  0.00    +0.000 A 
ATOM      8  C   UNL     1      45.502   4.342  12.580  0.00  0.00    +0.000 A 
ATOM      9  C   UNL     1      46.547   4.630  13.440  0.00  0.00    +0.000 A 
ATOM     10  N   UNL     1      47.020   5.876  13.675  0.00  0.00    +0.000 NA
ATOM     11  C   UNL     1      47.300   9.014  12.090  0.00  0.00    +0.000 C 
ATOM     12  C   UNL     1      48.827   9.247  12.059  0.00  0.00    +0.000 C 
ATOM     13  C   UNL     1      49.177  10.308  11.021  0.00  0.00    +0.000 C 
ATOM     14  O   UNL     1      49.327   9.709  13.325  0.00  0.00    +0.000 OA
ENDROOT
BRANCH   7  15
ATOM     15  C   UNL     1      43.759   5.170  10.946  0.00  0.00    +0.000 C 
BRANCH  15  16
ATOM     16  O   UNL     1      43.784   3.823  10.476  0.00  0.00    +0.000 OA
BRANCH  16  17
ATOM     17  C   UNL     1      44.666   3.547   9.473  0.00  0.00    +0.000 A 
ATOM     18  C   UNL     1      45.216   4.428   8.560  0.00  0.00    +0.000 A 
ATOM     19  N   UNL     1      46.102   4.076   7.598  0.00  0.00    +0.000 NA
ATOM     20  C   UNL     1      46.435   2.764   7.566  0.00  0.00    +0.000 A 
ATOM     21  N   UNL     1      45.960   1.815   8.392  0.00  0.00    +0.000 NA
ATOM     22  C   UNL     1      45.080   2.239   9.328  0.00  0.00    +0.000 A 
BRANCH  20  23
ATOM     23  C   UNL     1      47.442   2.346   6.517  0.00  0.00    +0.000 C 
ATOM     24  N   UNL     1      47.428   3.075   5.350  0.00  0.00    +0.000 N 
ATOM     25  O   UNL     1      48.243   1.426   6.660  0.00  0.00    +0.000 OA
ATOM     26  H   UNL     1      46.773   3.836   5.227  0.00  0.00    +0.000 HD
ATOM     27  H   UNL     1      48.086   2.839   4.617  0.00  0.00    +0.000 HD
ENDBRANCH  20  23
ENDBRANCH  16  17
ENDBRANCH  15  16
ENDBRANCH   7  15
TORSDOF 4
ENDMDL
MODEL 3
REMARK VINA RESULT:    -6.358      1.682      2.933
REMARK INTER + INTRA:          -8.329
REMARK INTER:                  -8.012
REMARK INTRA:                  -0.317
REMARK UNBOUND:                -0.485
REMARK  Name = 
REMARK  6 active torsions:
REMARK  status: ('A' for Active; 'I' for Inactive)
REMARK    1  A    between atoms: C_1  and  C_2
REMARK    2  A    between atoms: C_7  and  C_8
REMARK    3  A    between atoms: C_8  and  O_9
REMARK    4  A    between atoms: O_9  and  C_10
REMARK    5  A    between atoms: C_13  and  C_14
REMARK    6  A    between atoms: C_23  and  C_24
REMARK                            x       y       z     vdW  Elec       q    Type
REMARK                         _______ _______ _______ _____ _____    ______ ____
ROOT
ATOM      1  C   UNL     1      50.699   5.704  16.648  0.00  0.00    +0.000 C 
ATOM      2  C   UNL     1      50.354   7.184  16.770  0.00  0.00    +0.000 C 
ATOM      3  C   UNL     1      48.879   7.504  16.465  0.00  0.00    +0.000 C 
ATOM      4  N   UNL     1      48.586   7.543  15.030  0.00  0.00    +0.000 N 
ATOM      5  C   UNL     1      47.815   6.539  14.471  0.00  0.00    +0.000 A 
ATOM      6  C   UNL     1      47.048   6.819  13.336  0.00  0.00    +0.000 A 
ATOM      7  C   UNL     1      46.248   5.832  12.750  0.00  0.00    +0.000 A 
ATOM      8  C   UNL     1      46.225   4.574  13.345  0.00  0.00    +0.000 A 
ATOM      9  C   UNL     1      47.000   4.371  14.473  0.00  0.00    +0.000 A 
ATOM     10  N   UNL     1      47.778   5.319  15.044  0.00  0.00    +0.000 NA
ATOM     11  C   UNL     1      49.570   8.234  14.190  0.00  0.00    +0.000 C 
ATOM     12  C   UNL     1      51.020   7.870  14.578  0.00  0.00    +0.000 C 
ATOM     13  C   UNL     1      52.004   8.800  13.874  0.00  0.00    +0.000 C 
ATOM     14  O   UNL     1      51.250   8.001  15.990  0.00  0.00    +0.000 OA
ENDROOT
BRANCH   7  15
ATOM     15  C   UNL     1      45.439   6.135  11.517  0.00  0.00    +0.000 C 
BRANCH  15  16
ATOM     16  O   UNL     1      44.734   4.965  11.102  0.00  0.00    +0.000 OA
BRANCH  16  17
ATOM     17  C   UNL     1      45.246   4.299  10.028  0.00  0.00    +0.000 A 
ATOM     18  C   UNL     1      45.237   2.937   9.791  0.00  0.00    +0.000 A 
ATOM     19  N   UNL     1      45.756   2.350   8.686  0.00  0.00    +0.000 NA
ATOM     20  C   UNL     1      46.313   3.196   7.786  0.00  0.00    +0.000 A 
ATOM     21  N   UNL     1      46.389   4.533   7.911  0.00  0.00    +0.000 NA
ATOM     22  C   UNL     1      45.850   5.049   9.039  0.00  0.00    +0.000 A 
BRANCH  20  23
ATOM     23  C   UNL     1      46.879   2.571   6.529  0.00  0.00    +0.000 C 
ATOM     24  N   UNL     1      47.948   1.724   6.711  0.00  0.00    +0.000 N 
ATOM     25  O   UNL     1      46.438   2.774   5.402  0.00  0.00    +0.000 OA
ATOM     26  H   UNL     1      48.313   1.550   7.639  0.00  0.00    +0.000 HD
ATOM     27  H   UNL     1      48.361   1.275   5.902  0.00  0.00    +0.000 HD
ENDBRANCH  20  23
ENDBRANCH  16  17
ENDBRANCH  15  16
ENDBRANCH   7  15
TORSDOF 4
ENDMDL
MODEL 4
REMARK VINA RESULT:    -6.284      2.918      4.666
REMARK INTER + INTRA:          -8.237
REMARK INTER:                  -7.713
REMARK INTRA:                  -0.525
REMARK UNBOUND:                -0.485
REMARK  Name = 
REMARK  6 active torsions:
REMARK  status: ('A' for Active; 'I' for Inactive)
REMARK    1  A    between atoms: C_1  and  C_2
REMARK    2  A    between atoms: C_7  and  C_8
REMARK    3  A    between atoms: C_8  and  O_9
REMARK    4  A    between atoms: O_9  and  C_10
REMARK    5  A    between atoms: C_13  and  C_14
REMARK    6  A    between atoms: C_23  and  C_24
REMARK                            x       y       z     vdW  Elec       q    Type
REMARK                         _______ _______ _______ _____ _____    ______ ____
ROOT
ATOM      1  C   UNL     1      48.233   6.377  19.675  0.00  0.00    +0.000 C 
ATOM      2  C   UNL     1      49.227   5.320  19.202  0.00  0.00    +0.000 C 
ATOM      3  C   UNL     1      50.011   5.728  17.941  0.00  0.00    +0.000 C 
ATOM      4  N   UNL     1      49.236   5.566  16.708  0.00  0.00    +0.000 N 
ATOM      5  C   UNL     1      48.811   6.692  16.025  0.00  0.00    +0.000 A 
ATOM      6  C   UNL     1      48.621   6.621  14.642  0.00  0.00    +0.000 A 
ATOM      7  C   UNL     1      48.202   7.741  13.917  0.00  0.00    +0.000 A 
ATOM      8  C   UNL     1      48.003   8.930  14.612  0.00  0.00    +0.000 A 
ATOM      9  C   UNL     1      48.221   8.932  15.979  0.00  0.00    +0.000 A 
ATOM     10  N   UNL     1      48.624   7.851  16.688  0.00  0.00    +0.000 NA
ATOM     11  C   UNL     1      48.454   4.330  16.596  0.00  0.00    +0.000 C 
ATOM     12  C   UNL     1      47.719   3.988  17.911  0.00  0.00    +0.000 C 
ATOM     13  C   UNL     1      47.144   2.577  17.843  0.00  0.00    +0.000 C 
ATOM     14  O   UNL     1      48.597   4.034  19.047  0.00  0.00    +0.000 OA
ENDROOT
BRANCH   7  15
ATOM     15  C   UNL     1      47.982   7.653  12.430  0.00  0.00    +0.000 C 
BRANCH  15  16
ATOM     16  O   UNL     1      46.586   7.723  12.143  0.00  0.00    +0.000 OA
BRANCH  16  17
ATOM     17  C   UNL     1      45.944   6.533  11.961  0.00  0.00    +0.000 A 
ATOM     18  C   UNL     1      45.388   5.713  12.925  0.00  0.00    +0.000 A 
ATOM     19  N   UNL     1      44.750   4.547  12.662  0.00  0.00    +0.000 NA
ATOM     20  C   UNL     1      44.684   4.205  11.353  0.00  0.00    +0.000 A 
ATOM     21  N   UNL     1      45.195   4.914  10.331  0.00  0.00    +0.000 NA
ATOM     22  C   UNL     1      45.816   6.067  10.669  0.00  0.00    +0.000 A 
BRANCH  20  23
ATOM     23  C   UNL     1      43.955   2.919  11.026  0.00  0.00    +0.000 C 
ATOM     24  N   UNL     1      44.467   2.192   9.976  0.00  0.00    +0.000 N 
ATOM     25  O   UNL     1      42.972   2.512  11.637  0.00  0.00    +0.000 OA
ATOM     26  H   UNL     1      45.280   2.521   9.471  0.00  0.00    +0.000 HD
ATOM     27  H   UNL     1      44.020   1.320   9.720  0.00  0.00    +0.000 HD
ENDBRANCH  20  23
ENDBRANCH  16  17
ENDBRANCH  15  16
ENDBRANCH   7  15
TORSDOF 4
ENDMDL
MODEL 5
REMARK VINA RESULT:    -5.753      4.437      7.165
REMARK INTER + INTRA:          -7.582
REMARK INTER:                  -7.148
REMARK INTRA:                  -0.434
REMARK UNBOUND:                -0.485
REMARK  Name = 
REMARK  6 active torsions:
REMARK  status: ('A' for Active; 'I' for Inactive)
REMARK    1  A    between atoms: C_1  and  C_2
REMARK    2  A    between atoms: C_7  and  C_8
REMARK    3  A    between atoms: C_8  and  O_9
REMARK    4  A    between atoms: O_9  and  C_10
REMARK    5  A    between atoms: C_13  and  C_14
REMARK    6  A    between atoms: C_23  and  C_24
REMARK                            x       y       z     vdW  Elec       q    Type
REMARK                         _______ _______ _______ _____ _____    ______ ____
ROOT
ATOM      1  C   UNL     1      46.831  10.436  11.772  0.00  0.00    +0.000 C 
ATOM      2  C   UNL     1      48.335  10.181  11.781  0.00  0.00    +0.000 C 
ATOM      3  C   UNL     1      48.711   8.692  11.682  0.00  0.00    +0.000 C 
ATOM      4  N   UNL     1      48.571   7.979  12.955  0.00  0.00    +0.000 N 
ATOM      5  C   UNL     1      47.556   7.051  13.101  0.00  0.00    +0.000 A 
ATOM      6  C   UNL     1      47.729   5.984  13.987  0.00  0.00    +0.000 A 
ATOM      7  C   UNL     1      46.728   5.021  14.153  0.00  0.00    +0.000 A 
ATOM      8  C   UNL     1      45.570   5.147  13.393  0.00  0.00    +0.000 A 
ATOM      9  C   UNL     1      45.471   6.221  12.527  0.00  0.00    +0.000 A 
ATOM     10  N   UNL     1      46.433   7.159  12.363  0.00  0.00    +0.000 NA
ATOM     11  C   UNL     1      49.069   8.681  14.143  0.00  0.00    +0.000 C 
ATOM     12  C   UNL     1      48.662  10.171  14.150  0.00  0.00    +0.000 C 
ATOM     13  C   UNL     1      49.415  10.919  15.246  0.00  0.00    +0.000 C 
ATOM     14  O   UNL     1      48.971  10.820  12.905  0.00  0.00    +0.000 OA
ENDROOT
BRANCH   7  15
ATOM     15  C   UNL     1      46.914   3.884  15.123  0.00  0.00    +0.000 C 
BRANCH  15  16
ATOM     16  O   UNL     1      47.540   4.361  16.313  0.00  0.00    +0.000 OA
BRANCH  16  17
ATOM     17  C   UNL     1      48.678   3.716  16.699  0.00  0.00    +0.000 A 
ATOM     18  C   UNL     1      49.722   4.216  17.456  0.00  0.00    +0.000 A 
ATOM     19  N   UNL     1      50.818   3.503  17.811  0.00  0.00    +0.000 NA
ATOM     20  C   UNL     1      50.848   2.224  17.367  0.00  0.00    +0.000 A 
ATOM     21  N   UNL     1      49.901   1.632  16.618  0.00  0.00    +0.000 NA
ATOM     22  C   UNL     1      48.836   2.404  16.302  0.00  0.00    +0.000 A 
BRANCH  20  23
ATOM     23  C   UNL     1      52.049   1.396  17.770  0.00  0.00    +0.000 C 
ATOM     24  N   UNL     1      51.779   0.113  18.187  0.00  0.00    +0.000 N 
ATOM     25  O   UNL     1      53.207   1.802  17.734  0.00  0.00    +0.000 OA
ATOM     26  H   UNL     1      50.827  -0.228  18.216  0.00  0.00    +0.000 HD
ATOM     27  H   UNL     1      52.549  -0.485  18.463  0.00  0.00    +0.000 HD
ENDBRANCH  20  23
ENDBRANCH  16  17
ENDBRANCH  15  16
ENDBRANCH   7  15
TORSDOF 4
ENDMDL
MODEL 6
REMARK VINA RESULT:    -5.731      4.939      6.784
REMARK INTER + INTRA:          -7.555
REMARK INTER:                  -7.188
REMARK INTRA:                  -0.368
REMARK UNBOUND:                -0.485
REMARK  Name = 
REMARK  6 active torsions:
REMARK  status: ('A' for Active; 'I' for Inactive)
REMARK    1  A    between atoms: C_1  and  C_2
REMARK    2  A    between atoms: C_7  and  C_8
REMARK    3  A    between atoms: C_8  and  O_9
REMARK    4  A    between atoms: O_9  and  C_10
REMARK    5  A    between atoms: C_13  and  C_14
REMARK    6  A    between atoms: C_23  and  C_24
REMARK                            x       y       z     vdW  Elec       q    Type
REMARK                         _______ _______ _______ _____ _____    ______ ____
ROOT
ATOM      1  C   UNL     1      45.351   9.742  11.841  0.00  0.00    +0.000 C 
ATOM      2  C   UNL     1      45.506   8.660  12.905  0.00  0.00    +0.000 C 
ATOM      3  C   UNL     1      46.920   8.585  13.510  0.00  0.00    +0.000 C 
ATOM      4  N   UNL     1      47.876   7.887  12.647  0.00  0.00    +0.000 N 
ATOM      5  C   UNL     1      48.878   8.611  12.026  0.00  0.00    +0.000 A 
ATOM      6  C   UNL     1      50.085   7.979  11.715  0.00  0.00    +0.000 A 
ATOM      7  C   UNL     1      51.125   8.682  11.097  0.00  0.00    +0.000 A 
ATOM      8  C   UNL     1      50.926  10.032  10.824  0.00  0.00    +0.000 A 
ATOM      9  C   UNL     1      49.711  10.596  11.169  0.00  0.00    +0.000 A 
ATOM     10  N   UNL     1      48.700   9.922  11.764  0.00  0.00    +0.000 NA
ATOM     11  C   UNL     1      47.392   6.656  12.012  0.00  0.00    +0.000 C 
ATOM     12  C   UNL     1      45.961   6.817  11.452  0.00  0.00    +0.000 C 
ATOM     13  C   UNL     1      45.397   5.458  11.048  0.00  0.00    +0.000 C 
ATOM     14  O   UNL     1      45.062   7.377  12.422  0.00  0.00    +0.000 OA
ENDROOT
BRANCH   7  15
ATOM     15  C   UNL     1      52.416   7.990  10.748  0.00  0.00    +0.000 C 
BRANCH  15  16
ATOM     16  O   UNL     1      52.720   8.198   9.370  0.00  0.00    +0.000 OA
BRANCH  16  17
ATOM     17  C   UNL     1      52.937   7.079   8.622  0.00  0.00    +0.000 A 
ATOM     18  C   UNL     1      52.288   6.693   7.464  0.00  0.00    +0.000 A 
ATOM     19  N   UNL     1      52.575   5.567   6.766  0.00  0.00    +0.000 NA
ATOM     20  C   UNL     1      53.567   4.802   7.281  0.00  0.00    +0.000 A 
ATOM     21  N   UNL     1      54.261   5.069   8.401  0.00  0.00    +0.000 NA
ATOM     22  C   UNL     1      53.922   6.209   9.045  0.00  0.00    +0.000 A 
BRANCH  20  23
ATOM     23  C   UNL     1      53.926   3.550   6.509  0.00  0.00    +0.000 C 
ATOM     24  N   UNL     1      53.192   2.427   6.816  0.00  0.00    +0.000 N 
ATOM     25  O   UNL     1      54.804   3.499   5.652  0.00  0.00    +0.000 OA
ATOM     26  H   UNL     1      52.466   2.465   7.519  0.00  0.00    +0.000 HD
ATOM     27  H   UNL     1      53.389   1.564   6.323  0.00  0.00    +0.000 HD
ENDBRANCH  20  23
ENDBRANCH  16  17
ENDBRANCH  15  16
ENDBRANCH   7  15
TORSDOF 4
ENDMDL
MODEL 7
REMARK VINA RESULT:    -5.613      2.065      2.690
REMARK INTER + INTRA:          -7.410
REMARK INTER:                  -6.969
REMARK INTRA:                  -0.441
REMARK UNBOUND:                -0.485
REMARK  Name = 
REMARK  6 active torsions:
REMARK  status: ('A' for Active; 'I' for Inactive)
REMARK    1  A    between atoms: C_1  and  C_2
REMARK    2  A    between atoms: C_7  and  C_8
REMARK    3  A    between atoms: C_8  and  O_9
REMARK    4  A    between atoms: O_9  and  C_10
REMARK    5  A    between atoms: C_13  and  C_14
REMARK    6  A    between atoms: C_23  and  C_24
REMARK                            x       y       z     vdW  Elec       q    Type
REMARK                         _______ _______ _______ _____ _____    ______ ____
ROOT
ATOM      1  C   UNL     1      50.671  10.439  14.775  0.00  0.00    +0.000 C 
ATOM      2  C   UNL     1      51.394   9.105  14.629  0.00  0.00    +0.000 C 
ATOM      3  C   UNL     1      50.783   8.183  13.558  0.00  0.00    +0.000 C 
ATOM      4  N   UNL     1      49.577   7.491  14.019  0.00  0.00    +0.000 N 
ATOM      5  C   UNL     1      48.349   7.848  13.490  0.00  0.00    +0.000 A 
ATOM      6  C   UNL     1      47.328   6.896  13.431  0.00  0.00    +0.000 A 
ATOM      7  C   UNL     1      46.077   7.219  12.894  0.00  0.00    +0.000 A 
ATOM      8  C   UNL     1      45.892   8.507  12.401  0.00  0.00    +0.000 A 
ATOM      9  C   UNL     1      46.951   9.395  12.482  0.00  0.00    +0.000 A 
ATOM     10  N   UNL     1      48.162   9.091  13.003  0.00  0.00    +0.000 NA
ATOM     11  C   UNL     1      49.632   6.936  15.376  0.00  0.00    +0.000 C 
ATOM     12  C   UNL     1      50.276   7.919  16.378  0.00  0.00    +0.000 C 
ATOM     13  C   UNL     1      50.559   7.214  17.702  0.00  0.00    +0.000 C 
ATOM     14  O   UNL     1      51.528   8.435  15.897  0.00  0.00    +0.000 OA
ENDROOT
BRANCH   7  15
ATOM     15  C   UNL     1      44.975   6.194  12.849  0.00  0.00    +0.000 C 
BRANCH  15  16
ATOM     16  O   UNL     1      44.352   6.209  11.565  0.00  0.00    +0.000 OA
BRANCH  16  17
ATOM     17  C   UNL     1      44.758   5.251  10.683  0.00  0.00    +0.000 A 
ATOM     18  C   UNL     1      44.466   3.900  10.704  0.00  0.00    +0.000 A 
ATOM     19  N   UNL     1      44.897   3.011   9.778  0.00  0.00    +0.000 NA
ATOM     20  C   UNL     1      45.664   3.528   8.788  0.00  0.00    +0.000 A 
ATOM     21  N   UNL     1      46.022   4.819   8.669  0.00  0.00    +0.000 NA
ATOM     22  C   UNL     1      45.555   5.649   9.629  0.00  0.00    +0.000 A 
BRANCH  20  23
ATOM     23  C   UNL     1      46.140   2.562   7.725  0.00  0.00    +0.000 C 
ATOM     24  N   UNL     1      46.292   3.089   6.463  0.00  0.00    +0.000 N 
ATOM     25  O   UNL     1      46.393   1.379   7.935  0.00  0.00    +0.000 OA
ATOM     26  H   UNL     1      46.088   4.063   6.285  0.00  0.00    +0.000 HD
ATOM     27  H   UNL     1      46.614   2.485   5.715  0.00  0.00    +0.000 HD
ENDBRANCH  20  23
ENDBRANCH  16  17
ENDBRANCH  15  16
ENDBRANCH   7  15
TORSDOF 4
ENDMDL
MODEL 8
REMARK VINA RESULT:    -5.399      3.632      5.674
REMARK INTER + INTRA:          -7.145
REMARK INTER:                  -6.706
REMARK INTRA:                  -0.439
REMARK UNBOUND:                -0.485
REMARK  Name = 
REMARK  6 active torsions:
REMARK  status: ('A' for Active; 'I' for Inactive)
REMARK    1  A    between atoms: C_1  and  C_2
REMARK    2  A    between atoms: C_7  and  C_8
REMARK    3  A    between atoms: C_8  and  O_9
REMARK    4  A    between atoms: O_9  and  C_10
REMARK    5  A    between atoms: C_13  and  C_14
REMARK    6  A    between atoms: C_23  and  C_24
REMARK                            x       y       z     vdW  Elec       q    Type
REMARK                         _______ _______ _______ _____ _____    ______ ____
ROOT
ATOM      1  C   UNL     1      54.216   7.686  13.218  0.00  0.00    +0.000 C 
ATOM      2  C   UNL     1      53.950   8.856  12.276  0.00  0.00    +0.000 C 
ATOM      3  C   UNL     1      52.682   9.657  12.626  0.00  0.00    +0.000 C 
ATOM      4  N   UNL     1      51.450   9.002  12.178  0.00  0.00    +0.000 N 
ATOM      5  C   UNL     1      50.591   8.464  13.119  0.00  0.00    +0.000 A 
ATOM      6  C   UNL     1      49.226   8.383  12.831  0.00  0.00    +0.000 A 
ATOM      7  C   UNL     1      48.327   7.854  13.763  0.00  0.00    +0.000 A 
ATOM      8  C   UNL     1      48.831   7.433  14.989  0.00  0.00    +0.000 A 
ATOM      9  C   UNL     1      50.192   7.553  15.211  0.00  0.00    +0.000 A 
ATOM     10  N   UNL     1      51.068   8.061  14.314  0.00  0.00    +0.000 NA
ATOM     11  C   UNL     1      51.482   8.422  10.830  0.00  0.00    +0.000 C 
ATOM     12  C   UNL     1      52.796   7.656  10.560  0.00  0.00    +0.000 C 
ATOM     13  C   UNL     1      52.906   7.303   9.080  0.00  0.00    +0.000 C 
ATOM     14  O   UNL     1      53.954   8.436  10.898  0.00  0.00    +0.000 OA
ENDROOT
BRANCH   7  15
ATOM     15  C   UNL     1      46.859   7.754  13.439  0.00  0.00    +0.000 C 
BRANCH  15  16
ATOM     16  O   UNL     1      46.687   7.535  12.039  0.00  0.00    +0.000 OA
BRANCH  16  17
ATOM     17  C   UNL     1      46.020   6.401  11.681  0.00  0.00    +0.000 A 
ATOM     18  C   UNL     1      45.908   5.844  10.421  0.00  0.00    +0.000 A 
ATOM     19  N   UNL     1      45.236   4.699  10.148  0.00  0.00    +0.000 NA
ATOM     20  C   UNL     1      44.650   4.101  11.213  0.00  0.00    +0.000 A 
ATOM     21  N   UNL     1      44.682   4.552  12.479  0.00  0.00    +0.000 NA
ATOM     22  C   UNL     1      45.371   5.699  12.677  0.00  0.00    +0.000 A 
BRANCH  20  23
ATOM     23  C   UNL     1      43.914   2.807  10.942  0.00  0.00    +0.000 C 
ATOM     24  N   UNL     1      44.342   2.093   9.847  0.00  0.00    +0.000 N 
ATOM     25  O   UNL     1      42.993   2.384  11.634  0.00  0.00    +0.000 OA
ATOM     26  H   UNL     1      45.103   2.435   9.275  0.00  0.00    +0.000 HD
ATOM     27  H   UNL     1      43.885   1.216   9.625  0.00  0.00    +0.000 HD
ENDBRANCH  20  23
ENDBRANCH  16  17
ENDBRANCH  15  16
ENDBRANCH   7  15
TORSDOF 4
ENDMDL
MODEL 9
REMARK VINA RESULT:    -5.195      2.411      3.968
REMARK INTER + INTRA:          -6.894
REMARK INTER:                  -7.188
REMARK INTRA:                   0.294
REMARK UNBOUND:                -0.485
REMARK  Name = 
REMARK  6 active torsions:
REMARK  status: ('A' for Active; 'I' for Inactive)
REMARK    1  A    between atoms: C_1  and  C_2
REMARK    2  A    between atoms: C_7  and  C_8
REMARK    3  A    between atoms: C_8  and  O_9
REMARK    4  A    between atoms: O_9  and  C_10
REMARK    5  A    between atoms: C_13  and  C_14
REMARK    6  A    between atoms: C_23  and  C_24
REMARK                            x       y       z     vdW  Elec       q    Type
REMARK                         _______ _______ _______ _____ _____    ______ ____
ROOT
ATOM      1  C   UNL     1      49.897   2.960  17.765  0.00  0.00    +0.000 C 
ATOM      2  C   UNL     1      49.979   4.299  18.491  0.00  0.00    +0.000 C 
ATOM      3  C   UNL     1      48.852   5.277  18.115  0.00  0.00    +0.000 C 
ATOM      4  N   UNL     1      49.080   5.947  16.832  0.00  0.00    +0.000 N 
ATOM      5  C   UNL     1      48.283   5.622  15.749  0.00  0.00    +0.000 A 
ATOM      6  C   UNL     1      48.056   6.578  14.755  0.00  0.00    +0.000 A 
ATOM      7  C   UNL     1      47.248   6.287  13.651  0.00  0.00    +0.000 A 
ATOM      8  C   UNL     1      46.661   5.027  13.587  0.00  0.00    +0.000 A 
ATOM      9  C   UNL     1      46.920   4.133  14.612  0.00  0.00    +0.000 A 
ATOM     10  N   UNL     1      47.703   4.406  15.681  0.00  0.00    +0.000 NA
ATOM     11  C   UNL     1      50.445   6.429  16.591  0.00  0.00    +0.000 C 
ATOM     12  C   UNL     1      51.509   5.393  17.015  0.00  0.00    +0.000 C 
ATOM     13  C   UNL     1      52.897   6.026  17.001  0.00  0.00    +0.000 C 
ATOM     14  O   UNL     1      51.281   4.900  18.345  0.00  0.00    +0.000 OA
ENDROOT
BRANCH   7  15
ATOM     15  C   UNL     1      47.022   7.316  12.576  0.00  0.00    +0.000 C 
BRANCH  15  16
ATOM     16  O   UNL     1      45.688   7.214  12.081  0.00  0.00    +0.000 OA
BRANCH  16  17
ATOM     17  C   UNL     1      45.465   6.261  11.131  0.00  0.00    +0.000 A 
ATOM     18  C   UNL     1      44.482   5.289  11.117  0.00  0.00    +0.000 A 
ATOM     19  N   UNL     1      44.317   4.383  10.123  0.00  0.00    +0.000 NA
ATOM     20  C   UNL     1      45.202   4.474   9.101  0.00  0.00    +0.000 A 
ATOM     21  N   UNL     1      46.203   5.367   9.009  0.00  0.00    +0.000 NA
ATOM     22  C   UNL     1      46.306   6.241  10.036  0.00  0.00    +0.000 A 
BRANCH  20  23
ATOM     23  C   UNL     1      45.027   3.490   7.964  0.00  0.00    +0.000 C 
ATOM     24  N   UNL     1      44.196   2.423   8.219  0.00  0.00    +0.000 N 
ATOM     25  O   UNL     1      45.567   3.603   6.868  0.00  0.00    +0.000 OA
ATOM     26  H   UNL     1      43.745   2.327   9.119  0.00  0.00    +0.000 HD
ATOM     27  H   UNL     1      44.040   1.738   7.489  0.00  0.00    +0.000 HD
ENDBRANCH  20  23
ENDBRANCH  16  17
ENDBRANCH  15  16
ENDBRANCH   7  15
TORSDOF 4
ENDMDL
