MODEL 1
REMARK VINA RESULT:    -8.190      0.000      0.000
REMARK INTER + INTRA:         -12.162
REMARK INTER:                 -11.062
REMARK INTRA:                  -1.100
REMARK UNBOUND:                -1.100
REMARK  Name = 
REMARK  6 active torsions:
REMARK  status: ('A' for Active; 'I' for Inactive)
REMARK    1  A    between atoms: C_2  and  C_25
REMARK    2  A    between atoms: N_3  and  C_4
REMARK    3  A    between atoms: C_4  and  C_5
REMARK    4  A    between atoms: C_8  and  C_9
REMARK    5  A    between atoms: C_9  and  N_10
REMARK    6  A    between atoms: C_11  and  C_13
REMARK                            x       y       z     vdW  Elec       q    Type
REMARK                         _______ _______ _______ _____ _____    ______ ____
ROOT
ATOM      1  C   UNL     1      44.865   5.162  10.547  0.00  0.00    +0.000 A 
ATOM      2  C   UNL     1      44.276   5.409  11.789  0.00  0.00    +0.000 A 
ATOM      3  C   UNL     1      44.882   6.292  12.680  0.00  0.00    +0.000 A 
ATOM      4  C   UNL     1      46.074   6.906  12.311  0.00  0.00    +0.000 A 
ATOM      5  N   UNL     1      46.648   6.708  11.096  0.00  0.00    +0.000 NA
ATOM      6  C   UNL     1      46.033   5.852  10.248  0.00  0.00    +0.000 A 
ENDROOT
BRANCH   1   7
ATOM      7  C   UNL     1      44.271   4.187   9.579  0.00  0.00    +0.000 C 
BRANCH   7  10
ATOM      8  O   UNL     1      45.268   1.624   9.136  0.00  0.00    +0.000 OA
ATOM      9  C   UNL     1      45.613   2.529   8.386  0.00  0.00    +0.000 C 
ATOM     10  N   UNL     1      45.179   3.828   8.524  0.00  0.00    +0.000 N 
ATOM     11  H   UNL     1      45.479   4.505   7.827  0.00  0.00    +0.000 HD
BRANCH   9  12
ATOM     12  C   UNL     1      46.515   2.327   7.266  0.00  0.00    +0.000 A 
ATOM     13  C   UNL     1      47.485   1.354   7.177  0.00  0.00    +0.000 A 
ATOM     14  O   UNL     1      48.128   1.500   5.986  0.00  0.00    +0.000 OA
ATOM     15  C   UNL     1      47.506   2.565   5.408  0.00  0.00    +0.000 A 
ATOM     16  N   UNL     1      46.535   3.101   6.115  0.00  0.00    +0.000 NA
ENDBRANCH   9  12
ENDBRANCH   7  10
ENDBRANCH   1   7
BRANCH   4  17
ATOM     17  C   UNL     1      46.771   7.848  13.263  0.00  0.00    +0.000 C 
BRANCH  17  18
ATOM     18  N   UNL     1      47.298   7.160  14.418  0.00  0.00    +0.000 N 
ATOM     19  C   UNL     1      48.594   6.732  14.502  0.00  0.00    +0.000 C 
ATOM     20  O   UNL     1      49.402   6.911  13.595  0.00  0.00    +0.000 OA
ATOM     21  H   UNL     1      46.599   6.787  15.054  0.00  0.00    +0.000 HD
BRANCH  19  22
ATOM     22  C   UNL     1      48.991   6.114  15.775  0.00  0.00    +0.000 A 
ATOM     23  C   UNL     1      50.048   6.650  16.501  0.00  0.00    +0.000 A 
ATOM     24  S   UNL     1      50.326   5.859  17.988  0.00  0.00    +0.000 S 
ATOM     25  C   UNL     1      49.076   4.743  17.691  0.00  0.00    +0.000 A 
ATOM     26  N   UNL     1      48.790   3.759  18.586  0.00  0.00    +0.000 NA
ATOM     27  C   UNL     1      47.841   2.963  18.219  0.00  0.00    +0.000 A 
ATOM     28  N   UNL     1      47.152   3.063  17.039  0.00  0.00    +0.000 N 
ATOM     29  C   UNL     1      47.376   4.066  16.128  0.00  0.00    +0.000 A 
ATOM     30  O   UNL     1      46.693   4.166  15.115  0.00  0.00    +0.000 OA
ATOM     31  C   UNL     1      48.447   4.978  16.482  0.00  0.00    +0.000 A 
ATOM     32  H   UNL     1      46.410   2.417  16.813  0.00  0.00    +0.000 HD
ENDBRANCH  19  22
ENDBRANCH  17  18
ENDBRANCH   4  17
TORSDOF 6
ENDMDL
MODEL 2
REMARK VINA RESULT:    -7.899      1.227      1.369
REMARK INTER + INTRA:         -11.770
REMARK INTER:                 -10.978
REMARK INTRA:                  -0.792
REMARK UNBOUND:                -1.100
REMARK  Name = 
REMARK  6 active torsions:
REMARK  status: ('A' for Active; 'I' for Inactive)
REMARK    1  A    between atoms: C_2  and  C_25
REMARK    2  A    between atoms: N_3  and  C_4
REMARK    3  A    between atoms: C_4  and  C_5
REMARK    4  A    between atoms: C_8  and  C_9
REMARK    5  A    between atoms: C_9  and  N_10
REMARK    6  A    between atoms: C_11  and  C_13
REMARK                            x       y       z     vdW  Elec       q    Type
REMARK                         _______ _______ _______ _____ _____    ______ ____
ROOT
ATOM      1  C   UNL     1      44.708   5.039  11.110  0.00  0.00    +0.000 A 
ATOM      2  C   UNL     1      45.576   4.539  12.083  0.00  0.00    +0.000 A 
ATOM      3  C   UNL     1      46.368   5.415  12.822  0.00  0.00    +0.000 A 
ATOM      4  C   UNL     1      46.280   6.779  12.566  0.00  0.00    +0.000 A 
ATOM      5  N   UNL     1      45.420   7.292  11.649  0.00  0.00    +0.000 NA
ATOM      6  C   UNL     1      44.658   6.419  10.952  0.00  0.00    +0.000 A 
ENDROOT
BRANCH   1   7
ATOM      7  C   UNL     1      43.874   4.131  10.264  0.00  0.00    +0.000 C 
BRANCH   7  10
ATOM      8  O   UNL     1      45.496   4.547   8.038  0.00  0.00    +0.000 OA
ATOM      9  C   UNL     1      45.425   3.420   8.513  0.00  0.00    +0.000 C 
ATOM     10  N   UNL     1      44.649   3.113   9.608  0.00  0.00    +0.000 N 
ATOM     11  H   UNL     1      44.687   2.162   9.964  0.00  0.00    +0.000 HD
BRANCH   9  12
ATOM     12  C   UNL     1      46.156   2.287   7.974  0.00  0.00    +0.000 A 
ATOM     13  C   UNL     1      47.128   2.344   7.000  0.00  0.00    +0.000 A 
ATOM     14  O   UNL     1      47.562   1.076   6.758  0.00  0.00    +0.000 OA
ATOM     15  C   UNL     1      46.824   0.310   7.607  0.00  0.00    +0.000 A 
ATOM     16  N   UNL     1      45.971   0.968   8.362  0.00  0.00    +0.000 NA
ENDBRANCH   9  12
ENDBRANCH   7  10
ENDBRANCH   1   7
BRANCH   4  17
ATOM     17  C   UNL     1      47.143   7.754  13.330  0.00  0.00    +0.000 C 
BRANCH  17  18
ATOM     18  N   UNL     1      47.567   7.219  14.603  0.00  0.00    +0.000 N 
ATOM     19  C   UNL     1      48.870   6.914  14.885  0.00  0.00    +0.000 C 
ATOM     20  O   UNL     1      49.772   7.080  14.069  0.00  0.00    +0.000 OA
ATOM     21  H   UNL     1      46.822   6.847  15.184  0.00  0.00    +0.000 HD
BRANCH  19  22
ATOM     22  C   UNL     1      49.145   6.449  16.252  0.00  0.00    +0.000 A 
ATOM     23  C   UNL     1      49.878   7.250  17.118  0.00  0.00    +0.000 A 
ATOM     24  S   UNL     1      50.039   6.593  18.685  0.00  0.00    +0.000 S 
ATOM     25  C   UNL     1      49.177   5.193  18.248  0.00  0.00    +0.000 A 
ATOM     26  N   UNL     1      48.964   4.194  19.145  0.00  0.00    +0.000 NA
ATOM     27  C   UNL     1      48.325   3.176  18.670  0.00  0.00    +0.000 A 
ATOM     28  N   UNL     1      47.878   3.070  17.379  0.00  0.00    +0.000 N 
ATOM     29  C   UNL     1      48.030   4.072  16.453  0.00  0.00    +0.000 A 
ATOM     30  O   UNL     1      47.556   3.972  15.327  0.00  0.00    +0.000 OA
ATOM     31  C   UNL     1      48.760   5.232  16.930  0.00  0.00    +0.000 A 
ATOM     32  H   UNL     1      47.372   2.254  17.069  0.00  0.00    +0.000 HD
ENDBRANCH  19  22
ENDBRANCH  17  18
ENDBRANCH   4  17
TORSDOF 6
ENDMDL
MODEL 3
REMARK VINA RESULT:    -7.612      2.366      2.854
REMARK INTER + INTRA:         -11.382
REMARK INTER:                 -10.469
REMARK INTRA:                  -0.913
REMARK UNBOUND:                -1.100
REMARK  Name = 
REMARK  6 active torsions:
REMARK  status: ('A' for Active; 'I' for Inactive)
REMARK    1  A    between atoms: C_2  and  C_25
REMARK    2  A    between atoms: N_3  and  C_4
REMARK    3  A    between atoms: C_4  and  C_5
REMARK    4  A    between atoms: C_8  and  C_9
REMARK    5  A    between atoms: C_9  and  N_10
REMARK    6  A    between atoms: C_11  and  C_13
REMARK                            x       y       z     vdW  Elec       q    Type
REMARK                         _______ _______ _______ _____ _____    ______ ____
ROOT
ATOM      1  C   UNL     1      45.333   4.983  11.405  0.00  0.00    +0.000 A 
ATOM      2  C   UNL     1      45.748   6.254  11.000  0.00  0.00    +0.000 A 
ATOM      3  C   UNL     1      46.602   6.995  11.813  0.00  0.00    +0.000 A 
ATOM      4  C   UNL     1      47.019   6.451  13.023  0.00  0.00    +0.000 A 
ATOM      5  N   UNL     1      46.657   5.205  13.423  0.00  0.00    +0.000 NA
ATOM      6  C   UNL     1      45.833   4.505  12.610  0.00  0.00    +0.000 A 
ENDROOT
BRANCH   1   7
ATOM      7  C   UNL     1      44.381   4.172  10.583  0.00  0.00    +0.000 C 
BRANCH   7  10
ATOM      8  O   UNL     1      45.448   4.497   8.030  0.00  0.00    +0.000 OA
ATOM      9  C   UNL     1      45.537   3.401   8.572  0.00  0.00    +0.000 C 
ATOM     10  N   UNL     1      45.038   3.140   9.828  0.00  0.00    +0.000 N 
ATOM     11  H   UNL     1      45.198   2.215  10.219  0.00  0.00    +0.000 HD
BRANCH   9  12
ATOM     12  C   UNL     1      46.181   2.260   7.946  0.00  0.00    +0.000 A 
ATOM     13  C   UNL     1      47.031   2.307   6.864  0.00  0.00    +0.000 A 
ATOM     14  O   UNL     1      47.414   1.035   6.568  0.00  0.00    +0.000 OA
ATOM     15  C   UNL     1      46.772   0.275   7.497  0.00  0.00    +0.000 A 
ATOM     16  N   UNL     1      46.025   0.942   8.350  0.00  0.00    +0.000 NA
ENDBRANCH   9  12
ENDBRANCH   7  10
ENDBRANCH   1   7
BRANCH   4  17
ATOM     17  C   UNL     1      47.924   7.239  13.940  0.00  0.00    +0.000 C 
BRANCH  17  18
ATOM     18  N   UNL     1      47.883   6.745  15.296  0.00  0.00    +0.000 N 
ATOM     19  C   UNL     1      49.008   6.429  16.007  0.00  0.00    +0.000 C 
ATOM     20  O   UNL     1      50.135   6.549  15.535  0.00  0.00    +0.000 OA
ATOM     21  H   UNL     1      46.977   6.407  15.606  0.00  0.00    +0.000 HD
BRANCH  19  22
ATOM     22  C   UNL     1      48.798   6.011  17.400  0.00  0.00    +0.000 A 
ATOM     23  C   UNL     1      49.087   4.707  17.779  0.00  0.00    +0.000 A 
ATOM     24  S   UNL     1      48.858   4.412  19.445  0.00  0.00    +0.000 S 
ATOM     25  C   UNL     1      48.318   6.004  19.709  0.00  0.00    +0.000 A 
ATOM     26  N   UNL     1      47.939   6.417  20.948  0.00  0.00    +0.000 NA
ATOM     27  C   UNL     1      47.519   7.638  20.998  0.00  0.00    +0.000 A 
ATOM     28  N   UNL     1      47.448   8.483  19.922  0.00  0.00    +0.000 N 
ATOM     29  C   UNL     1      47.862   8.123  18.663  0.00  0.00    +0.000 A 
ATOM     30  O   UNL     1      47.850   8.927  17.738  0.00  0.00    +0.000 OA
ATOM     31  C   UNL     1      48.325   6.753  18.547  0.00  0.00    +0.000 A 
ATOM     32  H   UNL     1      47.122   9.432  20.026  0.00  0.00    +0.000 HD
ENDBRANCH  19  22
ENDBRANCH  17  18
ENDBRANCH   4  17
TORSDOF 6
ENDMDL
MODEL 4
REMARK VINA RESULT:    -7.092      4.773      9.414
REMARK INTER + INTRA:         -10.679
REMARK INTER:                  -9.887
REMARK INTRA:                  -0.792
REMARK UNBOUND:                -1.100
REMARK  Name = 
REMARK  6 active torsions:
REMARK  status: ('A' for Active; 'I' for Inactive)
REMARK    1  A    between atoms: C_2  and  C_25
REMARK    2  A    between atoms: N_3  and  C_4
REMARK    3  A    between atoms: C_4  and  C_5
REMARK    4  A    between atoms: C_8  and  C_9
REMARK    5  A    between atoms: C_9  and  N_10
REMARK    6  A    between atoms: C_11  and  C_13
REMARK                            x       y       z     vdW  Elec       q    Type
REMARK                         _______ _______ _______ _____ _____    ______ ____
ROOT
ATOM      1  C   UNL     1      51.328   2.891  17.741  0.00  0.00    +0.000 A 
ATOM      2  C   UNL     1      50.633   3.999  18.233  0.00  0.00    +0.000 A 
ATOM      3  C   UNL     1      49.281   4.155  17.939  0.00  0.00    +0.000 A 
ATOM      4  C   UNL     1      48.650   3.199  17.149  0.00  0.00    +0.000 A 
ATOM      5  N   UNL     1      49.295   2.097  16.688  0.00  0.00    +0.000 NA
ATOM      6  C   UNL     1      50.606   1.968  16.996  0.00  0.00    +0.000 A 
ENDROOT
BRANCH   1   7
ATOM      7  C   UNL     1      52.791   2.709  17.996  0.00  0.00    +0.000 C 
BRANCH   7  10
ATOM      8  O   UNL     1      54.737   1.199  16.694  0.00  0.00    +0.000 OA
ATOM      9  C   UNL     1      54.115   0.689  17.619  0.00  0.00    +0.000 C 
ATOM     10  N   UNL     1      53.134   1.351  18.321  0.00  0.00    +0.000 N 
ATOM     11  H   UNL     1      52.703   0.867  19.105  0.00  0.00    +0.000 HD
BRANCH   9  12
ATOM     12  C   UNL     1      54.351  -0.669  18.076  0.00  0.00    +0.000 A 
ATOM     13  C   UNL     1      55.098  -1.622  17.422  0.00  0.00    +0.000 A 
ATOM     14  O   UNL     1      55.070  -2.766  18.159  0.00  0.00    +0.000 OA
ATOM     15  C   UNL     1      54.300  -2.443  19.234  0.00  0.00    +0.000 A 
ATOM     16  N   UNL     1      53.844  -1.209  19.249  0.00  0.00    +0.000 NA
ENDBRANCH   9  12
ENDBRANCH   7  10
ENDBRANCH   1   7
BRANCH   4  17
ATOM     17  C   UNL     1      47.192   3.351  16.790  0.00  0.00    +0.000 C 
BRANCH  17  18
ATOM     18  N   UNL     1      46.979   4.402  15.823  0.00  0.00    +0.000 N 
ATOM     19  C   UNL     1      47.004   4.187  14.472  0.00  0.00    +0.000 C 
ATOM     20  O   UNL     1      47.207   3.076  13.990  0.00  0.00    +0.000 OA
ATOM     21  H   UNL     1      47.061   5.346  16.186  0.00  0.00    +0.000 HD
BRANCH  19  22
ATOM     22  C   UNL     1      46.694   5.348  13.625  0.00  0.00    +0.000 A 
ATOM     23  C   UNL     1      47.671   6.306  13.386  0.00  0.00    +0.000 A 
ATOM     24  S   UNL     1      47.169   7.544  12.324  0.00  0.00    +0.000 S 
ATOM     25  C   UNL     1      45.613   6.870  12.185  0.00  0.00    +0.000 A 
ATOM     26  N   UNL     1      44.660   7.461  11.415  0.00  0.00    +0.000 NA
ATOM     27  C   UNL     1      43.515   6.862  11.428  0.00  0.00    +0.000 A 
ATOM     28  N   UNL     1      43.239   5.723  12.138  0.00  0.00    +0.000 N 
ATOM     29  C   UNL     1      44.182   5.067  12.890  0.00  0.00    +0.000 A 
ATOM     30  O   UNL     1      43.920   4.012  13.456  0.00  0.00    +0.000 OA
ATOM     31  C   UNL     1      45.483   5.710  12.927  0.00  0.00    +0.000 A 
ATOM     32  H   UNL     1      42.327   5.292  12.097  0.00  0.00    +0.000 HD
ENDBRANCH  19  22
ENDBRANCH  17  18
ENDBRANCH   4  17
TORSDOF 6
ENDMDL
MODEL 5
REMARK VINA RESULT:    -7.018      1.235      1.546
REMARK INTER + INTRA:         -10.579
REMARK INTER:                  -9.618
REMARK INTRA:                  -0.961
REMARK UNBOUND:                -1.100
REMARK  Name = 
REMARK  6 active torsions:
REMARK  status: ('A' for Active; 'I' for Inactive)
REMARK    1  A    between atoms: C_2  and  C_25
REMARK    2  A    between atoms: N_3  and  C_4
REMARK    3  A    between atoms: C_4  and  C_5
REMARK    4  A    between atoms: C_8  and  C_9
REMARK    5  A    between atoms: C_9  and  N_10
REMARK    6  A    between atoms: C_11  and  C_13
REMARK                            x       y       z     vdW  Elec       q    Type
REMARK                         _______ _______ _______ _____ _____    ______ ____
ROOT
ATOM      1  C   UNL     1      45.236   6.465  11.529  0.00  0.00    +0.000 A 
ATOM      2  C   UNL     1      44.892   7.785  11.827  0.00  0.00    +0.000 A 
ATOM      3  C   UNL     1      45.714   8.545  12.656  0.00  0.00    +0.000 A 
ATOM      4  C   UNL     1      46.864   7.963  13.179  0.00  0.00    +0.000 A 
ATOM      5  N   UNL     1      47.237   6.693  12.876  0.00  0.00    +0.000 NA
ATOM      6  C   UNL     1      46.425   5.981  12.062  0.00  0.00    +0.000 A 
ENDROOT
BRANCH   1   7
ATOM      7  C   UNL     1      44.359   5.600  10.679  0.00  0.00    +0.000 C 
BRANCH   7  10
ATOM      8  O   UNL     1      44.132   2.906  10.006  0.00  0.00    +0.000 OA
ATOM      9  C   UNL     1      44.894   3.614   9.359  0.00  0.00    +0.000 C 
ATOM     10  N   UNL     1      45.079   4.953   9.615  0.00  0.00    +0.000 N 
ATOM     11  H   UNL     1      45.696   5.474   8.997  0.00  0.00    +0.000 HD
BRANCH   9  12
ATOM     12  C   UNL     1      45.684   3.114   8.247  0.00  0.00    +0.000 A 
ATOM     13  C   UNL     1      46.160   1.830   8.108  0.00  0.00    +0.000 A 
ATOM     14  O   UNL     1      46.863   1.759   6.944  0.00  0.00    +0.000 OA
ATOM     15  C   UNL     1      46.774   3.018   6.432  0.00  0.00    +0.000 A 
ATOM     16  N   UNL     1      46.083   3.872   7.155  0.00  0.00    +0.000 NA
ENDBRANCH   9  12
ENDBRANCH   7  10
ENDBRANCH   1   7
BRANCH   4  17
ATOM     17  C   UNL     1      47.763   8.750  14.102  0.00  0.00    +0.000 C 
BRANCH  17  18
ATOM     18  N   UNL     1      48.208   7.962  15.226  0.00  0.00    +0.000 N 
ATOM     19  C   UNL     1      49.482   7.476  15.337  0.00  0.00    +0.000 C 
ATOM     20  O   UNL     1      50.338   7.684  14.482  0.00  0.00    +0.000 OA
ATOM     21  H   UNL     1      47.467   7.575  15.803  0.00  0.00    +0.000 HD
BRANCH  19  22
ATOM     22  C   UNL     1      49.795   6.755  16.579  0.00  0.00    +0.000 A 
ATOM     23  C   UNL     1      50.775   7.247  17.432  0.00  0.00    +0.000 A 
ATOM     24  S   UNL     1      50.958   6.331  18.862  0.00  0.00    +0.000 S 
ATOM     25  C   UNL     1      49.769   5.219  18.368  0.00  0.00    +0.000 A 
ATOM     26  N   UNL     1      49.441   4.153  19.147  0.00  0.00    +0.000 NA
ATOM     27  C   UNL     1      48.549   3.372  18.635  0.00  0.00    +0.000 A 
ATOM     28  N   UNL     1      47.952   3.563  17.416  0.00  0.00    +0.000 N 
ATOM     29  C   UNL     1      48.218   4.648  16.618  0.00  0.00    +0.000 A 
ATOM     30  O   UNL     1      47.615   4.824  15.565  0.00  0.00    +0.000 OA
ATOM     31  C   UNL     1      49.231   5.548  17.137  0.00  0.00    +0.000 A 
ATOM     32  H   UNL     1      47.250   2.923  17.074  0.00  0.00    +0.000 HD
ENDBRANCH  19  22
ENDBRANCH  17  18
ENDBRANCH   4  17
TORSDOF 6
ENDMDL
MODEL 6
REMARK VINA RESULT:    -6.795      3.876      8.475
REMARK INTER + INTRA:         -10.277
REMARK INTER:                  -9.260
REMARK INTRA:                  -1.018
REMARK UNBOUND:                -1.100
REMARK  Name = 
REMARK  6 active torsions:
REMARK  status: ('A' for Active; 'I' for Inactive)
REMARK    1  A    between atoms: C_2  and  C_25
REMARK    2  A    between atoms: N_3  and  C_4
REMARK    3  A    between atoms: C_4  and  C_5
REMARK    4  A    between atoms: C_8  and  C_9
REMARK    5  A    between atoms: C_9  and  N_10
REMARK    6  A    between atoms: C_11  and  C_13
REMARK                            x       y       z     vdW  Elec       q    Type
REMARK                         _______ _______ _______ _____ _____    ______ ____
ROOT
ATOM      1  C   UNL     1      49.573   4.665  17.554  0.00  0.00    +0.000 A 
ATOM      2  C   UNL     1      50.223   5.890  17.387  0.00  0.00    +0.000 A 
ATOM      3  C   UNL     1      49.820   6.756  16.374  0.00  0.00    +0.000 A 
ATOM      4  C   UNL     1      48.775   6.374  15.539  0.00  0.00    +0.000 A 
ATOM      5  N   UNL     1      48.105   5.205  15.703  0.00  0.00    +0.000 NA
ATOM      6  C   UNL     1      48.513   4.387  16.700  0.00  0.00    +0.000 A 
ENDROOT
BRANCH   1   7
ATOM      7  C   UNL     1      50.003   3.687  18.601  0.00  0.00    +0.000 C 
BRANCH   7  10
ATOM      8  O   UNL     1      50.692   1.392  17.180  0.00  0.00    +0.000 OA
ATOM      9  C   UNL     1      51.584   2.067  17.679  0.00  0.00    +0.000 C 
ATOM     10  N   UNL     1      51.346   3.214  18.402  0.00  0.00    +0.000 N 
ATOM     11  H   UNL     1      52.150   3.737  18.740  0.00  0.00    +0.000 HD
BRANCH   9  12
ATOM     12  C   UNL     1      52.992   1.730  17.558  0.00  0.00    +0.000 A 
ATOM     13  C   UNL     1      54.048   2.560  17.862  0.00  0.00    +0.000 A 
ATOM     14  O   UNL     1      55.204   1.889  17.604  0.00  0.00    +0.000 OA
ATOM     15  C   UNL     1      54.784   0.674  17.155  0.00  0.00    +0.000 A 
ATOM     16  N   UNL     1      53.479   0.513  17.107  0.00  0.00    +0.000 NA
ENDBRANCH   9  12
ENDBRANCH   7  10
ENDBRANCH   1   7
BRANCH   4  17
ATOM     17  C   UNL     1      48.330   7.278  14.415  0.00  0.00    +0.000 C 
BRANCH  17  18
ATOM     18  N   UNL     1      47.071   6.856  13.846  0.00  0.00    +0.000 N 
ATOM     19  C   UNL     1      46.847   6.794  12.498  0.00  0.00    +0.000 C 
ATOM     20  O   UNL     1      47.710   7.091  11.677  0.00  0.00    +0.000 OA
ATOM     21  H   UNL     1      46.287   6.851  14.491  0.00  0.00    +0.000 HD
BRANCH  19  22
ATOM     22  C   UNL     1      45.537   6.273  12.083  0.00  0.00    +0.000 A 
ATOM     23  C   UNL     1      44.599   7.134  11.528  0.00  0.00    +0.000 A 
ATOM     24  S   UNL     1      43.163   6.353  11.033  0.00  0.00    +0.000 S 
ATOM     25  C   UNL     1      43.726   4.846  11.588  0.00  0.00    +0.000 A 
ATOM     26  N   UNL     1      42.958   3.729  11.478  0.00  0.00    +0.000 NA
ATOM     27  C   UNL     1      43.494   2.662  11.971  0.00  0.00    +0.000 A 
ATOM     28  N   UNL     1      44.730   2.611  12.560  0.00  0.00    +0.000 N 
ATOM     29  C   UNL     1      45.558   3.703  12.652  0.00  0.00    +0.000 A 
ATOM     30  O   UNL     1      46.685   3.606  13.122  0.00  0.00    +0.000 OA
ATOM     31  C   UNL     1      44.995   4.935  12.131  0.00  0.00    +0.000 A 
ATOM     32  H   UNL     1      45.102   1.743  12.916  0.00  0.00    +0.000 HD
ENDBRANCH  19  22
ENDBRANCH  17  18
ENDBRANCH   4  17
TORSDOF 6
ENDMDL
MODEL 7
REMARK VINA RESULT:    -6.355      3.638      4.948
REMARK INTER + INTRA:          -9.683
REMARK INTER:                  -8.770
REMARK INTRA:                  -0.913
REMARK UNBOUND:                -1.100
REMARK  Name = 
REMARK  6 active torsions:
REMARK  status: ('A' for Active; 'I' for Inactive)
REMARK    1  A    between atoms: C_2  and  C_25
REMARK    2  A    between atoms: N_3  and  C_4
REMARK    3  A    between atoms: C_4  and  C_5
REMARK    4  A    between atoms: C_8  and  C_9
REMARK    5  A    between atoms: C_9  and  N_10
REMARK    6  A    between atoms: C_11  and  C_13
REMARK                            x       y       z     vdW  Elec       q    Type
REMARK                         _______ _______ _______ _____ _____    ______ ____
ROOT
ATOM      1  C   UNL     1      47.852   7.367  13.107  0.00  0.00    +0.000 A 
ATOM      2  C   UNL     1      47.611   8.573  13.769  0.00  0.00    +0.000 A 
ATOM      3  C   UNL     1      48.141   8.783  15.040  0.00  0.00    +0.000 A 
ATOM      4  C   UNL     1      48.897   7.775  15.629  0.00  0.00    +0.000 A 
ATOM      5  N   UNL     1      49.174   6.608  14.992  0.00  0.00    +0.000 NA
ATOM      6  C   UNL     1      48.653   6.434  13.755  0.00  0.00    +0.000 A 
ENDROOT
BRANCH   1   7
ATOM      7  C   UNL     1      47.266   7.083  11.760  0.00  0.00    +0.000 C 
BRANCH   7  10
ATOM      8  O   UNL     1      44.492   7.116  12.022  0.00  0.00    +0.000 OA
ATOM      9  C   UNL     1      45.059   6.039  11.888  0.00  0.00    +0.000 C 
ATOM     10  N   UNL     1      46.424   5.917  11.755  0.00  0.00    +0.000 N 
ATOM     11  H   UNL     1      46.805   4.987  11.600  0.00  0.00    +0.000 HD
BRANCH   9  12
ATOM     12  C   UNL     1      44.351   4.772  11.851  0.00  0.00    +0.000 A 
ATOM     13  C   UNL     1      43.479   4.364  10.866  0.00  0.00    +0.000 A 
ATOM     14  O   UNL     1      43.011   3.128  11.195  0.00  0.00    +0.000 OA
ATOM     15  C   UNL     1      43.632   2.848  12.375  0.00  0.00    +0.000 A 
ATOM     16  N   UNL     1      44.445   3.782  12.818  0.00  0.00    +0.000 NA
ENDBRANCH   9  12
ENDBRANCH   7  10
ENDBRANCH   1   7
BRANCH   4  17
ATOM     17  C   UNL     1      49.464   7.960  17.016  0.00  0.00    +0.000 C 
BRANCH  17  18
ATOM     18  N   UNL     1      50.433   6.942  17.346  0.00  0.00    +0.000 N 
ATOM     19  C   UNL     1      50.213   5.986  18.300  0.00  0.00    +0.000 C 
ATOM     20  O   UNL     1      49.167   5.931  18.941  0.00  0.00    +0.000 OA
ATOM     21  H   UNL     1      51.376   7.121  17.017  0.00  0.00    +0.000 HD
BRANCH  19  22
ATOM     22  C   UNL     1      51.269   4.978  18.463  0.00  0.00    +0.000 A 
ATOM     23  C   UNL     1      52.448   5.314  19.116  0.00  0.00    +0.000 A 
ATOM     24  S   UNL     1      53.534   4.007  19.283  0.00  0.00    +0.000 S 
ATOM     25  C   UNL     1      52.488   2.959  18.446  0.00  0.00    +0.000 A 
ATOM     26  N   UNL     1      52.829   1.661  18.223  0.00  0.00    +0.000 NA
ATOM     27  C   UNL     1      51.958   0.989  17.546  0.00  0.00    +0.000 A 
ATOM     28  N   UNL     1      50.775   1.497  17.075  0.00  0.00    +0.000 N 
ATOM     29  C   UNL     1      50.370   2.786  17.316  0.00  0.00    +0.000 A 
ATOM     30  O   UNL     1      49.274   3.186  16.939  0.00  0.00    +0.000 OA
ATOM     31  C   UNL     1      51.322   3.593  18.056  0.00  0.00    +0.000 A 
ATOM     32  H   UNL     1      50.128   0.917  16.562  0.00  0.00    +0.000 HD
ENDBRANCH  19  22
ENDBRANCH  17  18
ENDBRANCH   4  17
TORSDOF 6
ENDMDL
MODEL 8
REMARK VINA RESULT:    -6.354      3.192      8.653
REMARK INTER + INTRA:          -9.682
REMARK INTER:                  -8.857
REMARK INTRA:                  -0.825
REMARK UNBOUND:                -1.100
REMARK  Name = 
REMARK  6 active torsions:
REMARK  status: ('A' for Active; 'I' for Inactive)
REMARK    1  A    between atoms: C_2  and  C_25
REMARK    2  A    between atoms: N_3  and  C_4
REMARK    3  A    between atoms: C_4  and  C_5
REMARK    4  A    between atoms: C_8  and  C_9
REMARK    5  A    between atoms: C_9  and  N_10
REMARK    6  A    between atoms: C_11  and  C_13
REMARK                            x       y       z     vdW  Elec       q    Type
REMARK                         _______ _______ _______ _____ _____    ______ ____
ROOT
ATOM      1  C   UNL     1      49.686   7.477  15.601  0.00  0.00    +0.000 A 
ATOM      2  C   UNL     1      49.778   8.611  14.791  0.00  0.00    +0.000 A 
ATOM      3  C   UNL     1      48.971   8.724  13.662  0.00  0.00    +0.000 A 
ATOM      4  C   UNL     1      48.090   7.690  13.360  0.00  0.00    +0.000 A 
ATOM      5  N   UNL     1      47.958   6.594  14.150  0.00  0.00    +0.000 NA
ATOM      6  C   UNL     1      48.749   6.515  15.244  0.00  0.00    +0.000 A 
ENDROOT
BRANCH   1   7
ATOM      7  C   UNL     1      50.566   7.297  16.798  0.00  0.00    +0.000 C 
BRANCH   7  10
ATOM      8  O   UNL     1      49.543   5.324  18.478  0.00  0.00    +0.000 OA
ATOM      9  C   UNL     1      50.506   5.055  17.770  0.00  0.00    +0.000 C 
ATOM     10  N   UNL     1      51.085   5.961  16.910  0.00  0.00    +0.000 N 
ATOM     11  H   UNL     1      51.850   5.637  16.325  0.00  0.00    +0.000 HD
BRANCH   9  12
ATOM     12  C   UNL     1      51.138   3.747  17.758  0.00  0.00    +0.000 A 
ATOM     13  C   UNL     1      52.334   3.425  18.359  0.00  0.00    +0.000 A 
ATOM     14  O   UNL     1      52.594   2.111  18.113  0.00  0.00    +0.000 OA
ATOM     15  C   UNL     1      51.530   1.702  17.369  0.00  0.00    +0.000 A 
ATOM     16  N   UNL     1      50.625   2.625  17.125  0.00  0.00    +0.000 NA
ENDBRANCH   9  12
ENDBRANCH   7  10
ENDBRANCH   1   7
BRANCH   4  17
ATOM     17  C   UNL     1      47.220   7.768  12.129  0.00  0.00    +0.000 C 
BRANCH  17  18
ATOM     18  N   UNL     1      46.563   6.513  11.849  0.00  0.00    +0.000 N 
ATOM     19  C   UNL     1      45.206   6.396  11.717  0.00  0.00    +0.000 C 
ATOM     20  O   UNL     1      44.453   7.360  11.825  0.00  0.00    +0.000 OA
ATOM     21  H   UNL     1      47.130   5.685  12.005  0.00  0.00    +0.000 HD
BRANCH  19  22
ATOM     22  C   UNL     1      44.703   5.062  11.359  0.00  0.00    +0.000 A 
ATOM     23  C   UNL     1      43.907   4.362  12.257  0.00  0.00    +0.000 A 
ATOM     24  S   UNL     1      43.348   2.867  11.654  0.00  0.00    +0.000 S 
ATOM     25  C   UNL     1      44.189   3.080  10.190  0.00  0.00    +0.000 A 
ATOM     26  N   UNL     1      44.144   2.134   9.214  0.00  0.00    +0.000 NA
ATOM     27  C   UNL     1      44.855   2.410   8.171  0.00  0.00    +0.000 A 
ATOM     28  N   UNL     1      45.604   3.547   8.016  0.00  0.00    +0.000 N 
ATOM     29  C   UNL     1      45.642   4.548   8.955  0.00  0.00    +0.000 A 
ATOM     30  O   UNL     1      46.266   5.583   8.752  0.00  0.00    +0.000 OA
ATOM     31  C   UNL     1      44.875   4.280  10.157  0.00  0.00    +0.000 A 
ATOM     32  H   UNL     1      46.130   3.712   7.170  0.00  0.00    +0.000 HD
ENDBRANCH  19  22
ENDBRANCH  17  18
ENDBRANCH   4  17
TORSDOF 6
ENDMDL
MODEL 9
REMARK VINA RESULT:    -6.332      1.877      2.641
REMARK INTER + INTRA:          -9.653
REMARK INTER:                  -8.688
REMARK INTRA:                  -0.965
REMARK UNBOUND:                -1.100
REMARK  Name = 
REMARK  6 active torsions:
REMARK  status: ('A' for Active; 'I' for Inactive)
REMARK    1  A    between atoms: C_2  and  C_25
REMARK    2  A    between atoms: N_3  and  C_4
REMARK    3  A    between atoms: C_4  and  C_5
REMARK    4  A    between atoms: C_8  and  C_9
REMARK    5  A    between atoms: C_9  and  N_10
REMARK    6  A    between atoms: C_11  and  C_13
REMARK                            x       y       z     vdW  Elec       q    Type
REMARK                         _______ _______ _______ _____ _____    ______ ____
ROOT
ATOM      1  C   UNL     1      45.375   7.063  12.148  0.00  0.00    +0.000 A 
ATOM      2  C   UNL     1      45.346   8.435  12.407  0.00  0.00    +0.000 A 
ATOM      3  C   UNL     1      46.312   9.006  13.231  0.00  0.00    +0.000 A 
ATOM      4  C   UNL     1      47.288   8.186  13.790  0.00  0.00    +0.000 A 
ATOM      5  N   UNL     1      47.357   6.856  13.527  0.00  0.00    +0.000 NA
ATOM      6  C   UNL     1      46.411   6.331  12.716  0.00  0.00    +0.000 A 
ENDROOT
BRANCH   1   7
ATOM      7  C   UNL     1      44.330   6.403  11.305  0.00  0.00    +0.000 C 
BRANCH   7  10
ATOM      8  O   UNL     1      43.753   3.719  10.827  0.00  0.00    +0.000 OA
ATOM      9  C   UNL     1      44.539   4.295  10.084  0.00  0.00    +0.000 C 
ATOM     10  N   UNL     1      44.891   5.617  10.239  0.00  0.00    +0.000 N 
ATOM     11  H   UNL     1      45.514   6.026   9.548  0.00  0.00    +0.000 HD
BRANCH   9  12
ATOM     12  C   UNL     1      45.181   3.644   8.956  0.00  0.00    +0.000 A 
ATOM     13  C   UNL     1      45.425   2.294   8.836  0.00  0.00    +0.000 A 
ATOM     14  O   UNL     1      46.053   2.079   7.647  0.00  0.00    +0.000 OA
ATOM     15  C   UNL     1      46.158   3.323   7.103  0.00  0.00    +0.000 A 
ATOM     16  N   UNL     1      45.655   4.299   7.829  0.00  0.00    +0.000 NA
ENDBRANCH   9  12
ENDBRANCH   7  10
ENDBRANCH   1   7
BRANCH   4  17
ATOM     17  C   UNL     1      48.335   8.768  14.709  0.00  0.00    +0.000 C 
BRANCH  17  18
ATOM     18  N   UNL     1      49.257   7.763  15.184  0.00  0.00    +0.000 N 
ATOM     19  C   UNL     1      50.093   7.964  16.248  0.00  0.00    +0.000 C 
ATOM     20  O   UNL     1      50.110   9.018  16.877  0.00  0.00    +0.000 OA
ATOM     21  H   UNL     1      49.434   7.000  14.538  0.00  0.00    +0.000 HD
BRANCH  19  22
ATOM     22  C   UNL     1      50.917   6.815  16.650  0.00  0.00    +0.000 A 
ATOM     23  C   UNL     1      52.295   6.956  16.744  0.00  0.00    +0.000 A 
ATOM     24  S   UNL     1      53.090   5.549  17.296  0.00  0.00    +0.000 S 
ATOM     25  C   UNL     1      51.625   4.688  17.382  0.00  0.00    +0.000 A 
ATOM     26  N   UNL     1      51.600   3.388  17.779  0.00  0.00    +0.000 NA
ATOM     27  C   UNL     1      50.426   2.848  17.766  0.00  0.00    +0.000 A 
ATOM     28  N   UNL     1      49.276   3.492  17.394  0.00  0.00    +0.000 N 
ATOM     29  C   UNL     1      49.247   4.816  17.030  0.00  0.00    +0.000 A 
ATOM     30  O   UNL     1      48.190   5.379  16.770  0.00  0.00    +0.000 OA
ATOM     31  C   UNL     1      50.544   5.466  17.008  0.00  0.00    +0.000 A 
ATOM     32  H   UNL     1      48.384   3.019  17.416  0.00  0.00    +0.000 HD
ENDBRANCH  19  22
ENDBRANCH  17  18
ENDBRANCH   4  17
TORSDOF 6
ENDMDL
