MODEL 1
REMARK VINA RESULT:    -7.774      0.000      0.000
REMARK INTER + INTRA:         -13.169
REMARK INTER:                 -11.637
REMARK INTRA:                  -1.532
REMARK UNBOUND:                -1.532
REMARK  Name = 
REMARK  9 active torsions:
REMARK  status: ('A' for Active; 'I' for Inactive)
REMARK    1  A    between atoms: N_1  and  C_2
REMARK    2  A    between atoms: C_2  and  C_3
REMARK    3  A    between atoms: C_3  and  N_4
REMARK    4  A    between atoms: C_3  and  C_17
REMARK    5  A    between atoms: C_5  and  C_7
REMARK    6  A    between atoms: C_20  and  C_21
REMARK    7  A    between atoms: C_21  and  O_22
REMARK    8  A    between atoms: O_22  and  C_23
REMARK    9  A    between atoms: C_23  and  C_25
REMARK                            x       y       z     vdW  Elec       q    Type
REMARK                         _______ _______ _______ _____ _____    ______ ____
ROOT
ATOM      1  C   UNL     1      48.437   6.538  13.767  0.00  0.00    +0.000 C 
ENDROOT
BRANCH   1   2
ATOM      2  C   UNL     1      47.117   6.181  13.088  0.00  0.00    +0.000 A 
ATOM      3  C   UNL     1      46.271   5.216  13.654  0.00  0.00    +0.000 A 
ATOM      4  C   UNL     1      45.074   4.862  13.027  0.00  0.00    +0.000 A 
ATOM      5  C   UNL     1      44.694   5.464  11.821  0.00  0.00    +0.000 A 
ATOM      6  C   UNL     1      45.527   6.440  11.260  0.00  0.00    +0.000 A 
ATOM      7  C   UNL     1      46.721   6.798  11.889  0.00  0.00    +0.000 A 
BRANCH   5   8
ATOM      8  C   UNL     1      43.407   5.074  11.141  0.00  0.00    +0.000 C 
BRANCH   8   9
ATOM      9  O   UNL     1      43.662   4.522   9.844  0.00  0.00    +0.000 OA
BRANCH   9  10
ATOM     10  C   UNL     1      44.133   3.241   9.848  0.00  0.00    +0.000 C 
ATOM     11  O   UNL     1      43.738   2.354  10.594  0.00  0.00    +0.000 OA
BRANCH  10  12
ATOM     12  C   UNL     1      45.186   3.035   8.857  0.00  0.00    +0.000 A 
ATOM     13  C   UNL     1      45.854   4.038   8.071  0.00  0.00    +0.000 A 
ATOM     14  C   UNL     1      46.812   3.509   7.235  0.00  0.00    +0.000 A 
ATOM     15  S   UNL     1      46.913   1.809   7.371  0.00  0.00    +0.000 S 
ATOM     16  C   UNL     1      45.684   1.778   8.558  0.00  0.00    +0.000 A 
ENDBRANCH  10  12
ENDBRANCH   9  10
ENDBRANCH   8   9
ENDBRANCH   5   8
ENDBRANCH   1   2
BRANCH   1  17
ATOM     17  N   UNL     1      48.179   6.826  15.174  0.00  0.00    +0.000 N 
ATOM     18  C   UNL     1      49.103   6.575  16.157  0.00  0.00    +0.000 C 
ATOM     19  O   UNL     1      50.250   6.217  15.914  0.00  0.00    +0.000 OA
ATOM     20  H   UNL     1      47.199   6.853  15.443  0.00  0.00    +0.000 HD
BRANCH  18  21
ATOM     21  C   UNL     1      48.670   6.804  17.539  0.00  0.00    +0.000 A 
ATOM     22  C   UNL     1      48.350   8.088  17.957  0.00  0.00    +0.000 A 
ATOM     23  S   UNL     1      47.923   8.183  19.605  0.00  0.00    +0.000 S 
ATOM     24  C   UNL     1      48.191   6.516  19.825  0.00  0.00    +0.000 A 
ATOM     25  N   UNL     1      48.069   5.941  21.050  0.00  0.00    +0.000 NA
ATOM     26  C   UNL     1      48.343   4.680  21.076  0.00  0.00    +0.000 A 
ATOM     27  N   UNL     1      48.700   3.934  19.983  0.00  0.00    +0.000 N 
ATOM     28  C   UNL     1      48.774   4.460  18.715  0.00  0.00    +0.000 A 
ATOM     29  O   UNL     1      48.986   3.751  17.738  0.00  0.00    +0.000 OA
ATOM     30  C   UNL     1      48.543   5.888  18.643  0.00  0.00    +0.000 A 
ATOM     31  H   UNL     1      48.862   2.942  20.064  0.00  0.00    +0.000 HD
ENDBRANCH  18  21
ENDBRANCH   1  17
BRANCH   1  32
ATOM     32  C   UNL     1      49.151   7.715  13.027  0.00  0.00    +0.000 C 
BRANCH  32  33
ATOM     33  N   UNL     1      50.620   7.664  13.071  0.00  0.00    +0.000 NA
ATOM     34  H   UNL     1      50.918   7.661  14.045  0.00  0.00    +0.000 HD
ATOM     35  H   UNL     1      51.003   8.514  12.656  0.00  0.00    +0.000 HD
ENDBRANCH  32  33
ENDBRANCH   1  32
TORSDOF 9
ENDMDL
MODEL 2
REMARK VINA RESULT:    -7.597      1.646      2.761
REMARK INTER + INTRA:         -12.904
REMARK INTER:                 -11.187
REMARK INTRA:                  -1.717
REMARK UNBOUND:                -1.532
REMARK  Name = 
REMARK  9 active torsions:
REMARK  status: ('A' for Active; 'I' for Inactive)
REMARK    1  A    between atoms: N_1  and  C_2
REMARK    2  A    between atoms: C_2  and  C_3
REMARK    3  A    between atoms: C_3  and  N_4
REMARK    4  A    between atoms: C_3  and  C_17
REMARK    5  A    between atoms: C_5  and  C_7
REMARK    6  A    between atoms: C_20  and  C_21
REMARK    7  A    between atoms: C_21  and  O_22
REMARK    8  A    between atoms: O_22  and  C_23
REMARK    9  A    between atoms: C_23  and  C_25
REMARK                            x       y       z     vdW  Elec       q    Type
REMARK                         _______ _______ _______ _____ _____    ______ ____
ROOT
ATOM      1  C   UNL     1      48.561   6.554  13.602  0.00  0.00    +0.000 C 
ENDROOT
BRANCH   1   2
ATOM      2  C   UNL     1      47.252   6.155  12.924  0.00  0.00    +0.000 A 
ATOM      3  C   UNL     1      46.919   6.683  11.668  0.00  0.00    +0.000 A 
ATOM      4  C   UNL     1      45.711   6.346  11.051  0.00  0.00    +0.000 A 
ATOM      5  C   UNL     1      44.810   5.473  11.674  0.00  0.00    +0.000 A 
ATOM      6  C   UNL     1      45.146   4.930  12.920  0.00  0.00    +0.000 A 
ATOM      7  C   UNL     1      46.355   5.263  13.535  0.00  0.00    +0.000 A 
BRANCH   5   8
ATOM      8  C   UNL     1      43.504   5.117  11.011  0.00  0.00    +0.000 C 
BRANCH   8   9
ATOM      9  O   UNL     1      43.730   4.532   9.723  0.00  0.00    +0.000 OA
BRANCH   9  10
ATOM     10  C   UNL     1      44.159   3.237   9.748  0.00  0.00    +0.000 C 
ATOM     11  O   UNL     1      43.722   2.371  10.494  0.00  0.00    +0.000 OA
BRANCH  10  12
ATOM     12  C   UNL     1      45.223   2.988   8.777  0.00  0.00    +0.000 A 
ATOM     13  C   UNL     1      45.902   3.955   7.959  0.00  0.00    +0.000 A 
ATOM     14  C   UNL     1      46.868   3.391   7.157  0.00  0.00    +0.000 A 
ATOM     15  S   UNL     1      46.962   1.697   7.363  0.00  0.00    +0.000 S 
ATOM     16  C   UNL     1      45.720   1.718   8.537  0.00  0.00    +0.000 A 
ENDBRANCH  10  12
ENDBRANCH   9  10
ENDBRANCH   8   9
ENDBRANCH   5   8
ENDBRANCH   1   2
BRANCH   1  17
ATOM     17  N   UNL     1      48.260   7.086  14.927  0.00  0.00    +0.000 N 
ATOM     18  C   UNL     1      49.045   6.821  16.021  0.00  0.00    +0.000 C 
ATOM     19  O   UNL     1      50.118   6.233  15.940  0.00  0.00    +0.000 OA
ATOM     20  H   UNL     1      47.286   7.326  15.092  0.00  0.00    +0.000 HD
BRANCH  18  21
ATOM     21  C   UNL     1      48.564   7.323  17.312  0.00  0.00    +0.000 A 
ATOM     22  C   UNL     1      48.344   6.436  18.357  0.00  0.00    +0.000 A 
ATOM     23  S   UNL     1      47.733   7.178  19.764  0.00  0.00    +0.000 S 
ATOM     24  C   UNL     1      47.703   8.704  19.010  0.00  0.00    +0.000 A 
ATOM     25  N   UNL     1      47.211   9.795  19.654  0.00  0.00    +0.000 NA
ATOM     26  C   UNL     1      47.211  10.876  18.947  0.00  0.00    +0.000 A 
ATOM     27  N   UNL     1      47.685  10.971  17.664  0.00  0.00    +0.000 N 
ATOM     28  C   UNL     1      48.248   9.909  16.998  0.00  0.00    +0.000 A 
ATOM     29  O   UNL     1      48.766  10.045  15.895  0.00  0.00    +0.000 OA
ATOM     30  C   UNL     1      48.209   8.656  17.724  0.00  0.00    +0.000 A 
ATOM     31  H   UNL     1      47.693  11.856  17.180  0.00  0.00    +0.000 HD
ENDBRANCH  18  21
ENDBRANCH   1  17
BRANCH   1  32
ATOM     32  C   UNL     1      49.372   7.554  12.716  0.00  0.00    +0.000 C 
BRANCH  32  33
ATOM     33  N   UNL     1      50.782   7.712  13.106  0.00  0.00    +0.000 NA
ATOM     34  H   UNL     1      51.136   8.578  12.706  0.00  0.00    +0.000 HD
ATOM     35  H   UNL     1      51.334   6.958  12.696  0.00  0.00    +0.000 HD
ENDBRANCH  32  33
ENDBRANCH   1  32
TORSDOF 9
ENDMDL
MODEL 3
REMARK VINA RESULT:    -7.396      0.814      1.205
REMARK INTER + INTRA:         -12.603
REMARK INTER:                 -11.233
REMARK INTRA:                  -1.370
REMARK UNBOUND:                -1.532
REMARK  Name = 
REMARK  9 active torsions:
REMARK  status: ('A' for Active; 'I' for Inactive)
REMARK    1  A    between atoms: N_1  and  C_2
REMARK    2  A    between atoms: C_2  and  C_3
REMARK    3  A    between atoms: C_3  and  N_4
REMARK    4  A    between atoms: C_3  and  C_17
REMARK    5  A    between atoms: C_5  and  C_7
REMARK    6  A    between atoms: C_20  and  C_21
REMARK    7  A    between atoms: C_21  and  O_22
REMARK    8  A    between atoms: O_22  and  C_23
REMARK    9  A    between atoms: C_23  and  C_25
REMARK                            x       y       z     vdW  Elec       q    Type
REMARK                         _______ _______ _______ _____ _____    ______ ____
ROOT
ATOM      1  C   UNL     1      48.228   7.330  13.534  0.00  0.00    +0.000 C 
ENDROOT
BRANCH   1   2
ATOM      2  C   UNL     1      46.995   6.690  12.900  0.00  0.00    +0.000 A 
ATOM      3  C   UNL     1      46.505   7.164  11.674  0.00  0.00    +0.000 A 
ATOM      4  C   UNL     1      45.361   6.605  11.099  0.00  0.00    +0.000 A 
ATOM      5  C   UNL     1      44.681   5.558  11.736  0.00  0.00    +0.000 A 
ATOM      6  C   UNL     1      45.175   5.071  12.951  0.00  0.00    +0.000 A 
ATOM      7  C   UNL     1      46.321   5.626  13.524  0.00  0.00    +0.000 A 
BRANCH   5   8
ATOM      8  C   UNL     1      43.442   4.962  11.118  0.00  0.00    +0.000 C 
BRANCH   8   9
ATOM      9  O   UNL     1      43.722   4.444   9.812  0.00  0.00    +0.000 OA
BRANCH   9  10
ATOM     10  C   UNL     1      44.182   3.160   9.791  0.00  0.00    +0.000 C 
ATOM     11  O   UNL     1      43.782   2.263  10.521  0.00  0.00    +0.000 OA
BRANCH  10  12
ATOM     12  C   UNL     1      45.230   2.964   8.791  0.00  0.00    +0.000 A 
ATOM     13  C   UNL     1      45.862   3.969   7.980  0.00  0.00    +0.000 A 
ATOM     14  C   UNL     1      46.825   3.451   7.143  0.00  0.00    +0.000 A 
ATOM     15  S   UNL     1      46.973   1.757   7.309  0.00  0.00    +0.000 S 
ATOM     16  C   UNL     1      45.758   1.715   8.510  0.00  0.00    +0.000 A 
ENDBRANCH  10  12
ENDBRANCH   9  10
ENDBRANCH   8   9
ENDBRANCH   5   8
ENDBRANCH   1   2
BRANCH   1  17
ATOM     17  N   UNL     1      48.063   7.333  14.983  0.00  0.00    +0.000 N 
ATOM     18  C   UNL     1      49.059   6.929  15.837  0.00  0.00    +0.000 C 
ATOM     19  O   UNL     1      50.193   6.662  15.455  0.00  0.00    +0.000 OA
ATOM     20  H   UNL     1      47.104   7.276  15.316  0.00  0.00    +0.000 HD
BRANCH  18  21
ATOM     21  C   UNL     1      48.719   6.873  17.262  0.00  0.00    +0.000 A 
ATOM     22  C   UNL     1      48.369   8.037  17.933  0.00  0.00    +0.000 A 
ATOM     23  S   UNL     1      48.062   7.802  19.593  0.00  0.00    +0.000 S 
ATOM     24  C   UNL     1      48.427   6.143  19.480  0.00  0.00    +0.000 A 
ATOM     25  N   UNL     1      48.425   5.348  20.582  0.00  0.00    +0.000 NA
ATOM     26  C   UNL     1      48.761   4.122  20.354  0.00  0.00    +0.000 A 
ATOM     27  N   UNL     1      49.072   3.612  19.120  0.00  0.00    +0.000 N 
ATOM     28  C   UNL     1      49.026   4.365  17.971  0.00  0.00    +0.000 A 
ATOM     29  O   UNL     1      49.199   3.861  16.866  0.00  0.00    +0.000 OA
ATOM     30  C   UNL     1      48.720   5.765  18.182  0.00  0.00    +0.000 A 
ATOM     31  H   UNL     1      49.289   2.634  19.004  0.00  0.00    +0.000 HD
ENDBRANCH  18  21
ENDBRANCH   1  17
BRANCH   1  32
ATOM     32  C   UNL     1      48.487   8.755  12.948  0.00  0.00    +0.000 C 
BRANCH  32  33
ATOM     33  N   UNL     1      47.869   9.851  13.711  0.00  0.00    +0.000 NA
ATOM     34  H   UNL     1      47.824   9.581  14.692  0.00  0.00    +0.000 HD
ATOM     35  H   UNL     1      46.905   9.978  13.403  0.00  0.00    +0.000 HD
ENDBRANCH  32  33
ENDBRANCH   1  32
TORSDOF 9
ENDMDL
MODEL 4
REMARK VINA RESULT:    -6.800      2.615      4.808
REMARK INTER + INTRA:         -11.710
REMARK INTER:                 -10.467
REMARK INTRA:                  -1.243
REMARK UNBOUND:                -1.532
REMARK  Name = 
REMARK  9 active torsions:
REMARK  status: ('A' for Active; 'I' for Inactive)
REMARK    1  A    between atoms: N_1  and  C_2
REMARK    2  A    between atoms: C_2  and  C_3
REMARK    3  A    between atoms: C_3  and  N_4
REMARK    4  A    between atoms: C_3  and  C_17
REMARK    5  A    between atoms: C_5  and  C_7
REMARK    6  A    between atoms: C_20  and  C_21
REMARK    7  A    between atoms: C_21  and  O_22
REMARK    8  A    between atoms: O_22  and  C_23
REMARK    9  A    between atoms: C_23  and  C_25
REMARK                            x       y       z     vdW  Elec       q    Type
REMARK                         _______ _______ _______ _____ _____    ______ ____
ROOT
ATOM      1  C   UNL     1      47.131   5.068  15.019  0.00  0.00    +0.000 C 
ENDROOT
BRANCH   1   2
ATOM      2  C   UNL     1      46.274   4.903  13.766  0.00  0.00    +0.000 A 
ATOM      3  C   UNL     1      45.707   6.026  13.147  0.00  0.00    +0.000 A 
ATOM      4  C   UNL     1      44.899   5.884  12.016  0.00  0.00    +0.000 A 
ATOM      5  C   UNL     1      44.638   4.617  11.479  0.00  0.00    +0.000 A 
ATOM      6  C   UNL     1      45.215   3.494  12.084  0.00  0.00    +0.000 A 
ATOM      7  C   UNL     1      46.027   3.636  13.211  0.00  0.00    +0.000 A 
BRANCH   5   8
ATOM      8  C   UNL     1      43.759   4.465  10.264  0.00  0.00    +0.000 C 
BRANCH   8   9
ATOM      9  O   UNL     1      44.314   3.513   9.349  0.00  0.00    +0.000 OA
BRANCH   9  10
ATOM     10  C   UNL     1      45.346   3.982   8.589  0.00  0.00    +0.000 C 
ATOM     11  O   UNL     1      45.617   5.166   8.434  0.00  0.00    +0.000 OA
BRANCH  10  12
ATOM     12  C   UNL     1      46.103   2.903   7.959  0.00  0.00    +0.000 A 
ATOM     13  C   UNL     1      47.095   3.022   6.925  0.00  0.00    +0.000 A 
ATOM     14  C   UNL     1      47.632   1.807   6.559  0.00  0.00    +0.000 A 
ATOM     15  S   UNL     1      46.945   0.513   7.438  0.00  0.00    +0.000 S 
ATOM     16  C   UNL     1      45.938   1.577   8.319  0.00  0.00    +0.000 A 
ENDBRANCH  10  12
ENDBRANCH   9  10
ENDBRANCH   8   9
ENDBRANCH   5   8
ENDBRANCH   1   2
BRANCH   1  17
ATOM     17  N   UNL     1      48.370   5.747  14.654  0.00  0.00    +0.000 N 
ATOM     18  C   UNL     1      48.987   6.649  15.485  0.00  0.00    +0.000 C 
ATOM     19  O   UNL     1      48.616   6.850  16.637  0.00  0.00    +0.000 OA
ATOM     20  H   UNL     1      48.550   5.825  13.657  0.00  0.00    +0.000 HD
BRANCH  18  21
ATOM     21  C   UNL     1      50.160   7.342  14.947  0.00  0.00    +0.000 A 
ATOM     22  C   UNL     1      51.357   7.318  15.650  0.00  0.00    +0.000 A 
ATOM     23  S   UNL     1      52.600   8.221  14.911  0.00  0.00    +0.000 S 
ATOM     24  C   UNL     1      51.569   8.707  13.647  0.00  0.00    +0.000 A 
ATOM     25  N   UNL     1      51.995   9.567  12.685  0.00  0.00    +0.000 NA
ATOM     26  C   UNL     1      51.094   9.881  11.814  0.00  0.00    +0.000 A 
ATOM     27  N   UNL     1      49.814   9.392  11.802  0.00  0.00    +0.000 N 
ATOM     28  C   UNL     1      49.360   8.473  12.717  0.00  0.00    +0.000 A 
ATOM     29  O   UNL     1      48.248   7.965  12.620  0.00  0.00    +0.000 OA
ATOM     30  C   UNL     1      50.312   8.140  13.758  0.00  0.00    +0.000 A 
ATOM     31  H   UNL     1      49.169   9.647  11.069  0.00  0.00    +0.000 HD
ENDBRANCH  18  21
ENDBRANCH   1  17
BRANCH   1  32
ATOM     32  C   UNL     1      47.376   3.693  15.720  0.00  0.00    +0.000 C 
BRANCH  32  33
ATOM     33  N   UNL     1      46.712   3.545  17.025  0.00  0.00    +0.000 NA
ATOM     34  H   UNL     1      46.635   2.553  17.241  0.00  0.00    +0.000 HD
ATOM     35  H   UNL     1      45.758   3.901  16.963  0.00  0.00    +0.000 HD
ENDBRANCH  32  33
ENDBRANCH   1  32
TORSDOF 9
ENDMDL
MODEL 5
REMARK VINA RESULT:    -6.547      3.311      4.452
REMARK INTER + INTRA:         -11.332
REMARK INTER:                 -10.223
REMARK INTRA:                  -1.110
REMARK UNBOUND:                -1.532
REMARK  Name = 
REMARK  9 active torsions:
REMARK  status: ('A' for Active; 'I' for Inactive)
REMARK    1  A    between atoms: N_1  and  C_2
REMARK    2  A    between atoms: C_2  and  C_3
REMARK    3  A    between atoms: C_3  and  N_4
REMARK    4  A    between atoms: C_3  and  C_17
REMARK    5  A    between atoms: C_5  and  C_7
REMARK    6  A    between atoms: C_20  and  C_21
REMARK    7  A    between atoms: C_21  and  O_22
REMARK    8  A    between atoms: O_22  and  C_23
REMARK    9  A    between atoms: C_23  and  C_25
REMARK                            x       y       z     vdW  Elec       q    Type
REMARK                         _______ _______ _______ _____ _____    ______ ____
ROOT
ATOM      1  C   UNL     1      49.432   6.771  17.446  0.00  0.00    +0.000 C 
ENDROOT
BRANCH   1   2
ATOM      2  C   UNL     1      48.612   6.093  16.350  0.00  0.00    +0.000 A 
ATOM      3  C   UNL     1      47.871   4.938  16.637  0.00  0.00    +0.000 A 
ATOM      4  C   UNL     1      47.140   4.293  15.636  0.00  0.00    +0.000 A 
ATOM      5  C   UNL     1      47.132   4.789  14.325  0.00  0.00    +0.000 A 
ATOM      6  C   UNL     1      47.857   5.951  14.037  0.00  0.00    +0.000 A 
ATOM      7  C   UNL     1      48.585   6.598  15.039  0.00  0.00    +0.000 A 
BRANCH   5   8
ATOM      8  C   UNL     1      46.350   4.087  13.245  0.00  0.00    +0.000 C 
BRANCH   8   9
ATOM      9  O   UNL     1      44.965   3.991  13.599  0.00  0.00    +0.000 OA
BRANCH   9  10
ATOM     10  C   UNL     1      44.105   4.580  12.718  0.00  0.00    +0.000 C 
ATOM     11  O   UNL     1      43.184   5.322  13.033  0.00  0.00    +0.000 OA
BRANCH  10  12
ATOM     12  C   UNL     1      44.397   4.217  11.333  0.00  0.00    +0.000 A 
ATOM     13  C   UNL     1      45.000   5.043  10.323  0.00  0.00    +0.000 A 
ATOM     14  C   UNL     1      45.148   4.391   9.119  0.00  0.00    +0.000 A 
ATOM     15  S   UNL     1      44.555   2.790   9.181  0.00  0.00    +0.000 S 
ATOM     16  C   UNL     1      44.111   2.962  10.823  0.00  0.00    +0.000 A 
ENDBRANCH  10  12
ENDBRANCH   9  10
ENDBRANCH   8   9
ENDBRANCH   5   8
ENDBRANCH   1   2
BRANCH   1  17
ATOM     17  N   UNL     1      50.398   5.812  17.971  0.00  0.00    +0.000 N 
ATOM     18  C   UNL     1      51.596   5.561  17.351  0.00  0.00    +0.000 C 
ATOM     19  O   UNL     1      51.996   6.212  16.392  0.00  0.00    +0.000 OA
ATOM     20  H   UNL     1      50.013   5.084  18.567  0.00  0.00    +0.000 HD
BRANCH  18  21
ATOM     21  C   UNL     1      52.420   4.491  17.923  0.00  0.00    +0.000 A 
ATOM     22  C   UNL     1      53.597   4.808  18.586  0.00  0.00    +0.000 A 
ATOM     23  S   UNL     1      54.458   3.443  19.136  0.00  0.00    +0.000 S 
ATOM     24  C   UNL     1      53.306   2.382  18.470  0.00  0.00    +0.000 A 
ATOM     25  N   UNL     1      53.478   1.034  18.528  0.00  0.00    +0.000 NA
ATOM     26  C   UNL     1      52.547   0.354  17.946  0.00  0.00    +0.000 A 
ATOM     27  N   UNL     1      51.446   0.897  17.336  0.00  0.00    +0.000 N 
ATOM     28  C   UNL     1      51.200   2.249  17.310  0.00  0.00    +0.000 A 
ATOM     29  O   UNL     1      50.155   2.703  16.858  0.00  0.00    +0.000 OA
ATOM     30  C   UNL     1      52.251   3.061  17.890  0.00  0.00    +0.000 A 
ATOM     31  H   UNL     1      50.734   0.307  16.934  0.00  0.00    +0.000 HD
ENDBRANCH  18  21
ENDBRANCH   1  17
BRANCH   1  32
ATOM     32  C   UNL     1      48.506   7.369  18.553  0.00  0.00    +0.000 C 
BRANCH  32  33
ATOM     33  N   UNL     1      47.521   8.346  18.064  0.00  0.00    +0.000 NA
ATOM     34  H   UNL     1      47.304   8.997  18.817  0.00  0.00    +0.000 HD
ATOM     35  H   UNL     1      46.649   7.867  17.839  0.00  0.00    +0.000 HD
ENDBRANCH  32  33
ENDBRANCH   1  32
TORSDOF 9
ENDMDL
MODEL 6
REMARK VINA RESULT:    -6.421      2.662      4.134
REMARK INTER + INTRA:         -11.143
REMARK INTER:                 -10.181
REMARK INTRA:                  -0.962
REMARK UNBOUND:                -1.532
REMARK  Name = 
REMARK  9 active torsions:
REMARK  status: ('A' for Active; 'I' for Inactive)
REMARK    1  A    between atoms: N_1  and  C_2
REMARK    2  A    between atoms: C_2  and  C_3
REMARK    3  A    between atoms: C_3  and  N_4
REMARK    4  A    between atoms: C_3  and  C_17
REMARK    5  A    between atoms: C_5  and  C_7
REMARK    6  A    between atoms: C_20  and  C_21
REMARK    7  A    between atoms: C_21  and  O_22
REMARK    8  A    between atoms: O_22  and  C_23
REMARK    9  A    between atoms: C_23  and  C_25
REMARK                            x       y       z     vdW  Elec       q    Type
REMARK                         _______ _______ _______ _____ _____    ______ ____
ROOT
ATOM      1  C   UNL     1      46.997   5.108  15.054  0.00  0.00    +0.000 C 
ENDROOT
BRANCH   1   2
ATOM      2  C   UNL     1      46.118   4.880  13.826  0.00  0.00    +0.000 A 
ATOM      3  C   UNL     1      45.967   3.591  13.297  0.00  0.00    +0.000 A 
ATOM      4  C   UNL     1      45.187   3.375  12.157  0.00  0.00    +0.000 A 
ATOM      5  C   UNL     1      44.540   4.443  11.522  0.00  0.00    +0.000 A 
ATOM      6  C   UNL     1      44.674   5.730  12.057  0.00  0.00    +0.000 A 
ATOM      7  C   UNL     1      45.450   5.945  13.199  0.00  0.00    +0.000 A 
BRANCH   5   8
ATOM      8  C   UNL     1      43.707   4.210  10.288  0.00  0.00    +0.000 C 
BRANCH   8   9
ATOM      9  O   UNL     1      44.370   3.315   9.387  0.00  0.00    +0.000 OA
BRANCH   9  10
ATOM     10  C   UNL     1      45.330   3.893   8.607  0.00  0.00    +0.000 C 
ATOM     11  O   UNL     1      45.491   5.100   8.477  0.00  0.00    +0.000 OA
BRANCH  10  12
ATOM     12  C   UNL     1      46.156   2.902   7.922  0.00  0.00    +0.000 A 
ATOM     13  C   UNL     1      46.240   1.494   8.197  0.00  0.00    +0.000 A 
ATOM     14  C   UNL     1      47.108   0.836   7.355  0.00  0.00    +0.000 A 
ATOM     15  S   UNL     1      47.842   1.898   6.236  0.00  0.00    +0.000 S 
ATOM     16  C   UNL     1      46.990   3.238   6.868  0.00  0.00    +0.000 A 
ENDBRANCH  10  12
ENDBRANCH   9  10
ENDBRANCH   8   9
ENDBRANCH   5   8
ENDBRANCH   1   2
BRANCH   1  17
ATOM     17  N   UNL     1      48.129   5.945  14.673  0.00  0.00    +0.000 N 
ATOM     18  C   UNL     1      48.785   6.748  15.572  0.00  0.00    +0.000 C 
ATOM     19  O   UNL     1      48.555   6.722  16.776  0.00  0.00    +0.000 OA
ATOM     20  H   UNL     1      48.172   6.203  13.690  0.00  0.00    +0.000 HD
BRANCH  18  21
ATOM     21  C   UNL     1      49.830   7.623  15.031  0.00  0.00    +0.000 A 
ATOM     22  C   UNL     1      49.490   8.632  14.140  0.00  0.00    +0.000 A 
ATOM     23  S   UNL     1      50.831   9.515  13.566  0.00  0.00    +0.000 S 
ATOM     24  C   UNL     1      51.914   8.552  14.459  0.00  0.00    +0.000 A 
ATOM     25  N   UNL     1      53.257   8.737  14.365  0.00  0.00    +0.000 NA
ATOM     26  C   UNL     1      53.959   7.908  15.065  0.00  0.00    +0.000 A 
ATOM     27  N   UNL     1      53.438   6.930  15.873  0.00  0.00    +0.000 N 
ATOM     28  C   UNL     1      52.087   6.750  16.047  0.00  0.00    +0.000 A 
ATOM     29  O   UNL     1      51.646   5.944  16.858  0.00  0.00    +0.000 OA
ATOM     30  C   UNL     1      51.256   7.610  15.229  0.00  0.00    +0.000 A 
ATOM     31  H   UNL     1      54.041   6.340  16.425  0.00  0.00    +0.000 HD
ENDBRANCH  18  21
ENDBRANCH   1  17
BRANCH   1  32
ATOM     32  C   UNL     1      47.434   3.750  15.694  0.00  0.00    +0.000 C 
BRANCH  32  33
ATOM     33  N   UNL     1      46.741   3.414  16.947  0.00  0.00    +0.000 NA
ATOM     34  H   UNL     1      46.054   4.139  17.145  0.00  0.00    +0.000 HD
ATOM     35  H   UNL     1      47.408   3.431  17.719  0.00  0.00    +0.000 HD
ENDBRANCH  32  33
ENDBRANCH   1  32
TORSDOF 9
ENDMDL
MODEL 7
REMARK VINA RESULT:    -6.392      3.342      8.509
REMARK INTER + INTRA:         -11.101
REMARK INTER:                  -9.388
REMARK INTRA:                  -1.712
REMARK UNBOUND:                -1.532
REMARK  Name = 
REMARK  9 active torsions:
REMARK  status: ('A' for Active; 'I' for Inactive)
REMARK    1  A    between atoms: N_1  and  C_2
REMARK    2  A    between atoms: C_2  and  C_3
REMARK    3  A    between atoms: C_3  and  N_4
REMARK    4  A    between atoms: C_3  and  C_17
REMARK    5  A    between atoms: C_5  and  C_7
REMARK    6  A    between atoms: C_20  and  C_21
REMARK    7  A    between atoms: C_21  and  O_22
REMARK    8  A    between atoms: O_22  and  C_23
REMARK    9  A    between atoms: C_23  and  C_25
REMARK                            x       y       z     vdW  Elec       q    Type
REMARK                         _______ _______ _______ _____ _____    ______ ____
ROOT
ATOM      1  C   UNL     1      48.023   7.816  12.238  0.00  0.00    +0.000 C 
ENDROOT
BRANCH   1   2
ATOM      2  C   UNL     1      48.342   7.849  13.731  0.00  0.00    +0.000 A 
ATOM      3  C   UNL     1      47.949   8.945  14.512  0.00  0.00    +0.000 A 
ATOM      4  C   UNL     1      48.259   8.999  15.874  0.00  0.00    +0.000 A 
ATOM      5  C   UNL     1      48.969   7.958  16.486  0.00  0.00    +0.000 A 
ATOM      6  C   UNL     1      49.349   6.853  15.714  0.00  0.00    +0.000 A 
ATOM      7  C   UNL     1      49.035   6.797  14.354  0.00  0.00    +0.000 A 
BRANCH   5   8
ATOM      8  C   UNL     1      49.311   8.021  17.952  0.00  0.00    +0.000 C 
BRANCH   8   9
ATOM      9  O   UNL     1      48.253   7.472  18.746  0.00  0.00    +0.000 OA
BRANCH   9  10
ATOM     10  C   UNL     1      48.570   6.322  19.409  0.00  0.00    +0.000 C 
ATOM     11  O   UNL     1      48.999   6.272  20.555  0.00  0.00    +0.000 OA
BRANCH  10  12
ATOM     12  C   UNL     1      48.350   5.132  18.590  0.00  0.00    +0.000 A 
ATOM     13  C   UNL     1      47.151   4.766  17.886  0.00  0.00    +0.000 A 
ATOM     14  C   UNL     1      47.280   3.583  17.193  0.00  0.00    +0.000 A 
ATOM     15  S   UNL     1      48.829   2.891  17.389  0.00  0.00    +0.000 S 
ATOM     16  C   UNL     1      49.336   4.180  18.390  0.00  0.00    +0.000 A 
ENDBRANCH  10  12
ENDBRANCH   9  10
ENDBRANCH   8   9
ENDBRANCH   5   8
ENDBRANCH   1   2
BRANCH   1  17
ATOM     17  N   UNL     1      47.126   6.696  11.975  0.00  0.00    +0.000 N 
ATOM     18  C   UNL     1      45.760   6.831  11.981  0.00  0.00    +0.000 C 
ATOM     19  O   UNL     1      45.201   7.918  12.078  0.00  0.00    +0.000 OA
ATOM     20  H   UNL     1      47.510   5.773  12.161  0.00  0.00    +0.000 HD
BRANCH  18  21
ATOM     21  C   UNL     1      44.978   5.602  11.815  0.00  0.00    +0.000 A 
ATOM     22  C   UNL     1      44.196   5.136  12.863  0.00  0.00    +0.000 A 
ATOM     23  S   UNL     1      43.400   3.668  12.520  0.00  0.00    +0.000 S 
ATOM     24  C   UNL     1      44.107   3.585  10.973  0.00  0.00    +0.000 A 
ATOM     25  N   UNL     1      43.893   2.516  10.161  0.00  0.00    +0.000 NA
ATOM     26  C   UNL     1      44.525   2.568   9.036  0.00  0.00    +0.000 A 
ATOM     27  N   UNL     1      45.330   3.604   8.638  0.00  0.00    +0.000 N 
ATOM     28  C   UNL     1      45.524   4.731   9.399  0.00  0.00    +0.000 A 
ATOM     29  O   UNL     1      46.157   5.692   8.975  0.00  0.00    +0.000 OA
ATOM     30  C   UNL     1      44.891   4.692  10.702  0.00  0.00    +0.000 A 
ATOM     31  H   UNL     1      45.765   3.601   7.728  0.00  0.00    +0.000 HD
ENDBRANCH  18  21
ENDBRANCH   1  17
BRANCH   1  32
ATOM     32  C   UNL     1      49.330   7.762  11.384  0.00  0.00    +0.000 C 
BRANCH  32  33
ATOM     33  N   UNL     1      50.141   8.989  11.428  0.00  0.00    +0.000 NA
ATOM     34  H   UNL     1      49.929   9.550  10.606  0.00  0.00    +0.000 HD
ATOM     35  H   UNL     1      51.129   8.745  11.363  0.00  0.00    +0.000 HD
ENDBRANCH  32  33
ENDBRANCH   1  32
TORSDOF 9
ENDMDL
MODEL 8
REMARK VINA RESULT:    -6.365      3.339      8.064
REMARK INTER + INTRA:         -11.060
REMARK INTER:                  -9.489
REMARK INTRA:                  -1.571
REMARK UNBOUND:                -1.532
REMARK  Name = 
REMARK  9 active torsions:
REMARK  status: ('A' for Active; 'I' for Inactive)
REMARK    1  A    between atoms: N_1  and  C_2
REMARK    2  A    between atoms: C_2  and  C_3
REMARK    3  A    between atoms: C_3  and  N_4
REMARK    4  A    between atoms: C_3  and  C_17
REMARK    5  A    between atoms: C_5  and  C_7
REMARK    6  A    between atoms: C_20  and  C_21
REMARK    7  A    between atoms: C_21  and  O_22
REMARK    8  A    between atoms: O_22  and  C_23
REMARK    9  A    between atoms: C_23  and  C_25
REMARK                            x       y       z     vdW  Elec       q    Type
REMARK                         _______ _______ _______ _____ _____    ______ ____
ROOT
ATOM      1  C   UNL     1      48.069   8.175  12.313  0.00  0.00    +0.000 C 
ENDROOT
BRANCH   1   2
ATOM      2  C   UNL     1      48.262   7.843  13.791  0.00  0.00    +0.000 A 
ATOM      3  C   UNL     1      48.424   8.872  14.729  0.00  0.00    +0.000 A 
ATOM      4  C   UNL     1      48.630   8.579  16.080  0.00  0.00    +0.000 A 
ATOM      5  C   UNL     1      48.677   7.251  16.524  0.00  0.00    +0.000 A 
ATOM      6  C   UNL     1      48.499   6.220  15.594  0.00  0.00    +0.000 A 
ATOM      7  C   UNL     1      48.289   6.513  14.244  0.00  0.00    +0.000 A 
BRANCH   5   8
ATOM      8  C   UNL     1      48.907   6.937  17.980  0.00  0.00    +0.000 C 
BRANCH   8   9
ATOM      9  O   UNL     1      47.915   6.026  18.467  0.00  0.00    +0.000 OA
BRANCH   9  10
ATOM     10  C   UNL     1      48.407   4.957  19.158  0.00  0.00    +0.000 C 
ATOM     11  O   UNL     1      48.491   4.892  20.377  0.00  0.00    +0.000 OA
BRANCH  10  12
ATOM     12  C   UNL     1      48.842   3.879  18.272  0.00  0.00    +0.000 A 
ATOM     13  C   UNL     1      48.028   3.103  17.376  0.00  0.00    +0.000 A 
ATOM     14  C   UNL     1      48.753   2.169  16.671  0.00  0.00    +0.000 A 
ATOM     15  S   UNL     1      50.411   2.201  17.082  0.00  0.00    +0.000 S 
ATOM     16  C   UNL     1      50.164   3.474  18.196  0.00  0.00    +0.000 A 
ENDBRANCH  10  12
ENDBRANCH   9  10
ENDBRANCH   8   9
ENDBRANCH   5   8
ENDBRANCH   1   2
BRANCH   1  17
ATOM     17  N   UNL     1      47.430   7.039  11.656  0.00  0.00    +0.000 N 
ATOM     18  C   UNL     1      46.083   7.004  11.395  0.00  0.00    +0.000 C 
ATOM     19  O   UNL     1      45.347   7.969  11.573  0.00  0.00    +0.000 OA
ATOM     20  H   UNL     1      47.917   6.151  11.744  0.00  0.00    +0.000 HD
BRANCH  18  21
ATOM     21  C   UNL     1      45.555   5.756  10.836  0.00  0.00    +0.000 A 
ATOM     22  C   UNL     1      45.660   5.512   9.473  0.00  0.00    +0.000 A 
ATOM     23  S   UNL     1      44.944   4.044   8.986  0.00  0.00    +0.000 S 
ATOM     24  C   UNL     1      44.434   3.704  10.574  0.00  0.00    +0.000 A 
ATOM     25  N   UNL     1      43.688   2.602  10.851  0.00  0.00    +0.000 NA
ATOM     26  C   UNL     1      43.337   2.493  12.089  0.00  0.00    +0.000 A 
ATOM     27  N   UNL     1      43.688   3.372  13.081  0.00  0.00    +0.000 N 
ATOM     28  C   UNL     1      44.492   4.464  12.859  0.00  0.00    +0.000 A 
ATOM     29  O   UNL     1      44.883   5.171  13.780  0.00  0.00    +0.000 OA
ATOM     30  C   UNL     1      44.856   4.669  11.471  0.00  0.00    +0.000 A 
ATOM     31  H   UNL     1      43.413   3.208  14.038  0.00  0.00    +0.000 HD
ENDBRANCH  18  21
ENDBRANCH   1  17
BRANCH   1  32
ATOM     32  C   UNL     1      49.422   8.580  11.644  0.00  0.00    +0.000 C 
BRANCH  32  33
ATOM     33  N   UNL     1      50.552   7.694  11.965  0.00  0.00    +0.000 NA
ATOM     34  H   UNL     1      50.422   6.810  11.475  0.00  0.00    +0.000 HD
ATOM     35  H   UNL     1      50.540   7.475  12.961  0.00  0.00    +0.000 HD
ENDBRANCH  32  33
ENDBRANCH   1  32
TORSDOF 9
ENDMDL
MODEL 9
REMARK VINA RESULT:    -6.276      2.776      3.735
REMARK INTER + INTRA:         -10.927
REMARK INTER:                  -9.730
REMARK INTRA:                  -1.197
REMARK UNBOUND:                -1.532
REMARK  Name = 
REMARK  9 active torsions:
REMARK  status: ('A' for Active; 'I' for Inactive)
REMARK    1  A    between atoms: N_1  and  C_2
REMARK    2  A    between atoms: C_2  and  C_3
REMARK    3  A    between atoms: C_3  and  N_4
REMARK    4  A    between atoms: C_3  and  C_17
REMARK    5  A    between atoms: C_5  and  C_7
REMARK    6  A    between atoms: C_20  and  C_21
REMARK    7  A    between atoms: C_21  and  O_22
REMARK    8  A    between atoms: O_22  and  C_23
REMARK    9  A    between atoms: C_23  and  C_25
REMARK                            x       y       z     vdW  Elec       q    Type
REMARK                         _______ _______ _______ _____ _____    ______ ____
ROOT
ATOM      1  C   UNL     1      47.435   4.891  15.771  0.00  0.00    +0.000 C 
ENDROOT
BRANCH   1   2
ATOM      2  C   UNL     1      46.910   5.151  14.360  0.00  0.00    +0.000 A 
ATOM      3  C   UNL     1      47.515   6.124  13.552  0.00  0.00    +0.000 A 
ATOM      4  C   UNL     1      47.026   6.390  12.270  0.00  0.00    +0.000 A 
ATOM      5  C   UNL     1      45.922   5.689  11.767  0.00  0.00    +0.000 A 
ATOM      6  C   UNL     1      45.325   4.705  12.564  0.00  0.00    +0.000 A 
ATOM      7  C   UNL     1      45.817   4.436  13.844  0.00  0.00    +0.000 A 
BRANCH   5   8
ATOM      8  C   UNL     1      45.391   5.983  10.388  0.00  0.00    +0.000 C 
BRANCH   8   9
ATOM      9  O   UNL     1      46.044   5.170   9.406  0.00  0.00    +0.000 OA
BRANCH   9  10
ATOM     10  C   UNL     1      45.243   4.247   8.799  0.00  0.00    +0.000 C 
ATOM     11  O   UNL     1      44.019   4.265   8.819  0.00  0.00    +0.000 OA
BRANCH  10  12
ATOM     12  C   UNL     1      46.012   3.210   8.116  0.00  0.00    +0.000 A 
ATOM     13  C   UNL     1      46.021   1.800   8.399  0.00  0.00    +0.000 A 
ATOM     14  C   UNL     1      46.849   1.092   7.557  0.00  0.00    +0.000 A 
ATOM     15  S   UNL     1      47.636   2.107   6.431  0.00  0.00    +0.000 S 
ATOM     16  C   UNL     1      46.859   3.494   7.058  0.00  0.00    +0.000 A 
ENDBRANCH  10  12
ENDBRANCH   9  10
ENDBRANCH   8   9
ENDBRANCH   5   8
ENDBRANCH   1   2
BRANCH   1  17
ATOM     17  N   UNL     1      48.825   5.329  15.843  0.00  0.00    +0.000 N 
ATOM     18  C   UNL     1      49.409   5.729  17.018  0.00  0.00    +0.000 C 
ATOM     19  O   UNL     1      48.851   5.625  18.106  0.00  0.00    +0.000 OA
ATOM     20  H   UNL     1      49.218   5.684  14.975  0.00  0.00    +0.000 HD
BRANCH  18  21
ATOM     21  C   UNL     1      50.775   6.253  16.928  0.00  0.00    +0.000 A 
ATOM     22  C   UNL     1      50.989   7.541  16.456  0.00  0.00    +0.000 A 
ATOM     23  S   UNL     1      52.637   7.968  16.362  0.00  0.00    +0.000 S 
ATOM     24  C   UNL     1      53.121   6.431  16.910  0.00  0.00    +0.000 A 
ATOM     25  N   UNL     1      54.437   6.099  16.996  0.00  0.00    +0.000 NA
ATOM     26  C   UNL     1      54.656   4.888  17.387  0.00  0.00    +0.000 A 
ATOM     27  N   UNL     1      53.680   3.987  17.726  0.00  0.00    +0.000 N 
ATOM     28  C   UNL     1      52.342   4.299  17.714  0.00  0.00    +0.000 A 
ATOM     29  O   UNL     1      51.495   3.514  18.128  0.00  0.00    +0.000 OA
ATOM     30  C   UNL     1      52.039   5.626  17.217  0.00  0.00    +0.000 A 
ATOM     31  H   UNL     1      53.919   3.066  18.062  0.00  0.00    +0.000 HD
ENDBRANCH  18  21
ENDBRANCH   1  17
BRANCH   1  32
ATOM     32  C   UNL     1      47.249   3.392  16.174  0.00  0.00    +0.000 C 
BRANCH  32  33
ATOM     33  N   UNL     1      46.757   3.184  17.544  0.00  0.00    +0.000 NA
ATOM     34  H   UNL     1      47.087   3.950  18.129  0.00  0.00    +0.000 HD
ATOM     35  H   UNL     1      47.167   2.333  17.927  0.00  0.00    +0.000 HD
ENDBRANCH  32  33
ENDBRANCH   1  32
TORSDOF 9
ENDMDL
