MODEL 1
REMARK VINA RESULT:    -7.635      0.000      0.000
REMARK INTER + INTRA:          -9.502
REMARK INTER:                  -9.197
REMARK INTRA:                  -0.305
REMARK UNBOUND:                -0.305
REMARK  Name = 
REMARK  4 active torsions:
REMARK  status: ('A' for Active; 'I' for Inactive)
REMARK    1  A    between atoms: N_1  and  C_2
REMARK    2  A    between atoms: C_2  and  C_3
REMARK    3  A    between atoms: C_7  and  C_8
REMARK    4  A    between atoms: C_8  and  N_9
REMARK                            x       y       z     vdW  Elec       q    Type
REMARK                         _______ _______ _______ _____ _____    ______ ____
ROOT
ATOM      1  C   UNL     1      45.217   4.519  13.188  0.00  0.00    +0.000 A 
ATOM      2  C   UNL     1      44.050   5.248  13.423  0.00  0.00    +0.000 A 
ATOM      3  C   UNL     1      42.988   5.099  12.546  0.00  0.00    +0.000 A 
ATOM      4  N   UNL     1      43.003   4.272  11.478  0.00  0.00    +0.000 NA
ATOM      5  C   UNL     1      44.136   3.558  11.255  0.00  0.00    +0.000 A 
ATOM      6  C   UNL     1      45.258   3.669  12.074  0.00  0.00    +0.000 A 
ENDROOT
BRANCH   1   7
ATOM      7  C   UNL     1      46.389   4.610  14.130  0.00  0.00    +0.000 C 
BRANCH   7   8
ATOM      8  N   UNL     1      47.237   3.428  14.051  0.00  0.00    +0.000 NA
ATOM      9  H   UNL     1      47.206   3.064  13.101  0.00  0.00    +0.000 HD
ATOM     10  H   UNL     1      46.846   2.700  14.646  0.00  0.00    +0.000 HD
ENDBRANCH   7   8
ENDBRANCH   1   7
BRANCH   5  11
ATOM     11  C   UNL     1      44.117   2.611  10.083  0.00  0.00    +0.000 C 
BRANCH  11  12
ATOM     12  N   UNL     1      44.949   3.074   8.980  0.00  0.00    +0.000 N 
ATOM     13  C   UNL     1      45.135   4.385   8.629  0.00  0.00    +0.000 A 
ATOM     14  N   UNL     1      46.045   4.520   7.695  0.00  0.00    +0.000 NA
ATOM     15  C   UNL     1      46.494   3.246   7.445  0.00  0.00    +0.000 A 
ATOM     16  C   UNL     1      47.500   2.813   6.567  0.00  0.00    +0.000 A 
ATOM     17  C   UNL     1      47.797   1.448   6.503  0.00  0.00    +0.000 A 
ATOM     18  C   UNL     1      47.098   0.528   7.287  0.00  0.00    +0.000 A 
ATOM     19  C   UNL     1      46.085   0.941   8.162  0.00  0.00    +0.000 A 
ATOM     20  C   UNL     1      45.812   2.312   8.226  0.00  0.00    +0.000 A 
ENDBRANCH  11  12
ENDBRANCH   5  11
TORSDOF 4
ENDMDL
MODEL 2
REMARK VINA RESULT:    -7.568      1.735      6.098
REMARK INTER + INTRA:          -9.422
REMARK INTER:                  -9.228
REMARK INTRA:                  -0.194
REMARK UNBOUND:                -0.305
REMARK  Name = 
REMARK  4 active torsions:
REMARK  status: ('A' for Active; 'I' for Inactive)
REMARK    1  A    between atoms: N_1  and  C_2
REMARK    2  A    between atoms: C_2  and  C_3
REMARK    3  A    between atoms: C_7  and  C_8
REMARK    4  A    between atoms: C_8  and  N_9
REMARK                            x       y       z     vdW  Elec       q    Type
REMARK                         _______ _______ _______ _____ _____    ______ ____
ROOT
ATOM      1  C   UNL     1      46.573   2.546   6.707  0.00  0.00    +0.000 A 
ATOM      2  C   UNL     1      46.696   1.271   7.263  0.00  0.00    +0.000 A 
ATOM      3  C   UNL     1      45.987   0.980   8.417  0.00  0.00    +0.000 A 
ATOM      4  N   UNL     1      45.163   1.854   9.034  0.00  0.00    +0.000 NA
ATOM      5  C   UNL     1      45.038   3.091   8.488  0.00  0.00    +0.000 A 
ATOM      6  C   UNL     1      45.736   3.472   7.344  0.00  0.00    +0.000 A 
ENDROOT
BRANCH   1   7
ATOM      7  C   UNL     1      47.289   2.906   5.431  0.00  0.00    +0.000 C 
BRANCH   7   8
ATOM      8  N   UNL     1      48.422   2.024   5.181  0.00  0.00    +0.000 NA
ATOM      9  H   UNL     1      48.072   1.116   4.880  0.00  0.00    +0.000 HD
ATOM     10  H   UNL     1      48.914   1.861   6.059  0.00  0.00    +0.000 HD
ENDBRANCH   7   8
ENDBRANCH   1   7
BRANCH   5  11
ATOM     11  C   UNL     1      44.082   4.036   9.169  0.00  0.00    +0.000 C 
BRANCH  11  12
ATOM     12  N   UNL     1      44.280   4.084  10.612  0.00  0.00    +0.000 N 
ATOM     13  C   UNL     1      43.741   3.202  11.511  0.00  0.00    +0.000 A 
ATOM     14  N   UNL     1      44.201   3.394  12.724  0.00  0.00    +0.000 NA
ATOM     15  C   UNL     1      45.100   4.426  12.608  0.00  0.00    +0.000 A 
ATOM     16  C   UNL     1      45.917   5.009  13.589  0.00  0.00    +0.000 A 
ATOM     17  C   UNL     1      46.780   6.045  13.219  0.00  0.00    +0.000 A 
ATOM     18  C   UNL     1      46.820   6.504  11.901  0.00  0.00    +0.000 A 
ATOM     19  C   UNL     1      46.006   5.940  10.910  0.00  0.00    +0.000 A 
ATOM     20  C   UNL     1      45.161   4.892  11.294  0.00  0.00    +0.000 A 
ENDBRANCH  11  12
ENDBRANCH   5  11
TORSDOF 4
ENDMDL
MODEL 3
REMARK VINA RESULT:    -7.127      1.821      5.884
REMARK INTER + INTRA:          -8.890
REMARK INTER:                  -8.475
REMARK INTRA:                  -0.415
REMARK UNBOUND:                -0.305
REMARK  Name = 
REMARK  4 active torsions:
REMARK  status: ('A' for Active; 'I' for Inactive)
REMARK    1  A    between atoms: N_1  and  C_2
REMARK    2  A    between atoms: C_2  and  C_3
REMARK    3  A    between atoms: C_7  and  C_8
REMARK    4  A    between atoms: C_8  and  N_9
REMARK                            x       y       z     vdW  Elec       q    Type
REMARK                         _______ _______ _______ _____ _____    ______ ____
ROOT
ATOM      1  C   UNL     1      46.022   1.813   8.015  0.00  0.00    +0.000 A 
ATOM      2  C   UNL     1      46.815   2.630   7.207  0.00  0.00    +0.000 A 
ATOM      3  C   UNL     1      46.657   4.003   7.295  0.00  0.00    +0.000 A 
ATOM      4  N   UNL     1      45.790   4.609   8.134  0.00  0.00    +0.000 NA
ATOM      5  C   UNL     1      45.024   3.814   8.926  0.00  0.00    +0.000 A 
ATOM      6  C   UNL     1      45.103   2.423   8.880  0.00  0.00    +0.000 A 
ENDROOT
BRANCH   1   7
ATOM      7  C   UNL     1      46.179   0.315   7.991  0.00  0.00    +0.000 C 
BRANCH   7   8
ATOM      8  N   UNL     1      47.540  -0.079   7.654  0.00  0.00    +0.000 NA
ATOM      9  H   UNL     1      47.506  -0.787   6.923  0.00  0.00    +0.000 HD
ATOM     10  H   UNL     1      47.965  -0.529   8.465  0.00  0.00    +0.000 HD
ENDBRANCH   7   8
ENDBRANCH   1   7
BRANCH   5  11
ATOM     11  C   UNL     1      44.093   4.511   9.884  0.00  0.00    +0.000 C 
BRANCH  11  12
ATOM     12  N   UNL     1      44.573   4.467  11.258  0.00  0.00    +0.000 N 
ATOM     13  C   UNL     1      44.206   3.534  12.193  0.00  0.00    +0.000 A 
ATOM     14  N   UNL     1      44.901   3.646  13.299  0.00  0.00    +0.000 NA
ATOM     15  C   UNL     1      45.780   4.676  13.068  0.00  0.00    +0.000 A 
ATOM     16  C   UNL     1      46.786   5.190  13.900  0.00  0.00    +0.000 A 
ATOM     17  C   UNL     1      47.579   6.241  13.429  0.00  0.00    +0.000 A 
ATOM     18  C   UNL     1      47.367   6.781  12.159  0.00  0.00    +0.000 A 
ATOM     19  C   UNL     1      46.361   6.286  11.318  0.00  0.00    +0.000 A 
ATOM     20  C   UNL     1      45.588   5.223  11.799  0.00  0.00    +0.000 A 
ENDBRANCH  11  12
ENDBRANCH   5  11
TORSDOF 4
ENDMDL
MODEL 4
REMARK VINA RESULT:    -7.079      1.005      1.827
REMARK INTER + INTRA:          -8.832
REMARK INTER:                  -8.445
REMARK INTRA:                  -0.388
REMARK UNBOUND:                -0.305
REMARK  Name = 
REMARK  4 active torsions:
REMARK  status: ('A' for Active; 'I' for Inactive)
REMARK    1  A    between atoms: N_1  and  C_2
REMARK    2  A    between atoms: C_2  and  C_3
REMARK    3  A    between atoms: C_7  and  C_8
REMARK    4  A    between atoms: C_8  and  N_9
REMARK                            x       y       z     vdW  Elec       q    Type
REMARK                         _______ _______ _______ _____ _____    ______ ____
ROOT
ATOM      1  C   UNL     1      45.318   5.108  12.680  0.00  0.00    +0.000 A 
ATOM      2  C   UNL     1      44.059   5.265  13.263  0.00  0.00    +0.000 A 
ATOM      3  C   UNL     1      42.937   5.158  12.458  0.00  0.00    +0.000 A 
ATOM      4  N   UNL     1      42.984   4.892  11.134  0.00  0.00    +0.000 NA
ATOM      5  C   UNL     1      44.208   4.732  10.570  0.00  0.00    +0.000 A 
ATOM      6  C   UNL     1      45.387   4.849  11.305  0.00  0.00    +0.000 A 
ENDROOT
BRANCH   1   7
ATOM      7  C   UNL     1      46.570   5.174  13.515  0.00  0.00    +0.000 C 
BRANCH   7   8
ATOM      8  N   UNL     1      46.380   4.559  14.822  0.00  0.00    +0.000 NA
ATOM      9  H   UNL     1      46.079   3.595  14.691  0.00  0.00    +0.000 HD
ATOM     10  H   UNL     1      45.616   5.031  15.302  0.00  0.00    +0.000 HD
ENDBRANCH   7   8
ENDBRANCH   1   7
BRANCH   5  11
ATOM     11  C   UNL     1      44.236   4.396   9.101  0.00  0.00    +0.000 C 
BRANCH  11  12
ATOM     12  N   UNL     1      44.963   3.164   8.826  0.00  0.00    +0.000 N 
ATOM     13  C   UNL     1      44.609   1.921   9.280  0.00  0.00    +0.000 A 
ATOM     14  N   UNL     1      45.357   0.976   8.761  0.00  0.00    +0.000 NA
ATOM     15  C   UNL     1      46.217   1.627   7.911  0.00  0.00    +0.000 A 
ATOM     16  C   UNL     1      47.202   1.095   7.064  0.00  0.00    +0.000 A 
ATOM     17  C   UNL     1      47.947   1.968   6.265  0.00  0.00    +0.000 A 
ATOM     18  C   UNL     1      47.726   3.345   6.316  0.00  0.00    +0.000 A 
ATOM     19  C   UNL     1      46.753   3.895   7.161  0.00  0.00    +0.000 A 
ATOM     20  C   UNL     1      46.006   3.005   7.941  0.00  0.00    +0.000 A 
ENDBRANCH  11  12
ENDBRANCH   5  11
TORSDOF 4
ENDMDL
MODEL 5
REMARK VINA RESULT:    -6.685      2.005      3.578
REMARK INTER + INTRA:          -8.358
REMARK INTER:                  -7.963
REMARK INTRA:                  -0.395
REMARK UNBOUND:                -0.305
REMARK  Name = 
REMARK  4 active torsions:
REMARK  status: ('A' for Active; 'I' for Inactive)
REMARK    1  A    between atoms: N_1  and  C_2
REMARK    2  A    between atoms: C_2  and  C_3
REMARK    3  A    between atoms: C_7  and  C_8
REMARK    4  A    between atoms: C_8  and  N_9
REMARK                            x       y       z     vdW  Elec       q    Type
REMARK                         _______ _______ _______ _____ _____    ______ ____
ROOT
ATOM      1  C   UNL     1      47.154   5.196  14.616  0.00  0.00    +0.000 A 
ATOM      2  C   UNL     1      47.967   6.312  14.402  0.00  0.00    +0.000 A 
ATOM      3  C   UNL     1      47.592   7.229  13.434  0.00  0.00    +0.000 A 
ATOM      4  N   UNL     1      46.471   7.121  12.689  0.00  0.00    +0.000 NA
ATOM      5  C   UNL     1      45.678   6.041  12.903  0.00  0.00    +0.000 A 
ATOM      6  C   UNL     1      45.996   5.058  13.840  0.00  0.00    +0.000 A 
ENDROOT
BRANCH   1   7
ATOM      7  C   UNL     1      47.491   4.187  15.683  0.00  0.00    +0.000 C 
BRANCH   7   8
ATOM      8  N   UNL     1      47.809   2.885  15.112  0.00  0.00    +0.000 NA
ATOM      9  H   UNL     1      47.132   2.672  14.382  0.00  0.00    +0.000 HD
ATOM     10  H   UNL     1      47.687   2.171  15.828  0.00  0.00    +0.000 HD
ENDBRANCH   7   8
ENDBRANCH   1   7
BRANCH   5  11
ATOM     11  C   UNL     1      44.411   5.961  12.090  0.00  0.00    +0.000 C 
BRANCH  11  12
ATOM     12  N   UNL     1      44.266   4.681  11.410  0.00  0.00    +0.000 N 
ATOM     13  C   UNL     1      43.419   3.675  11.796  0.00  0.00    +0.000 A 
ATOM     14  N   UNL     1      43.386   2.698  10.922  0.00  0.00    +0.000 NA
ATOM     15  C   UNL     1      44.223   3.095   9.908  0.00  0.00    +0.000 A 
ATOM     16  C   UNL     1      44.523   2.450   8.699  0.00  0.00    +0.000 A 
ATOM     17  C   UNL     1      45.399   3.071   7.803  0.00  0.00    +0.000 A 
ATOM     18  C   UNL     1      45.977   4.304   8.110  0.00  0.00    +0.000 A 
ATOM     19  C   UNL     1      45.696   4.959   9.316  0.00  0.00    +0.000 A 
ATOM     20  C   UNL     1      44.804   4.331  10.193  0.00  0.00    +0.000 A 
ENDBRANCH  11  12
ENDBRANCH   5  11
TORSDOF 4
ENDMDL
MODEL 6
REMARK VINA RESULT:    -6.492      1.833      5.742
REMARK INTER + INTRA:          -8.126
REMARK INTER:                  -7.663
REMARK INTRA:                  -0.463
REMARK UNBOUND:                -0.305
REMARK  Name = 
REMARK  4 active torsions:
REMARK  status: ('A' for Active; 'I' for Inactive)
REMARK    1  A    between atoms: N_1  and  C_2
REMARK    2  A    between atoms: C_2  and  C_3
REMARK    3  A    between atoms: C_7  and  C_8
REMARK    4  A    between atoms: C_8  and  N_9
REMARK                            x       y       z     vdW  Elec       q    Type
REMARK                         _______ _______ _______ _____ _____    ______ ____
ROOT
ATOM      1  C   UNL     1      45.956   1.964   8.111  0.00  0.00    +0.000 A 
ATOM      2  C   UNL     1      46.707   2.793   7.276  0.00  0.00    +0.000 A 
ATOM      3  C   UNL     1      46.564   4.165   7.402  0.00  0.00    +0.000 A 
ATOM      4  N   UNL     1      45.750   4.758   8.301  0.00  0.00    +0.000 NA
ATOM      5  C   UNL     1      45.025   3.951   9.118  0.00  0.00    +0.000 A 
ATOM      6  C   UNL     1      45.091   2.561   9.039  0.00  0.00    +0.000 A 
ENDROOT
BRANCH   1   7
ATOM      7  C   UNL     1      46.100   0.466   8.047  0.00  0.00    +0.000 C 
BRANCH   7   8
ATOM      8  N   UNL     1      47.460   0.069   7.707  0.00  0.00    +0.000 NA
ATOM      9  H   UNL     1      48.101   0.484   8.381  0.00  0.00    +0.000 HD
ATOM     10  H   UNL     1      47.704   0.467   6.801  0.00  0.00    +0.000 HD
ENDBRANCH   7   8
ENDBRANCH   1   7
BRANCH   5  11
ATOM     11  C   UNL     1      44.155   4.633  10.142  0.00  0.00    +0.000 C 
BRANCH  11  12
ATOM     12  N   UNL     1      44.930   5.384  11.120  0.00  0.00    +0.000 N 
ATOM     13  C   UNL     1      44.909   6.747  11.264  0.00  0.00    +0.000 A 
ATOM     14  N   UNL     1      45.588   7.140  12.315  0.00  0.00    +0.000 NA
ATOM     15  C   UNL     1      46.049   5.985  12.898  0.00  0.00    +0.000 A 
ATOM     16  C   UNL     1      46.793   5.819  14.076  0.00  0.00    +0.000 A 
ATOM     17  C   UNL     1      47.128   4.524  14.484  0.00  0.00    +0.000 A 
ATOM     18  C   UNL     1      46.742   3.415  13.729  0.00  0.00    +0.000 A 
ATOM     19  C   UNL     1      46.005   3.562  12.546  0.00  0.00    +0.000 A 
ATOM     20  C   UNL     1      45.664   4.864  12.161  0.00  0.00    +0.000 A 
ENDBRANCH  11  12
ENDBRANCH   5  11
TORSDOF 4
ENDMDL
MODEL 7
REMARK VINA RESULT:    -6.285      2.675      4.179
REMARK INTER + INTRA:          -7.876
REMARK INTER:                  -7.434
REMARK INTRA:                  -0.442
REMARK UNBOUND:                -0.305
REMARK  Name = 
REMARK  4 active torsions:
REMARK  status: ('A' for Active; 'I' for Inactive)
REMARK    1  A    between atoms: N_1  and  C_2
REMARK    2  A    between atoms: C_2  and  C_3
REMARK    3  A    between atoms: C_7  and  C_8
REMARK    4  A    between atoms: C_8  and  N_9
REMARK                            x       y       z     vdW  Elec       q    Type
REMARK                         _______ _______ _______ _____ _____    ______ ____
ROOT
ATOM      1  C   UNL     1      47.871   7.564  12.329  0.00  0.00    +0.000 A 
ATOM      2  C   UNL     1      48.342   6.756  13.366  0.00  0.00    +0.000 A 
ATOM      3  C   UNL     1      47.491   5.807  13.906  0.00  0.00    +0.000 A 
ATOM      4  N   UNL     1      46.227   5.599  13.479  0.00  0.00    +0.000 NA
ATOM      5  C   UNL     1      45.771   6.380  12.465  0.00  0.00    +0.000 A 
ATOM      6  C   UNL     1      46.556   7.375  11.884  0.00  0.00    +0.000 A 
ENDROOT
BRANCH   1   7
ATOM      7  C   UNL     1      48.765   8.585  11.676  0.00  0.00    +0.000 C 
BRANCH   7   8
ATOM      8  N   UNL     1      49.890   8.941  12.531  0.00  0.00    +0.000 NA
ATOM      9  H   UNL     1      49.798   8.450  13.418  0.00  0.00    +0.000 HD
ATOM     10  H   UNL     1      49.838   9.935  12.751  0.00  0.00    +0.000 HD
ENDBRANCH   7   8
ENDBRANCH   1   7
BRANCH   5  11
ATOM     11  C   UNL     1      44.373   6.103  11.976  0.00  0.00    +0.000 C 
BRANCH  11  12
ATOM     12  N   UNL     1      44.218   4.745  11.474  0.00  0.00    +0.000 N 
ATOM     13  C   UNL     1      43.396   3.793  12.017  0.00  0.00    +0.000 A 
ATOM     14  N   UNL     1      43.343   2.710  11.278  0.00  0.00    +0.000 NA
ATOM     15  C   UNL     1      44.141   2.976  10.193  0.00  0.00    +0.000 A 
ATOM     16  C   UNL     1      44.406   2.181   9.068  0.00  0.00    +0.000 A 
ATOM     17  C   UNL     1      45.245   2.684   8.068  0.00  0.00    +0.000 A 
ATOM     18  C   UNL     1      45.820   3.951   8.192  0.00  0.00    +0.000 A 
ATOM     19  C   UNL     1      45.573   4.756   9.312  0.00  0.00    +0.000 A 
ATOM     20  C   UNL     1      44.718   4.242  10.294  0.00  0.00    +0.000 A 
ENDBRANCH  11  12
ENDBRANCH   5  11
TORSDOF 4
ENDMDL
MODEL 8
REMARK VINA RESULT:    -6.145      2.018      5.681
REMARK INTER + INTRA:          -7.707
REMARK INTER:                  -7.348
REMARK INTRA:                  -0.359
REMARK UNBOUND:                -0.305
REMARK  Name = 
REMARK  4 active torsions:
REMARK  status: ('A' for Active; 'I' for Inactive)
REMARK    1  A    between atoms: N_1  and  C_2
REMARK    2  A    between atoms: C_2  and  C_3
REMARK    3  A    between atoms: C_7  and  C_8
REMARK    4  A    between atoms: C_8  and  N_9
REMARK                            x       y       z     vdW  Elec       q    Type
REMARK                         _______ _______ _______ _____ _____    ______ ____
ROOT
ATOM      1  C   UNL     1      45.460   3.111   8.501  0.00  0.00    +0.000 A 
ATOM      2  C   UNL     1      44.927   1.900   8.947  0.00  0.00    +0.000 A 
ATOM      3  C   UNL     1      44.059   1.916  10.027  0.00  0.00    +0.000 A 
ATOM      4  N   UNL     1      43.677   3.041  10.669  0.00  0.00    +0.000 NA
ATOM      5  C   UNL     1      44.190   4.219  10.229  0.00  0.00    +0.000 A 
ATOM      6  C   UNL     1      45.089   4.287   9.166  0.00  0.00    +0.000 A 
ENDROOT
BRANCH   1   7
ATOM      7  C   UNL     1      46.377   3.159   7.307  0.00  0.00    +0.000 C 
BRANCH   7   8
ATOM      8  N   UNL     1      46.881   4.505   7.068  0.00  0.00    +0.000 NA
ATOM      9  H   UNL     1      47.683   4.449   6.443  0.00  0.00    +0.000 HD
ATOM     10  H   UNL     1      47.231   4.888   7.945  0.00  0.00    +0.000 HD
ENDBRANCH   7   8
ENDBRANCH   1   7
BRANCH   5  11
ATOM     11  C   UNL     1      43.719   5.465  10.934  0.00  0.00    +0.000 C 
BRANCH  11  12
ATOM     12  N   UNL     1      44.820   6.236  11.496  0.00  0.00    +0.000 N 
ATOM     13  C   UNL     1      45.037   7.572  11.283  0.00  0.00    +0.000 A 
ATOM     14  N   UNL     1      46.013   8.036  12.027  0.00  0.00    +0.000 NA
ATOM     15  C   UNL     1      46.432   6.965  12.778  0.00  0.00    +0.000 A 
ATOM     16  C   UNL     1      47.420   6.910  13.773  0.00  0.00    +0.000 A 
ATOM     17  C   UNL     1      47.655   5.694  14.423  0.00  0.00    +0.000 A 
ATOM     18  C   UNL     1      46.929   4.551  14.081  0.00  0.00    +0.000 A 
ATOM     19  C   UNL     1      45.945   4.586  13.085  0.00  0.00    +0.000 A 
ATOM     20  C   UNL     1      45.712   5.815  12.457  0.00  0.00    +0.000 A 
ENDBRANCH  11  12
ENDBRANCH   5  11
TORSDOF 4
ENDMDL
MODEL 9
REMARK VINA RESULT:    -6.056      2.633      6.073
REMARK INTER + INTRA:          -7.600
REMARK INTER:                  -7.130
REMARK INTRA:                  -0.470
REMARK UNBOUND:                -0.305
REMARK  Name = 
REMARK  4 active torsions:
REMARK  status: ('A' for Active; 'I' for Inactive)
REMARK    1  A    between atoms: N_1  and  C_2
REMARK    2  A    between atoms: C_2  and  C_3
REMARK    3  A    between atoms: C_7  and  C_8
REMARK    4  A    between atoms: C_8  and  N_9
REMARK                            x       y       z     vdW  Elec       q    Type
REMARK                         _______ _______ _______ _____ _____    ______ ____
ROOT
ATOM      1  C   UNL     1      44.837   3.669   9.812  0.00  0.00    +0.000 A 
ATOM      2  C   UNL     1      44.013   2.644  10.284  0.00  0.00    +0.000 A 
ATOM      3  C   UNL     1      43.489   2.750  11.561  0.00  0.00    +0.000 A 
ATOM      4  N   UNL     1      43.711   3.800  12.382  0.00  0.00    +0.000 NA
ATOM      5  C   UNL     1      44.506   4.799  11.920  0.00  0.00    +0.000 A 
ATOM      6  C   UNL     1      45.094   4.758  10.656  0.00  0.00    +0.000 A 
ENDROOT
BRANCH   1   7
ATOM      7  C   UNL     1      45.402   3.626   8.417  0.00  0.00    +0.000 C 
BRANCH   7   8
ATOM      8  N   UNL     1      46.138   4.842   8.096  0.00  0.00    +0.000 NA
ATOM      9  H   UNL     1      46.387   4.825   7.109  0.00  0.00    +0.000 HD
ATOM     10  H   UNL     1      47.018   4.843   8.611  0.00  0.00    +0.000 HD
ENDBRANCH   7   8
ENDBRANCH   1   7
BRANCH   5  11
ATOM     11  C   UNL     1      44.708   5.979  12.835  0.00  0.00    +0.000 C 
BRANCH  11  12
ATOM     12  N   UNL     1      46.074   6.072  13.331  0.00  0.00    +0.000 N 
ATOM     13  C   UNL     1      46.701   5.124  14.096  0.00  0.00    +0.000 A 
ATOM     14  N   UNL     1      47.971   5.399  14.276  0.00  0.00    +0.000 NA
ATOM     15  C   UNL     1      48.190   6.559  13.575  0.00  0.00    +0.000 A 
ATOM     16  C   UNL     1      49.383   7.274  13.388  0.00  0.00    +0.000 A 
ATOM     17  C   UNL     1      49.361   8.431  12.604  0.00  0.00    +0.000 A 
ATOM     18  C   UNL     1      48.170   8.877  12.025  0.00  0.00    +0.000 A 
ATOM     19  C   UNL     1      46.968   8.181  12.207  0.00  0.00    +0.000 A 
ATOM     20  C   UNL     1      47.013   7.016  12.982  0.00  0.00    +0.000 A 
ENDBRANCH  11  12
ENDBRANCH   5  11
TORSDOF 4
ENDMDL
