MODEL 1
REMARK VINA RESULT:    -9.034      0.000      0.000
REMARK INTER + INTRA:         -12.956
REMARK INTER:                 -12.203
REMARK INTRA:                  -0.753
REMARK UNBOUND:                -0.753
REMARK  Name = 
REMARK  7 active torsions:
REMARK  status: ('A' for Active; 'I' for Inactive)
REMARK    1  A    between atoms: C_1  and  C_2
REMARK    2  A    between atoms: C_2  and  N_3
REMARK    3  A    between atoms: C_2  and  C_16
REMARK    4  A    between atoms: C_4  and  C_6
REMARK    5  A    between atoms: C_19  and  C_20
REMARK    6  A    between atoms: C_20  and  C_21
REMARK    7  A    between atoms: C_21  and  C_22
REMARK                            x       y       z     vdW  Elec       q    Type
REMARK                         _______ _______ _______ _____ _____    ______ ____
ROOT
ATOM      1  C   UNL     1      47.438   8.801  12.260  0.00  0.00    +0.000 C 
ATOM      2  C   UNL     1      46.498   7.866  13.026  0.00  0.00    +0.000 C 
ENDROOT
BRANCH   2   3
ATOM      3  C   UNL     1      45.960   6.719  12.191  0.00  0.00    +0.000 A 
ATOM      4  C   UNL     1      46.358   6.608  10.852  0.00  0.00    +0.000 A 
ATOM      5  C   UNL     1      45.886   5.572  10.043  0.00  0.00    +0.000 A 
ATOM      6  C   UNL     1      45.010   4.605  10.552  0.00  0.00    +0.000 A 
ATOM      7  C   UNL     1      44.579   4.737  11.878  0.00  0.00    +0.000 A 
ATOM      8  C   UNL     1      45.043   5.782  12.686  0.00  0.00    +0.000 A 
BRANCH   6   9
ATOM      9  C   UNL     1      44.464   3.472   9.707  0.00  0.00    +0.000 C 
BRANCH   9  10
ATOM     10  C   UNL     1      44.654   3.652   8.195  0.00  0.00    +0.000 C 
BRANCH  10  11
ATOM     11  C   UNL     1      45.806   2.852   7.645  0.00  0.00    +0.000 A 
ATOM     12  C   UNL     1      46.098   1.587   8.162  0.00  0.00    +0.000 A 
ATOM     13  C   UNL     1      47.143   0.867   7.606  0.00  0.00    +0.000 A 
ATOM     14  N   UNL     1      47.911   1.319   6.593  0.00  0.00    +0.000 NA
ATOM     15  C   UNL     1      47.619   2.548   6.115  0.00  0.00    +0.000 A 
ATOM     16  C   UNL     1      46.593   3.344   6.603  0.00  0.00    +0.000 A 
ENDBRANCH  10  11
ENDBRANCH   9  10
ENDBRANCH   6   9
ENDBRANCH   2   3
BRANCH   2  17
ATOM     17  N   UNL     1      47.134   7.341  14.217  0.00  0.00    +0.000 N 
ATOM     18  C   UNL     1      48.350   6.691  14.182  0.00  0.00    +0.000 C 
ATOM     19  O   UNL     1      48.959   6.514  13.134  0.00  0.00    +0.000 OA
ATOM     20  H   UNL     1      46.679   7.423  15.120  0.00  0.00    +0.000 HD
BRANCH  18  21
ATOM     21  C   UNL     1      48.837   6.245  15.504  0.00  0.00    +0.000 A 
ATOM     22  N   UNL     1      49.855   6.922  16.069  0.00  0.00    +0.000 NA
ATOM     23  S   UNL     1      50.234   6.244  17.529  0.00  0.00    +0.000 S 
ATOM     24  C   UNL     1      49.054   5.020  17.475  0.00  0.00    +0.000 A 
ATOM     25  N   UNL     1      48.879   4.099  18.460  0.00  0.00    +0.000 NA
ATOM     26  C   UNL     1      47.930   3.255  18.219  0.00  0.00    +0.000 A 
ATOM     27  N   UNL     1      47.154   3.255  17.087  0.00  0.00    +0.000 N 
ATOM     28  C   UNL     1      47.300   4.169  16.063  0.00  0.00    +0.000 A 
ATOM     29  O   UNL     1      46.574   4.103  15.079  0.00  0.00    +0.000 OA
ATOM     30  C   UNL     1      48.349   5.138  16.290  0.00  0.00    +0.000 A 
ATOM     31  H   UNL     1      46.429   2.566  16.954  0.00  0.00    +0.000 HD
ENDBRANCH  18  21
ENDBRANCH   2  17
TORSDOF 6
ENDMDL
MODEL 2
REMARK VINA RESULT:    -8.587      1.919      2.245
REMARK INTER + INTRA:         -12.352
REMARK INTER:                 -11.722
REMARK INTRA:                  -0.630
REMARK UNBOUND:                -0.753
REMARK  Name = 
REMARK  7 active torsions:
REMARK  status: ('A' for Active; 'I' for Inactive)
REMARK    1  A    between atoms: C_1  and  C_2
REMARK    2  A    between atoms: C_2  and  N_3
REMARK    3  A    between atoms: C_2  and  C_16
REMARK    4  A    between atoms: C_4  and  C_6
REMARK    5  A    between atoms: C_19  and  C_20
REMARK    6  A    between atoms: C_20  and  C_21
REMARK    7  A    between atoms: C_21  and  C_22
REMARK                            x       y       z     vdW  Elec       q    Type
REMARK                         _______ _______ _______ _____ _____    ______ ____
ROOT
ATOM      1  C   UNL     1      48.760   7.200  12.972  0.00  0.00    +0.000 C 
ATOM      2  C   UNL     1      47.486   6.625  13.597  0.00  0.00    +0.000 C 
ENDROOT
BRANCH   2   3
ATOM      3  C   UNL     1      46.656   5.791  12.639  0.00  0.00    +0.000 A 
ATOM      4  C   UNL     1      46.404   6.284  11.352  0.00  0.00    +0.000 A 
ATOM      5  C   UNL     1      45.642   5.554  10.437  0.00  0.00    +0.000 A 
ATOM      6  C   UNL     1      45.120   4.299  10.776  0.00  0.00    +0.000 A 
ATOM      7  C   UNL     1      45.337   3.823  12.075  0.00  0.00    +0.000 A 
ATOM      8  C   UNL     1      46.091   4.559  12.996  0.00  0.00    +0.000 A 
BRANCH   6   9
ATOM      9  C   UNL     1      44.278   3.479   9.818  0.00  0.00    +0.000 C 
BRANCH   9  10
ATOM     10  C   UNL     1      44.604   3.695   8.335  0.00  0.00    +0.000 C 
BRANCH  10  11
ATOM     11  C   UNL     1      45.777   2.877   7.862  0.00  0.00    +0.000 A 
ATOM     12  C   UNL     1      45.891   1.531   8.221  0.00  0.00    +0.000 A 
ATOM     13  C   UNL     1      46.966   0.802   7.738  0.00  0.00    +0.000 A 
ATOM     14  N   UNL     1      47.925   1.318   6.942  0.00  0.00    +0.000 NA
ATOM     15  C   UNL     1      47.803   2.623   6.616  0.00  0.00    +0.000 A 
ATOM     16  C   UNL     1      46.764   3.435   7.047  0.00  0.00    +0.000 A 
ENDBRANCH  10  11
ENDBRANCH   9  10
ENDBRANCH   6   9
ENDBRANCH   2   3
BRANCH   2  17
ATOM     17  N   UNL     1      47.786   5.848  14.783  0.00  0.00    +0.000 N 
ATOM     18  C   UNL     1      48.367   6.403  15.903  0.00  0.00    +0.000 C 
ATOM     19  O   UNL     1      48.670   7.588  15.956  0.00  0.00    +0.000 OA
ATOM     20  H   UNL     1      47.591   4.852  14.806  0.00  0.00    +0.000 HD
BRANCH  18  21
ATOM     21  C   UNL     1      48.578   5.448  17.012  0.00  0.00    +0.000 A 
ATOM     22  N   UNL     1      49.026   4.214  16.712  0.00  0.00    +0.000 NA
ATOM     23  S   UNL     1      49.177   3.324  18.097  0.00  0.00    +0.000 S 
ATOM     24  C   UNL     1      48.657   4.546  19.160  0.00  0.00    +0.000 A 
ATOM     25  N   UNL     1      48.567   4.386  20.507  0.00  0.00    +0.000 NA
ATOM     26  C   UNL     1      48.147   5.437  21.129  0.00  0.00    +0.000 A 
ATOM     27  N   UNL     1      47.810   6.621  20.521  0.00  0.00    +0.000 N 
ATOM     28  C   UNL     1      47.883   6.826  19.157  0.00  0.00    +0.000 A 
ATOM     29  O   UNL     1      47.559   7.908  18.686  0.00  0.00    +0.000 OA
ATOM     30  C   UNL     1      48.353   5.675  18.419  0.00  0.00    +0.000 A 
ATOM     31  H   UNL     1      47.483   7.408  21.061  0.00  0.00    +0.000 HD
ENDBRANCH  18  21
ENDBRANCH   2  17
TORSDOF 6
ENDMDL
MODEL 3
REMARK VINA RESULT:    -7.899      2.158      4.153
REMARK INTER + INTRA:         -11.423
REMARK INTER:                 -10.087
REMARK INTRA:                  -1.335
REMARK UNBOUND:                -0.753
REMARK  Name = 
REMARK  7 active torsions:
REMARK  status: ('A' for Active; 'I' for Inactive)
REMARK    1  A    between atoms: C_1  and  C_2
REMARK    2  A    between atoms: C_2  and  N_3
REMARK    3  A    between atoms: C_2  and  C_16
REMARK    4  A    between atoms: C_4  and  C_6
REMARK    5  A    between atoms: C_19  and  C_20
REMARK    6  A    between atoms: C_20  and  C_21
REMARK    7  A    between atoms: C_21  and  C_22
REMARK                            x       y       z     vdW  Elec       q    Type
REMARK                         _______ _______ _______ _____ _____    ______ ____
ROOT
ATOM      1  C   UNL     1      46.963   4.164  16.079  0.00  0.00    +0.000 C 
ATOM      2  C   UNL     1      47.534   4.772  14.795  0.00  0.00    +0.000 C 
ENDROOT
BRANCH   2   3
ATOM      3  C   UNL     1      46.682   4.521  13.566  0.00  0.00    +0.000 A 
ATOM      4  C   UNL     1      46.359   5.599  12.732  0.00  0.00    +0.000 A 
ATOM      5  C   UNL     1      45.573   5.418  11.591  0.00  0.00    +0.000 A 
ATOM      6  C   UNL     1      45.097   4.149  11.240  0.00  0.00    +0.000 A 
ATOM      7  C   UNL     1      45.384   3.077  12.095  0.00  0.00    +0.000 A 
ATOM      8  C   UNL     1      46.162   3.260  13.244  0.00  0.00    +0.000 A 
BRANCH   6   9
ATOM      9  C   UNL     1      44.232   3.909  10.019  0.00  0.00    +0.000 C 
BRANCH   9  10
ATOM     10  C   UNL     1      44.885   4.299   8.687  0.00  0.00    +0.000 C 
BRANCH  10  11
ATOM     11  C   UNL     1      45.723   3.195   8.095  0.00  0.00    +0.000 A 
ATOM     12  C   UNL     1      46.654   3.476   7.091  0.00  0.00    +0.000 A 
ATOM     13  C   UNL     1      47.431   2.440   6.596  0.00  0.00    +0.000 A 
ATOM     14  N   UNL     1      47.337   1.163   7.019  0.00  0.00    +0.000 NA
ATOM     15  C   UNL     1      46.423   0.911   7.982  0.00  0.00    +0.000 A 
ATOM     16  C   UNL     1      45.601   1.878   8.541  0.00  0.00    +0.000 A 
ENDBRANCH  10  11
ENDBRANCH   9  10
ENDBRANCH   6   9
ENDBRANCH   2   3
BRANCH   2  17
ATOM     17  N   UNL     1      47.765   6.195  14.944  0.00  0.00    +0.000 N 
ATOM     18  C   UNL     1      48.884   6.701  15.572  0.00  0.00    +0.000 C 
ATOM     19  O   UNL     1      49.745   5.972  16.047  0.00  0.00    +0.000 OA
ATOM     20  H   UNL     1      47.083   6.863  14.601  0.00  0.00    +0.000 HD
BRANCH  18  21
ATOM     21  C   UNL     1      48.941   8.178  15.608  0.00  0.00    +0.000 A 
ATOM     22  N   UNL     1      48.899   8.787  16.809  0.00  0.00    +0.000 NA
ATOM     23  S   UNL     1      48.967  10.427  16.605  0.00  0.00    +0.000 S 
ATOM     24  C   UNL     1      49.061  10.398  14.907  0.00  0.00    +0.000 A 
ATOM     25  N   UNL     1      49.141  11.516  14.137  0.00  0.00    +0.000 NA
ATOM     26  C   UNL     1      49.200  11.271  12.870  0.00  0.00    +0.000 A 
ATOM     27  N   UNL     1      49.182  10.016  12.316  0.00  0.00    +0.000 N 
ATOM     28  C   UNL     1      49.099   8.855  13.059  0.00  0.00    +0.000 A 
ATOM     29  O   UNL     1      49.081   7.769  12.493  0.00  0.00    +0.000 OA
ATOM     30  C   UNL     1      49.035   9.079  14.486  0.00  0.00    +0.000 A 
ATOM     31  H   UNL     1      49.228   9.888  11.316  0.00  0.00    +0.000 HD
ENDBRANCH  18  21
ENDBRANCH   2  17
TORSDOF 6
ENDMDL
MODEL 4
REMARK VINA RESULT:    -7.828      2.745      3.574
REMARK INTER + INTRA:         -11.327
REMARK INTER:                  -9.942
REMARK INTRA:                  -1.384
REMARK UNBOUND:                -0.753
REMARK  Name = 
REMARK  7 active torsions:
REMARK  status: ('A' for Active; 'I' for Inactive)
REMARK    1  A    between atoms: C_1  and  C_2
REMARK    2  A    between atoms: C_2  and  N_3
REMARK    3  A    between atoms: C_2  and  C_16
REMARK    4  A    between atoms: C_4  and  C_6
REMARK    5  A    between atoms: C_19  and  C_20
REMARK    6  A    between atoms: C_20  and  C_21
REMARK    7  A    between atoms: C_21  and  C_22
REMARK                            x       y       z     vdW  Elec       q    Type
REMARK                         _______ _______ _______ _____ _____    ______ ____
ROOT
ATOM      1  C   UNL     1      47.452   3.877  16.144  0.00  0.00    +0.000 C 
ATOM      2  C   UNL     1      47.826   4.871  15.042  0.00  0.00    +0.000 C 
ENDROOT
BRANCH   2   3
ATOM      3  C   UNL     1      46.922   4.807  13.825  0.00  0.00    +0.000 A 
ATOM      4  C   UNL     1      46.368   3.575  13.456  0.00  0.00    +0.000 A 
ATOM      5  C   UNL     1      45.533   3.466  12.341  0.00  0.00    +0.000 A 
ATOM      6  C   UNL     1      45.215   4.589  11.568  0.00  0.00    +0.000 A 
ATOM      7  C   UNL     1      45.802   5.814  11.912  0.00  0.00    +0.000 A 
ATOM      8  C   UNL     1      46.646   5.922  13.022  0.00  0.00    +0.000 A 
BRANCH   6   9
ATOM      9  C   UNL     1      44.324   4.514  10.344  0.00  0.00    +0.000 C 
BRANCH   9  10
ATOM     10  C   UNL     1      44.236   3.123   9.703  0.00  0.00    +0.000 C 
BRANCH  10  11
ATOM     11  C   UNL     1      45.329   2.865   8.698  0.00  0.00    +0.000 A 
ATOM     12  C   UNL     1      45.837   1.575   8.523  0.00  0.00    +0.000 A 
ATOM     13  C   UNL     1      46.817   1.371   7.564  0.00  0.00    +0.000 A 
ATOM     14  N   UNL     1      47.323   2.352   6.788  0.00  0.00    +0.000 NA
ATOM     15  C   UNL     1      46.826   3.592   6.980  0.00  0.00    +0.000 A 
ATOM     16  C   UNL     1      45.844   3.897   7.912  0.00  0.00    +0.000 A 
ENDBRANCH  10  11
ENDBRANCH   9  10
ENDBRANCH   6   9
ENDBRANCH   2   3
BRANCH   2  17
ATOM     17  N   UNL     1      47.863   6.229  15.548  0.00  0.00    +0.000 N 
ATOM     18  C   UNL     1      49.045   6.882  15.828  0.00  0.00    +0.000 C 
ATOM     19  O   UNL     1      50.134   6.345  15.670  0.00  0.00    +0.000 OA
ATOM     20  H   UNL     1      47.001   6.731  15.732  0.00  0.00    +0.000 HD
BRANCH  18  21
ATOM     21  C   UNL     1      48.871   8.265  16.320  0.00  0.00    +0.000 A 
ATOM     22  N   UNL     1      49.308   9.276  15.545  0.00  0.00    +0.000 NA
ATOM     23  S   UNL     1      49.018  10.720  16.297  0.00  0.00    +0.000 S 
ATOM     24  C   UNL     1      48.292  10.062  17.688  0.00  0.00    +0.000 A 
ATOM     25  N   UNL     1      47.825  10.812  18.721  0.00  0.00    +0.000 NA
ATOM     26  C   UNL     1      47.314  10.114  19.680  0.00  0.00    +0.000 A 
ATOM     27  N   UNL     1      47.236   8.744  19.692  0.00  0.00    +0.000 N 
ATOM     28  C   UNL     1      47.700   7.944  18.667  0.00  0.00    +0.000 A 
ATOM     29  O   UNL     1      47.601   6.726  18.752  0.00  0.00    +0.000 OA
ATOM     30  C   UNL     1      48.278   8.683  17.567  0.00  0.00    +0.000 A 
ATOM     31  H   UNL     1      46.827   8.253  20.474  0.00  0.00    +0.000 HD
ENDBRANCH  18  21
ENDBRANCH   2  17
TORSDOF 6
ENDMDL
MODEL 5
REMARK VINA RESULT:    -7.777      1.195      1.457
REMARK INTER + INTRA:         -11.257
REMARK INTER:                 -10.186
REMARK INTRA:                  -1.071
REMARK UNBOUND:                -0.753
REMARK  Name = 
REMARK  7 active torsions:
REMARK  status: ('A' for Active; 'I' for Inactive)
REMARK    1  A    between atoms: C_1  and  C_2
REMARK    2  A    between atoms: C_2  and  N_3
REMARK    3  A    between atoms: C_2  and  C_16
REMARK    4  A    between atoms: C_4  and  C_6
REMARK    5  A    between atoms: C_19  and  C_20
REMARK    6  A    between atoms: C_20  and  C_21
REMARK    7  A    between atoms: C_21  and  C_22
REMARK                            x       y       z     vdW  Elec       q    Type
REMARK                         _______ _______ _______ _____ _____    ______ ____
ROOT
ATOM      1  C   UNL     1      49.251   7.766  12.222  0.00  0.00    +0.000 C 
ATOM      2  C   UNL     1      48.111   7.283  13.123  0.00  0.00    +0.000 C 
ENDROOT
BRANCH   2   3
ATOM      3  C   UNL     1      47.112   6.384  12.419  0.00  0.00    +0.000 A 
ATOM      4  C   UNL     1      46.787   5.149  12.994  0.00  0.00    +0.000 A 
ATOM      5  C   UNL     1      45.875   4.286  12.381  0.00  0.00    +0.000 A 
ATOM      6  C   UNL     1      45.249   4.638  11.178  0.00  0.00    +0.000 A 
ATOM      7  C   UNL     1      45.604   5.854  10.581  0.00  0.00    +0.000 A 
ATOM      8  C   UNL     1      46.525   6.714  11.189  0.00  0.00    +0.000 A 
BRANCH   6   9
ATOM      9  C   UNL     1      44.264   3.727  10.473  0.00  0.00    +0.000 C 
BRANCH   9  10
ATOM     10  C   UNL     1      44.280   3.831   8.943  0.00  0.00    +0.000 C 
BRANCH  10  11
ATOM     11  C   UNL     1      45.402   3.050   8.309  0.00  0.00    +0.000 A 
ATOM     12  C   UNL     1      45.542   1.682   8.563  0.00  0.00    +0.000 A 
ATOM     13  C   UNL     1      46.565   0.991   7.934  0.00  0.00    +0.000 A 
ATOM     14  N   UNL     1      47.450   1.562   7.091  0.00  0.00    +0.000 NA
ATOM     15  C   UNL     1      47.304   2.886   6.867  0.00  0.00    +0.000 A 
ATOM     16  C   UNL     1      46.312   3.663   7.447  0.00  0.00    +0.000 A 
ENDBRANCH  10  11
ENDBRANCH   9  10
ENDBRANCH   6   9
ENDBRANCH   2   3
BRANCH   2  17
ATOM     17  N   UNL     1      48.621   6.612  14.301  0.00  0.00    +0.000 N 
ATOM     18  C   UNL     1      48.736   7.245  15.522  0.00  0.00    +0.000 C 
ATOM     19  O   UNL     1      48.418   8.417  15.675  0.00  0.00    +0.000 OA
ATOM     20  H   UNL     1      48.932   5.647  14.248  0.00  0.00    +0.000 HD
BRANCH  18  21
ATOM     21  C   UNL     1      49.263   6.385  16.602  0.00  0.00    +0.000 A 
ATOM     22  N   UNL     1      50.380   6.781  17.243  0.00  0.00    +0.000 NA
ATOM     23  S   UNL     1      50.785   5.668  18.397  0.00  0.00    +0.000 S 
ATOM     24  C   UNL     1      49.487   4.610  18.097  0.00  0.00    +0.000 A 
ATOM     25  N   UNL     1      49.286   3.452  18.779  0.00  0.00    +0.000 NA
ATOM     26  C   UNL     1      48.244   2.795  18.392  0.00  0.00    +0.000 A 
ATOM     27  N   UNL     1      47.397   3.195  17.388  0.00  0.00    +0.000 N 
ATOM     28  C   UNL     1      47.565   4.361  16.669  0.00  0.00    +0.000 A 
ATOM     29  O   UNL     1      46.772   4.649  15.782  0.00  0.00    +0.000 OA
ATOM     30  C   UNL     1      48.720   5.133  17.070  0.00  0.00    +0.000 A 
ATOM     31  H   UNL     1      46.599   2.636  17.128  0.00  0.00    +0.000 HD
ENDBRANCH  18  21
ENDBRANCH   2  17
TORSDOF 6
ENDMDL
MODEL 6
REMARK VINA RESULT:    -7.773      1.898      2.594
REMARK INTER + INTRA:         -11.253
REMARK INTER:                 -10.296
REMARK INTRA:                  -0.956
REMARK UNBOUND:                -0.753
REMARK  Name = 
REMARK  7 active torsions:
REMARK  status: ('A' for Active; 'I' for Inactive)
REMARK    1  A    between atoms: C_1  and  C_2
REMARK    2  A    between atoms: C_2  and  N_3
REMARK    3  A    between atoms: C_2  and  C_16
REMARK    4  A    between atoms: C_4  and  C_6
REMARK    5  A    between atoms: C_19  and  C_20
REMARK    6  A    between atoms: C_20  and  C_21
REMARK    7  A    between atoms: C_21  and  C_22
REMARK                            x       y       z     vdW  Elec       q    Type
REMARK                         _______ _______ _______ _____ _____    ______ ____
ROOT
ATOM      1  C   UNL     1      48.659   7.874  12.821  0.00  0.00    +0.000 C 
ATOM      2  C   UNL     1      47.562   7.114  13.571  0.00  0.00    +0.000 C 
ENDROOT
BRANCH   2   3
ATOM      3  C   UNL     1      46.654   6.299  12.669  0.00  0.00    +0.000 A 
ATOM      4  C   UNL     1      46.292   6.821  11.420  0.00  0.00    +0.000 A 
ATOM      5  C   UNL     1      45.456   6.109  10.557  0.00  0.00    +0.000 A 
ATOM      6  C   UNL     1      44.964   4.846  10.911  0.00  0.00    +0.000 A 
ATOM      7  C   UNL     1      45.292   4.341  12.175  0.00  0.00    +0.000 A 
ATOM      8  C   UNL     1      46.122   5.058  13.045  0.00  0.00    +0.000 A 
BRANCH   6   9
ATOM      9  C   UNL     1      44.045   4.046  10.010  0.00  0.00    +0.000 C 
BRANCH   9  10
ATOM     10  C   UNL     1      44.520   2.617   9.719  0.00  0.00    +0.000 C 
BRANCH  10  11
ATOM     11  C   UNL     1      45.505   2.543   8.580  0.00  0.00    +0.000 A 
ATOM     12  C   UNL     1      46.175   1.348   8.303  0.00  0.00    +0.000 A 
ATOM     13  C   UNL     1      47.047   1.309   7.226  0.00  0.00    +0.000 A 
ATOM     14  N   UNL     1      47.299   2.366   6.426  0.00  0.00    +0.000 NA
ATOM     15  C   UNL     1      46.649   3.513   6.718  0.00  0.00    +0.000 A 
ATOM     16  C   UNL     1      45.758   3.652   7.771  0.00  0.00    +0.000 A 
ENDBRANCH  10  11
ENDBRANCH   9  10
ENDBRANCH   6   9
ENDBRANCH   2   3
BRANCH   2  17
ATOM     17  N   UNL     1      48.123   6.257  14.596  0.00  0.00    +0.000 N 
ATOM     18  C   UNL     1      48.607   6.750  15.790  0.00  0.00    +0.000 C 
ATOM     19  O   UNL     1      48.595   7.947  16.048  0.00  0.00    +0.000 OA
ATOM     20  H   UNL     1      48.194   5.256  14.445  0.00  0.00    +0.000 HD
BRANCH  18  21
ATOM     21  C   UNL     1      49.124   5.714  16.709  0.00  0.00    +0.000 A 
ATOM     22  N   UNL     1      48.238   4.889  17.299  0.00  0.00    +0.000 NA
ATOM     23  S   UNL     1      49.037   3.826  18.283  0.00  0.00    +0.000 S 
ATOM     24  C   UNL     1      50.600   4.416  17.961  0.00  0.00    +0.000 A 
ATOM     25  N   UNL     1      51.728   3.903  18.520  0.00  0.00    +0.000 NA
ATOM     26  C   UNL     1      52.811   4.499  18.143  0.00  0.00    +0.000 A 
ATOM     27  N   UNL     1      52.857   5.554  17.267  0.00  0.00    +0.000 N 
ATOM     28  C   UNL     1      51.737   6.107  16.679  0.00  0.00    +0.000 A 
ATOM     29  O   UNL     1      51.855   7.053  15.911  0.00  0.00    +0.000 OA
ATOM     30  C   UNL     1      50.499   5.469  17.069  0.00  0.00    +0.000 A 
ATOM     31  H   UNL     1      53.735   5.981  17.013  0.00  0.00    +0.000 HD
ENDBRANCH  18  21
ENDBRANCH   2  17
TORSDOF 6
ENDMDL
MODEL 7
REMARK VINA RESULT:    -7.658      3.562      4.318
REMARK INTER + INTRA:         -11.097
REMARK INTER:                  -9.693
REMARK INTRA:                  -1.404
REMARK UNBOUND:                -0.753
REMARK  Name = 
REMARK  7 active torsions:
REMARK  status: ('A' for Active; 'I' for Inactive)
REMARK    1  A    between atoms: C_1  and  C_2
REMARK    2  A    between atoms: C_2  and  N_3
REMARK    3  A    between atoms: C_2  and  C_16
REMARK    4  A    between atoms: C_4  and  C_6
REMARK    5  A    between atoms: C_19  and  C_20
REMARK    6  A    between atoms: C_20  and  C_21
REMARK    7  A    between atoms: C_21  and  C_22
REMARK                            x       y       z     vdW  Elec       q    Type
REMARK                         _______ _______ _______ _____ _____    ______ ____
ROOT
ATOM      1  C   UNL     1      44.612   9.770  12.223  0.00  0.00    +0.000 C 
ATOM      2  C   UNL     1      45.578   8.721  12.782  0.00  0.00    +0.000 C 
ENDROOT
BRANCH   2   3
ATOM      3  C   UNL     1      45.380   7.334  12.199  0.00  0.00    +0.000 A 
ATOM      4  C   UNL     1      45.886   7.055  10.923  0.00  0.00    +0.000 A 
ATOM      5  C   UNL     1      45.725   5.794  10.344  0.00  0.00    +0.000 A 
ATOM      6  C   UNL     1      45.065   4.767  11.030  0.00  0.00    +0.000 A 
ATOM      7  C   UNL     1      44.523   5.056  12.289  0.00  0.00    +0.000 A 
ATOM      8  C   UNL     1      44.674   6.322  12.865  0.00  0.00    +0.000 A 
BRANCH   6   9
ATOM      9  C   UNL     1      44.857   3.389  10.434  0.00  0.00    +0.000 C 
BRANCH   9  10
ATOM     10  C   UNL     1      44.645   3.374   8.915  0.00  0.00    +0.000 C 
BRANCH  10  11
ATOM     11  C   UNL     1      45.745   2.659   8.172  0.00  0.00    +0.000 A 
ATOM     12  C   UNL     1      46.635   3.376   7.367  0.00  0.00    +0.000 A 
ATOM     13  C   UNL     1      47.654   2.689   6.727  0.00  0.00    +0.000 A 
ATOM     14  N   UNL     1      47.838   1.356   6.826  0.00  0.00    +0.000 NA
ATOM     15  C   UNL     1      46.960   0.681   7.600  0.00  0.00    +0.000 A 
ATOM     16  C   UNL     1      45.910   1.278   8.280  0.00  0.00    +0.000 A 
ENDBRANCH  10  11
ENDBRANCH   9  10
ENDBRANCH   6   9
ENDBRANCH   2   3
BRANCH   2  17
ATOM     17  N   UNL     1      46.957   9.129  12.606  0.00  0.00    +0.000 N 
ATOM     18  C   UNL     1      47.860   9.152  13.649  0.00  0.00    +0.000 C 
ATOM     19  O   UNL     1      47.542   8.835  14.787  0.00  0.00    +0.000 OA
ATOM     20  H   UNL     1      47.290   9.434  11.698  0.00  0.00    +0.000 HD
BRANCH  18  21
ATOM     21  C   UNL     1      49.220   9.584  13.262  0.00  0.00    +0.000 A 
ATOM     22  N   UNL     1      49.670  10.764  13.730  0.00  0.00    +0.000 NA
ATOM     23  S   UNL     1      51.199  11.041  13.165  0.00  0.00    +0.000 S 
ATOM     24  C   UNL     1      51.331   9.597  12.275  0.00  0.00    +0.000 A 
ATOM     25  N   UNL     1      52.432   9.254  11.555  0.00  0.00    +0.000 NA
ATOM     26  C   UNL     1      52.324   8.117  10.951  0.00  0.00    +0.000 A 
ATOM     27  N   UNL     1      51.218   7.307  11.004  0.00  0.00    +0.000 N 
ATOM     28  C   UNL     1      50.079   7.618  11.719  0.00  0.00    +0.000 A 
ATOM     29  O   UNL     1      49.127   6.848  11.714  0.00  0.00    +0.000 OA
ATOM     30  C   UNL     1      50.155   8.882  12.417  0.00  0.00    +0.000 A 
ATOM     31  H   UNL     1      51.191   6.430  10.506  0.00  0.00    +0.000 HD
ENDBRANCH  18  21
ENDBRANCH   2  17
TORSDOF 6
ENDMDL
MODEL 8
REMARK VINA RESULT:    -7.223      3.614      7.558
REMARK INTER + INTRA:         -10.509
REMARK INTER:                  -9.035
REMARK INTRA:                  -1.474
REMARK UNBOUND:                -0.753
REMARK  Name = 
REMARK  7 active torsions:
REMARK  status: ('A' for Active; 'I' for Inactive)
REMARK    1  A    between atoms: C_1  and  C_2
REMARK    2  A    between atoms: C_2  and  N_3
REMARK    3  A    between atoms: C_2  and  C_16
REMARK    4  A    between atoms: C_4  and  C_6
REMARK    5  A    between atoms: C_19  and  C_20
REMARK    6  A    between atoms: C_20  and  C_21
REMARK    7  A    between atoms: C_21  and  C_22
REMARK                            x       y       z     vdW  Elec       q    Type
REMARK                         _______ _______ _______ _____ _____    ______ ____
ROOT
ATOM      1  C   UNL     1      48.791  10.107  14.736  0.00  0.00    +0.000 C 
ATOM      2  C   UNL     1      48.944   8.600  14.508  0.00  0.00    +0.000 C 
ENDROOT
BRANCH   2   3
ATOM      3  C   UNL     1      49.284   7.822  15.765  0.00  0.00    +0.000 A 
ATOM      4  C   UNL     1      48.454   7.949  16.887  0.00  0.00    +0.000 A 
ATOM      5  C   UNL     1      48.728   7.255  18.068  0.00  0.00    +0.000 A 
ATOM      6  C   UNL     1      49.835   6.401  18.160  0.00  0.00    +0.000 A 
ATOM      7  C   UNL     1      50.687   6.305  17.053  0.00  0.00    +0.000 A 
ATOM      8  C   UNL     1      50.419   7.008  15.873  0.00  0.00    +0.000 A 
BRANCH   6   9
ATOM      9  C   UNL     1      50.176   5.640  19.425  0.00  0.00    +0.000 C 
BRANCH   9  10
ATOM     10  C   UNL     1      49.365   4.355  19.637  0.00  0.00    +0.000 C 
BRANCH  10  11
ATOM     11  C   UNL     1      49.365   3.450  18.431  0.00  0.00    +0.000 A 
ATOM     12  C   UNL     1      48.191   3.247  17.700  0.00  0.00    +0.000 A 
ATOM     13  C   UNL     1      48.240   2.436  16.577  0.00  0.00    +0.000 A 
ATOM     14  N   UNL     1      49.358   1.817  16.146  0.00  0.00    +0.000 NA
ATOM     15  C   UNL     1      50.479   2.018  16.873  0.00  0.00    +0.000 A 
ATOM     16  C   UNL     1      50.532   2.812  18.009  0.00  0.00    +0.000 A 
ENDBRANCH  10  11
ENDBRANCH   9  10
ENDBRANCH   6   9
ENDBRANCH   2   3
BRANCH   2  17
ATOM     17  N   UNL     1      47.759   8.037  13.894  0.00  0.00    +0.000 N 
ATOM     18  C   UNL     1      47.809   6.947  13.051  0.00  0.00    +0.000 C 
ATOM     19  O   UNL     1      48.865   6.396  12.768  0.00  0.00    +0.000 OA
ATOM     20  H   UNL     1      46.849   8.456  14.057  0.00  0.00    +0.000 HD
BRANCH  18  21
ATOM     21  C   UNL     1      46.491   6.516  12.540  0.00  0.00    +0.000 A 
ATOM     22  N   UNL     1      45.689   7.444  11.984  0.00  0.00    +0.000 NA
ATOM     23  S   UNL     1      44.275   6.740  11.495  0.00  0.00    +0.000 S 
ATOM     24  C   UNL     1      44.671   5.164  11.998  0.00  0.00    +0.000 A 
ATOM     25  N   UNL     1      43.843   4.095  11.849  0.00  0.00    +0.000 NA
ATOM     26  C   UNL     1      44.335   2.990  12.302  0.00  0.00    +0.000 A 
ATOM     27  N   UNL     1      45.571   2.868  12.887  0.00  0.00    +0.000 N 
ATOM     28  C   UNL     1      46.441   3.926  13.061  0.00  0.00    +0.000 A 
ATOM     29  O   UNL     1      47.525   3.741  13.599  0.00  0.00    +0.000 OA
ATOM     30  C   UNL     1      45.933   5.185  12.565  0.00  0.00    +0.000 A 
ATOM     31  H   UNL     1      45.899   1.976  13.226  0.00  0.00    +0.000 HD
ENDBRANCH  18  21
ENDBRANCH   2  17
TORSDOF 6
ENDMDL
MODEL 9
REMARK VINA RESULT:    -6.915      1.800      2.755
REMARK INTER + INTRA:         -10.093
REMARK INTER:                  -8.732
REMARK INTRA:                  -1.361
REMARK UNBOUND:                -0.753
REMARK  Name = 
REMARK  7 active torsions:
REMARK  status: ('A' for Active; 'I' for Inactive)
REMARK    1  A    between atoms: C_1  and  C_2
REMARK    2  A    between atoms: C_2  and  N_3
REMARK    3  A    between atoms: C_2  and  C_16
REMARK    4  A    between atoms: C_4  and  C_6
REMARK    5  A    between atoms: C_19  and  C_20
REMARK    6  A    between atoms: C_20  and  C_21
REMARK    7  A    between atoms: C_21  and  C_22
REMARK                            x       y       z     vdW  Elec       q    Type
REMARK                         _______ _______ _______ _____ _____    ______ ____
ROOT
ATOM      1  C   UNL     1      50.611   8.336  13.332  0.00  0.00    +0.000 C 
ATOM      2  C   UNL     1      49.301   8.432  14.119  0.00  0.00    +0.000 C 
ENDROOT
BRANCH   2   3
ATOM      3  C   UNL     1      48.080   7.989  13.335  0.00  0.00    +0.000 A 
ATOM      4  C   UNL     1      48.160   6.831  12.551  0.00  0.00    +0.000 A 
ATOM      5  C   UNL     1      47.064   6.387  11.808  0.00  0.00    +0.000 A 
ATOM      6  C   UNL     1      45.847   7.080  11.836  0.00  0.00    +0.000 A 
ATOM      7  C   UNL     1      45.778   8.260  12.587  0.00  0.00    +0.000 A 
ATOM      8  C   UNL     1      46.879   8.712  13.323  0.00  0.00    +0.000 A 
BRANCH   6   9
ATOM      9  C   UNL     1      44.638   6.640  11.036  0.00  0.00    +0.000 C 
BRANCH   9  10
ATOM     10  C   UNL     1      44.216   5.183  11.263  0.00  0.00    +0.000 C 
BRANCH  10  11
ATOM     11  C   UNL     1      44.668   4.258  10.162  0.00  0.00    +0.000 A 
ATOM     12  C   UNL     1      44.397   2.889  10.234  0.00  0.00    +0.000 A 
ATOM     13  C   UNL     1      44.797   2.076   9.186  0.00  0.00    +0.000 A 
ATOM     14  N   UNL     1      45.448   2.527   8.093  0.00  0.00    +0.000 NA
ATOM     15  C   UNL     1      45.710   3.851   8.049  0.00  0.00    +0.000 A 
ATOM     16  C   UNL     1      45.349   4.745   9.045  0.00  0.00    +0.000 A 
ENDBRANCH  10  11
ENDBRANCH   9  10
ENDBRANCH   6   9
ENDBRANCH   2   3
BRANCH   2  17
ATOM     17  N   UNL     1      49.377   7.686  15.360  0.00  0.00    +0.000 N 
ATOM     18  C   UNL     1      48.725   8.090  16.506  0.00  0.00    +0.000 C 
ATOM     19  O   UNL     1      48.048   9.109  16.541  0.00  0.00    +0.000 OA
ATOM     20  H   UNL     1      49.941   6.845  15.419  0.00  0.00    +0.000 HD
BRANCH  18  21
ATOM     21  C   UNL     1      48.915   7.186  17.661  0.00  0.00    +0.000 A 
ATOM     22  N   UNL     1      49.361   7.716  18.816  0.00  0.00    +0.000 NA
ATOM     23  S   UNL     1      49.506   6.526  19.955  0.00  0.00    +0.000 S 
ATOM     24  C   UNL     1      48.975   5.252  18.960  0.00  0.00    +0.000 A 
ATOM     25  N   UNL     1      48.879   3.961  19.376  0.00  0.00    +0.000 NA
ATOM     26  C   UNL     1      48.458   3.151  18.462  0.00  0.00    +0.000 A 
ATOM     27  N   UNL     1      48.132   3.521  17.181  0.00  0.00    +0.000 N 
ATOM     28  C   UNL     1      48.217   4.819  16.717  0.00  0.00    +0.000 A 
ATOM     29  O   UNL     1      47.915   5.072  15.558  0.00  0.00    +0.000 OA
ATOM     30  C   UNL     1      48.681   5.763  17.708  0.00  0.00    +0.000 A 
ATOM     31  H   UNL     1      47.811   2.840  16.509  0.00  0.00    +0.000 HD
ENDBRANCH  18  21
ENDBRANCH   2  17
TORSDOF 6
ENDMDL
