MODEL 1
REMARK VINA RESULT:    -7.830      0.000      0.000
REMARK INTER + INTRA:          -9.754
REMARK INTER:                  -9.204
REMARK INTRA:                  -0.550
REMARK UNBOUND:                -0.550
REMARK  Name = 
REMARK  5 active torsions:
REMARK  status: ('A' for Active; 'I' for Inactive)
REMARK    1  A    between atoms: C_1  and  C_2
REMARK    2  A    between atoms: C_5  and  C_6
REMARK    3  A    between atoms: C_6  and  C_7
REMARK    4  A    between atoms: C_6  and  N_8
REMARK    5  A    between atoms: C_14  and  C_15
REMARK                            x       y       z     vdW  Elec       q    Type
REMARK                         _______ _______ _______ _____ _____    ______ ____
ROOT
ATOM      1  N   UNL     1      44.516   4.988   9.457  0.00  0.00    +0.000 N 
ATOM      2  C   UNL     1      45.076   3.802   9.006  0.00  0.00    +0.000 A 
ATOM      3  N   UNL     1      44.782   2.642   9.600  0.00  0.00    +0.000 NA
ATOM      4  C   UNL     1      45.324   1.516   9.083  0.00  0.00    +0.000 A 
ATOM      5  C   UNL     1      46.151   1.484   7.989  0.00  0.00    +0.000 A 
ATOM      6 CL   UNL     1      46.737  -0.032   7.439  0.00  0.00    +0.000 Cl
ATOM      7  C   UNL     1      46.410   2.725   7.448  0.00  0.00    +0.000 A 
ATOM      8  N   UNL     1      45.888   3.894   7.946  0.00  0.00    +0.000 NA
ATOM      9  H   UNL     1      45.145   5.727   9.159  0.00  0.00    +0.000 HD
ENDROOT
BRANCH   7  10
ATOM     10  C   UNL     1      47.297   2.903   6.246  0.00  0.00    +0.000 C 
ATOM     11  N   UNL     1      48.641   2.734   6.470  0.00  0.00    +0.000 N 
ATOM     12  O   UNL     1      46.904   3.177   5.121  0.00  0.00    +0.000 OA
ATOM     13  H   UNL     1      48.980   2.521   7.400  0.00  0.00    +0.000 HD
ATOM     14  H   UNL     1      49.282   2.850   5.700  0.00  0.00    +0.000 HD
ENDBRANCH   7  10
BRANCH   1  15
ATOM     15  C   UNL     1      44.164   5.057  10.881  0.00  0.00    +0.000 C 
ATOM     16  C   UNL     1      43.010   6.036  11.130  0.00  0.00    +0.000 C 
BRANCH  15  21
ATOM     17  C   UNL     1      48.624   6.662  14.219  0.00  0.00    +0.000 C 
ATOM     18  C   UNL     1      47.508   6.272  13.304  0.00  0.00    +0.000 A 
ATOM     19  C   UNL     1      47.281   6.926  12.095  0.00  0.00    +0.000 A 
ATOM     20  C   UNL     1      46.213   6.534  11.285  0.00  0.00    +0.000 A 
ATOM     21  C   UNL     1      45.383   5.493  11.705  0.00  0.00    +0.000 A 
ATOM     22  N   UNL     1      45.600   4.837  12.874  0.00  0.00    +0.000 NA
ATOM     23  C   UNL     1      46.641   5.240  13.640  0.00  0.00    +0.000 A 
ENDBRANCH  15  21
ENDBRANCH   1  15
TORSDOF 3
ENDMDL
MODEL 2
REMARK VINA RESULT:    -7.249      3.777      6.485
REMARK INTER + INTRA:          -9.071
REMARK INTER:                  -8.541
REMARK INTRA:                  -0.530
REMARK UNBOUND:                -0.550
REMARK  Name = 
REMARK  5 active torsions:
REMARK  status: ('A' for Active; 'I' for Inactive)
REMARK    1  A    between atoms: C_1  and  C_2
REMARK    2  A    between atoms: C_5  and  C_6
REMARK    3  A    between atoms: C_6  and  C_7
REMARK    4  A    between atoms: C_6  and  N_8
REMARK    5  A    between atoms: C_14  and  C_15
REMARK                            x       y       z     vdW  Elec       q    Type
REMARK                         _______ _______ _______ _____ _____    ______ ____
ROOT
ATOM      1  N   UNL     1      45.273   4.014  12.122  0.00  0.00    +0.000 N 
ATOM      2  C   UNL     1      45.742   5.311  12.276  0.00  0.00    +0.000 A 
ATOM      3  N   UNL     1      44.969   6.355  11.962  0.00  0.00    +0.000 NA
ATOM      4  C   UNL     1      45.468   7.593  12.179  0.00  0.00    +0.000 A 
ATOM      5  C   UNL     1      46.710   7.849  12.703  0.00  0.00    +0.000 A 
ATOM      6 CL   UNL     1      47.187   9.480  12.942  0.00  0.00    +0.000 Cl
ATOM      7  C   UNL     1      47.441   6.716  12.985  0.00  0.00    +0.000 A 
ATOM      8  N   UNL     1      46.978   5.440  12.773  0.00  0.00    +0.000 NA
ATOM      9  H   UNL     1      46.095   3.427  12.029  0.00  0.00    +0.000 HD
ENDROOT
BRANCH   7  10
ATOM     10  C   UNL     1      48.829   6.784  13.563  0.00  0.00    +0.000 C 
ATOM     11  N   UNL     1      49.827   7.092  12.673  0.00  0.00    +0.000 N 
ATOM     12  O   UNL     1      49.109   6.589  14.737  0.00  0.00    +0.000 OA
ATOM     13  H   UNL     1      49.611   7.242  11.695  0.00  0.00    +0.000 HD
ATOM     14  H   UNL     1      50.779   7.143  13.005  0.00  0.00    +0.000 HD
ENDBRANCH   7  10
BRANCH   1  15
ATOM     15  C   UNL     1      44.271   3.790  11.072  0.00  0.00    +0.000 C 
ATOM     16  C   UNL     1      43.298   2.666  11.450  0.00  0.00    +0.000 C 
BRANCH  15  21
ATOM     17  C   UNL     1      47.022   2.257   6.205  0.00  0.00    +0.000 C 
ATOM     18  C   UNL     1      46.290   2.708   7.428  0.00  0.00    +0.000 A 
ATOM     19  C   UNL     1      46.015   4.053   7.670  0.00  0.00    +0.000 A 
ATOM     20  C   UNL     1      45.343   4.422   8.837  0.00  0.00    +0.000 A 
ATOM     21  C   UNL     1      44.963   3.436   9.749  0.00  0.00    +0.000 A 
ATOM     22  N   UNL     1      45.212   2.120   9.520  0.00  0.00    +0.000 NA
ATOM     23  C   UNL     1      45.866   1.791   8.382  0.00  0.00    +0.000 A 
ENDBRANCH  15  21
ENDBRANCH   1  15
TORSDOF 3
ENDMDL
MODEL 3
REMARK VINA RESULT:    -7.162      3.782      6.872
REMARK INTER + INTRA:          -8.968
REMARK INTER:                  -8.424
REMARK INTRA:                  -0.544
REMARK UNBOUND:                -0.550
REMARK  Name = 
REMARK  5 active torsions:
REMARK  status: ('A' for Active; 'I' for Inactive)
REMARK    1  A    between atoms: C_1  and  C_2
REMARK    2  A    between atoms: C_5  and  C_6
REMARK    3  A    between atoms: C_6  and  C_7
REMARK    4  A    between atoms: C_6  and  N_8
REMARK    5  A    between atoms: C_14  and  C_15
REMARK                            x       y       z     vdW  Elec       q    Type
REMARK                         _______ _______ _______ _____ _____    ______ ____
ROOT
ATOM      1  N   UNL     1      44.617   4.655  12.557  0.00  0.00    +0.000 N 
ATOM      2  C   UNL     1      45.716   5.015  13.324  0.00  0.00    +0.000 A 
ATOM      3  N   UNL     1      46.247   6.237  13.219  0.00  0.00    +0.000 NA
ATOM      4  C   UNL     1      47.287   6.541  14.027  0.00  0.00    +0.000 A 
ATOM      5  C   UNL     1      47.832   5.682  14.949  0.00  0.00    +0.000 A 
ATOM      6 CL   UNL     1      49.137   6.229  15.919  0.00  0.00    +0.000 Cl
ATOM      7  C   UNL     1      47.231   4.442  14.979  0.00  0.00    +0.000 A 
ATOM      8  N   UNL     1      46.178   4.088  14.171  0.00  0.00    +0.000 NA
ATOM      9  H   UNL     1      44.638   3.642  12.493  0.00  0.00    +0.000 HD
ENDROOT
BRANCH   7  10
ATOM     10  C   UNL     1      47.685   3.357  15.919  0.00  0.00    +0.000 C 
ATOM     11  N   UNL     1      47.013   3.289  17.113  0.00  0.00    +0.000 N 
ATOM     12  O   UNL     1      48.583   2.561  15.687  0.00  0.00    +0.000 OA
ATOM     13  H   UNL     1      46.277   3.952  17.323  0.00  0.00    +0.000 HD
ATOM     14  H   UNL     1      47.281   2.586  17.785  0.00  0.00    +0.000 HD
ENDBRANCH   7  10
BRANCH   1  15
ATOM     15  C   UNL     1      44.466   5.321  11.257  0.00  0.00    +0.000 C 
ATOM     16  C   UNL     1      43.001   5.670  10.967  0.00  0.00    +0.000 C 
BRANCH  15  21
ATOM     17  C   UNL     1      46.421   2.105   6.848  0.00  0.00    +0.000 C 
ATOM     18  C   UNL     1      45.923   2.880   8.026  0.00  0.00    +0.000 A 
ATOM     19  C   UNL     1      45.286   2.262   9.100  0.00  0.00    +0.000 A 
ATOM     20  C   UNL     1      44.824   3.035  10.167  0.00  0.00    +0.000 A 
ATOM     21  C   UNL     1      45.002   4.419  10.137  0.00  0.00    +0.000 A 
ATOM     22  N   UNL     1      45.633   5.033   9.103  0.00  0.00    +0.000 NA
ATOM     23  C   UNL     1      46.069   4.260   8.081  0.00  0.00    +0.000 A 
ENDBRANCH  15  21
ENDBRANCH   1  15
TORSDOF 3
ENDMDL
MODEL 4
REMARK VINA RESULT:    -6.177      3.630      6.595
REMARK INTER + INTRA:          -7.811
REMARK INTER:                  -8.548
REMARK INTRA:                   0.737
REMARK UNBOUND:                -0.550
REMARK  Name = 
REMARK  5 active torsions:
REMARK  status: ('A' for Active; 'I' for Inactive)
REMARK    1  A    between atoms: C_1  and  C_2
REMARK    2  A    between atoms: C_5  and  C_6
REMARK    3  A    between atoms: C_6  and  C_7
REMARK    4  A    between atoms: C_6  and  N_8
REMARK    5  A    between atoms: C_14  and  C_15
REMARK                            x       y       z     vdW  Elec       q    Type
REMARK                         _______ _______ _______ _____ _____    ______ ____
ROOT
ATOM      1  N   UNL     1      44.281   5.730  10.125  0.00  0.00    +0.000 N 
ATOM      2  C   UNL     1      45.156   5.937  11.182  0.00  0.00    +0.000 A 
ATOM      3  N   UNL     1      45.961   4.956  11.601  0.00  0.00    +0.000 NA
ATOM      4  C   UNL     1      46.823   5.235  12.604  0.00  0.00    +0.000 A 
ATOM      5  C   UNL     1      46.931   6.459  13.217  0.00  0.00    +0.000 A 
ATOM      6 CL   UNL     1      48.096   6.662  14.460  0.00  0.00    +0.000 Cl
ATOM      7  C   UNL     1      46.056   7.406  12.730  0.00  0.00    +0.000 A 
ATOM      8  N   UNL     1      45.158   7.163  11.719  0.00  0.00    +0.000 NA
ATOM      9  H   UNL     1      43.538   6.412  10.238  0.00  0.00    +0.000 HD
ENDROOT
BRANCH   7  10
ATOM     10  C   UNL     1      46.016   8.810  13.272  0.00  0.00    +0.000 C 
ATOM     11  N   UNL     1      44.902   9.540  12.942  0.00  0.00    +0.000 N 
ATOM     12  O   UNL     1      46.886   9.317  13.966  0.00  0.00    +0.000 OA
ATOM     13  H   UNL     1      44.182   9.136  12.357  0.00  0.00    +0.000 HD
ATOM     14  H   UNL     1      44.827  10.491  13.272  0.00  0.00    +0.000 HD
ENDBRANCH   7  10
BRANCH   1  15
ATOM     15  C   UNL     1      43.794   4.359   9.926  0.00  0.00    +0.000 C 
ATOM     16  C   UNL     1      43.568   3.639  11.262  0.00  0.00    +0.000 C 
BRANCH  15  21
ATOM     17  C   UNL     1      47.515   1.485   6.534  0.00  0.00    +0.000 C 
ATOM     18  C   UNL     1      46.565   2.180   7.457  0.00  0.00    +0.000 A 
ATOM     19  C   UNL     1      45.869   1.495   8.451  0.00  0.00    +0.000 A 
ATOM     20  C   UNL     1      44.980   2.188   9.276  0.00  0.00    +0.000 A 
ATOM     21  C   UNL     1      44.797   3.559   9.084  0.00  0.00    +0.000 A 
ATOM     22  N   UNL     1      45.479   4.242   8.128  0.00  0.00    +0.000 NA
ATOM     23  C   UNL     1      46.332   3.544   7.342  0.00  0.00    +0.000 A 
ENDBRANCH  15  21
ENDBRANCH   1  15
TORSDOF 3
ENDMDL
MODEL 5
REMARK VINA RESULT:    -6.154      5.726      7.633
REMARK INTER + INTRA:          -7.784
REMARK INTER:                  -7.487
REMARK INTRA:                  -0.297
REMARK UNBOUND:                -0.550
REMARK  Name = 
REMARK  5 active torsions:
REMARK  status: ('A' for Active; 'I' for Inactive)
REMARK    1  A    between atoms: C_1  and  C_2
REMARK    2  A    between atoms: C_5  and  C_6
REMARK    3  A    between atoms: C_6  and  C_7
REMARK    4  A    between atoms: C_6  and  N_8
REMARK    5  A    between atoms: C_14  and  C_15
REMARK                            x       y       z     vdW  Elec       q    Type
REMARK                         _______ _______ _______ _____ _____    ______ ____
ROOT
ATOM      1  N   UNL     1      47.112   3.255  14.165  0.00  0.00    +0.000 N 
ATOM      2  C   UNL     1      47.504   3.427  15.485  0.00  0.00    +0.000 A 
ATOM      3  N   UNL     1      46.664   3.957  16.380  0.00  0.00    +0.000 NA
ATOM      4  C   UNL     1      47.089   4.054  17.659  0.00  0.00    +0.000 A 
ATOM      5  C   UNL     1      48.322   3.642  18.102  0.00  0.00    +0.000 A 
ATOM      6 CL   UNL     1      48.702   3.811  19.766  0.00  0.00    +0.000 Cl
ATOM      7  C   UNL     1      49.125   3.121  17.111  0.00  0.00    +0.000 A 
ATOM      8  N   UNL     1      48.737   3.011  15.797  0.00  0.00    +0.000 NA
ATOM      9  H   UNL     1      47.967   3.230  13.619  0.00  0.00    +0.000 HD
ENDROOT
BRANCH   7  10
ATOM     10  C   UNL     1      50.515   2.617  17.391  0.00  0.00    +0.000 C 
ATOM     11  N   UNL     1      50.732   1.291  17.113  0.00  0.00    +0.000 N 
ATOM     12  O   UNL     1      51.430   3.296  17.835  0.00  0.00    +0.000 OA
ATOM     13  H   UNL     1      49.978   0.714  16.759  0.00  0.00    +0.000 HD
ATOM     14  H   UNL     1      51.644   0.897  17.290  0.00  0.00    +0.000 HD
ENDBRANCH   7  10
BRANCH   1  15
ATOM     15  C   UNL     1      46.110   4.193  13.642  0.00  0.00    +0.000 C 
ATOM     16  C   UNL     1      45.254   3.550  12.543  0.00  0.00    +0.000 C 
BRANCH  15  21
ATOM     17  C   UNL     1      48.880   8.912  11.727  0.00  0.00    +0.000 C 
ATOM     18  C   UNL     1      48.118   7.705  12.173  0.00  0.00    +0.000 A 
ATOM     19  C   UNL     1      46.742   7.589  11.984  0.00  0.00    +0.000 A 
ATOM     20  C   UNL     1      46.076   6.448  12.436  0.00  0.00    +0.000 A 
ATOM     21  C   UNL     1      46.800   5.442  13.079  0.00  0.00    +0.000 A 
ATOM     22  N   UNL     1      48.143   5.536  13.258  0.00  0.00    +0.000 NA
ATOM     23  C   UNL     1      48.763   6.653  12.812  0.00  0.00    +0.000 A 
ENDBRANCH  15  21
ENDBRANCH   1  15
TORSDOF 3
ENDMDL
MODEL 6
REMARK VINA RESULT:    -6.016      4.819      7.164
REMARK INTER + INTRA:          -7.622
REMARK INTER:                  -7.163
REMARK INTRA:                  -0.458
REMARK UNBOUND:                -0.550
REMARK  Name = 
REMARK  5 active torsions:
REMARK  status: ('A' for Active; 'I' for Inactive)
REMARK    1  A    between atoms: C_1  and  C_2
REMARK    2  A    between atoms: C_5  and  C_6
REMARK    3  A    between atoms: C_6  and  C_7
REMARK    4  A    between atoms: C_6  and  N_8
REMARK    5  A    between atoms: C_14  and  C_15
REMARK                            x       y       z     vdW  Elec       q    Type
REMARK                         _______ _______ _______ _____ _____    ______ ____
ROOT
ATOM      1  N   UNL     1      47.944   4.606  16.110  0.00  0.00    +0.000 N 
ATOM      2  C   UNL     1      47.378   4.795  14.857  0.00  0.00    +0.000 A 
ATOM      3  N   UNL     1      46.507   3.910  14.364  0.00  0.00    +0.000 NA
ATOM      4  C   UNL     1      45.956   4.175  13.159  0.00  0.00    +0.000 A 
ATOM      5  C   UNL     1      46.226   5.294  12.410  0.00  0.00    +0.000 A 
ATOM      6 CL   UNL     1      45.423   5.498  10.908  0.00  0.00    +0.000 Cl
ATOM      7  C   UNL     1      47.144   6.144  12.989  0.00  0.00    +0.000 A 
ATOM      8  N   UNL     1      47.734   5.909  14.207  0.00  0.00    +0.000 NA
ATOM      9  H   UNL     1      48.814   5.130  16.108  0.00  0.00    +0.000 HD
ENDROOT
BRANCH   7  10
ATOM     10  C   UNL     1      47.577   7.423  12.325  0.00  0.00    +0.000 C 
ATOM     11  N   UNL     1      46.767   8.509  12.545  0.00  0.00    +0.000 N 
ATOM     12  O   UNL     1      48.574   7.547  11.628  0.00  0.00    +0.000 OA
ATOM     13  H   UNL     1      45.931   8.416  13.109  0.00  0.00    +0.000 HD
ATOM     14  H   UNL     1      47.006   9.391  12.117  0.00  0.00    +0.000 HD
ENDBRANCH   7  10
BRANCH   1  15
ATOM     15  C   UNL     1      48.096   3.219  16.568  0.00  0.00    +0.000 C 
ATOM     16  C   UNL     1      47.152   2.903  17.735  0.00  0.00    +0.000 C 
BRANCH  15  21
ATOM     17  C   UNL     1      53.498   2.002  18.285  0.00  0.00    +0.000 C 
ATOM     18  C   UNL     1      52.121   2.382  17.840  0.00  0.00    +0.000 A 
ATOM     19  C   UNL     1      51.581   3.639  18.105  0.00  0.00    +0.000 A 
ATOM     20  C   UNL     1      50.284   3.937  17.683  0.00  0.00    +0.000 A 
ATOM     21  C   UNL     1      49.544   2.964  17.007  0.00  0.00    +0.000 A 
ATOM     22  N   UNL     1      50.063   1.740  16.730  0.00  0.00    +0.000 NA
ATOM     23  C   UNL     1      51.322   1.478  17.153  0.00  0.00    +0.000 A 
ENDBRANCH  15  21
ENDBRANCH   1  15
TORSDOF 3
ENDMDL
MODEL 7
REMARK VINA RESULT:    -5.976      4.687      6.941
REMARK INTER + INTRA:          -7.574
REMARK INTER:                  -7.006
REMARK INTRA:                  -0.567
REMARK UNBOUND:                -0.550
REMARK  Name = 
REMARK  5 active torsions:
REMARK  status: ('A' for Active; 'I' for Inactive)
REMARK    1  A    between atoms: C_1  and  C_2
REMARK    2  A    between atoms: C_5  and  C_6
REMARK    3  A    between atoms: C_6  and  C_7
REMARK    4  A    between atoms: C_6  and  N_8
REMARK    5  A    between atoms: C_14  and  C_15
REMARK                            x       y       z     vdW  Elec       q    Type
REMARK                         _______ _______ _______ _____ _____    ______ ____
ROOT
ATOM      1  N   UNL     1      47.474   3.664  15.807  0.00  0.00    +0.000 N 
ATOM      2  C   UNL     1      47.036   4.374  14.698  0.00  0.00    +0.000 A 
ATOM      3  N   UNL     1      47.892   5.104  13.976  0.00  0.00    +0.000 NA
ATOM      4  C   UNL     1      47.412   5.734  12.881  0.00  0.00    +0.000 A 
ATOM      5  C   UNL     1      46.107   5.672  12.459  0.00  0.00    +0.000 A 
ATOM      6 CL   UNL     1      45.660   6.510  11.030  0.00  0.00    +0.000 Cl
ATOM      7  C   UNL     1      45.294   4.910  13.269  0.00  0.00    +0.000 A 
ATOM      8  N   UNL     1      45.738   4.259  14.395  0.00  0.00    +0.000 NA
ATOM      9  H   UNL     1      46.659   3.532  16.397  0.00  0.00    +0.000 HD
ENDROOT
BRANCH   7  10
ATOM     10  C   UNL     1      43.830   4.720  12.979  0.00  0.00    +0.000 C 
ATOM     11  N   UNL     1      43.503   3.571  12.304  0.00  0.00    +0.000 N 
ATOM     12  O   UNL     1      42.945   5.501  13.300  0.00  0.00    +0.000 OA
ATOM     13  H   UNL     1      44.227   2.922  12.020  0.00  0.00    +0.000 HD
ATOM     14  H   UNL     1      42.536   3.396  12.076  0.00  0.00    +0.000 HD
ENDBRANCH   7  10
BRANCH   1  15
ATOM     15  C   UNL     1      48.636   4.203  16.525  0.00  0.00    +0.000 C 
ATOM     16  C   UNL     1      49.313   3.132  17.389  0.00  0.00    +0.000 C 
BRANCH  15  21
ATOM     17  C   UNL     1      47.266   8.734  19.872  0.00  0.00    +0.000 C 
ATOM     18  C   UNL     1      47.561   7.536  19.027  0.00  0.00    +0.000 A 
ATOM     19  C   UNL     1      47.027   6.281  19.313  0.00  0.00    +0.000 A 
ATOM     20  C   UNL     1      47.348   5.191  18.501  0.00  0.00    +0.000 A 
ATOM     21  C   UNL     1      48.208   5.376  17.417  0.00  0.00    +0.000 A 
ATOM     22  N   UNL     1      48.724   6.596  17.118  0.00  0.00    +0.000 NA
ATOM     23  C   UNL     1      48.398   7.634  17.922  0.00  0.00    +0.000 A 
ENDBRANCH  15  21
ENDBRANCH   1  15
TORSDOF 3
ENDMDL
MODEL 8
REMARK VINA RESULT:    -5.951      4.086      5.977
REMARK INTER + INTRA:          -7.545
REMARK INTER:                  -7.041
REMARK INTRA:                  -0.504
REMARK UNBOUND:                -0.550
REMARK  Name = 
REMARK  5 active torsions:
REMARK  status: ('A' for Active; 'I' for Inactive)
REMARK    1  A    between atoms: C_1  and  C_2
REMARK    2  A    between atoms: C_5  and  C_6
REMARK    3  A    between atoms: C_6  and  C_7
REMARK    4  A    between atoms: C_6  and  N_8
REMARK    5  A    between atoms: C_14  and  C_15
REMARK                            x       y       z     vdW  Elec       q    Type
REMARK                         _______ _______ _______ _____ _____    ______ ____
ROOT
ATOM      1  N   UNL     1      47.828   5.652  13.398  0.00  0.00    +0.000 N 
ATOM      2  C   UNL     1      46.487   5.654  13.040  0.00  0.00    +0.000 A 
ATOM      3  N   UNL     1      45.808   6.802  12.956  0.00  0.00    +0.000 NA
ATOM      4  C   UNL     1      44.518   6.741  12.557  0.00  0.00    +0.000 A 
ATOM      5  C   UNL     1      43.861   5.581  12.227  0.00  0.00    +0.000 A 
ATOM      6 CL   UNL     1      42.227   5.674  11.712  0.00  0.00    +0.000 Cl
ATOM      7  C   UNL     1      44.633   4.447  12.354  0.00  0.00    +0.000 A 
ATOM      8  N   UNL     1      45.944   4.462  12.764  0.00  0.00    +0.000 NA
ATOM      9  H   UNL     1      48.017   4.728  13.774  0.00  0.00    +0.000 HD
ENDROOT
BRANCH   7  10
ATOM     10  C   UNL     1      44.096   3.076  12.043  0.00  0.00    +0.000 C 
ATOM     11  N   UNL     1      44.415   2.581  10.804  0.00  0.00    +0.000 N 
ATOM     12  O   UNL     1      43.418   2.401  12.805  0.00  0.00    +0.000 OA
ATOM     13  H   UNL     1      44.964   3.136  10.159  0.00  0.00    +0.000 HD
ATOM     14  H   UNL     1      44.074   1.669  10.539  0.00  0.00    +0.000 HD
ENDBRANCH   7  10
BRANCH   1  15
ATOM     15  C   UNL     1      48.285   6.743  14.268  0.00  0.00    +0.000 C 
ATOM     16  C   UNL     1      49.539   7.425  13.706  0.00  0.00    +0.000 C 
BRANCH  15  21
ATOM     17  C   UNL     1      49.199   4.579  19.567  0.00  0.00    +0.000 C 
ATOM     18  C   UNL     1      49.014   5.180  18.211  0.00  0.00    +0.000 A 
ATOM     19  C   UNL     1      49.390   6.492  17.928  0.00  0.00    +0.000 A 
ATOM     20  C   UNL     1      49.180   7.011  16.649  0.00  0.00    +0.000 A 
ATOM     21  C   UNL     1      48.588   6.207  15.673  0.00  0.00    +0.000 A 
ATOM     22  N   UNL     1      48.229   4.923  15.931  0.00  0.00    +0.000 NA
ATOM     23  C   UNL     1      48.442   4.446  17.179  0.00  0.00    +0.000 A 
ENDBRANCH  15  21
ENDBRANCH   1  15
TORSDOF 3
ENDMDL
MODEL 9
REMARK VINA RESULT:    -5.812      4.653      7.691
REMARK INTER + INTRA:          -7.381
REMARK INTER:                  -6.940
REMARK INTRA:                  -0.441
REMARK UNBOUND:                -0.550
REMARK  Name = 
REMARK  5 active torsions:
REMARK  status: ('A' for Active; 'I' for Inactive)
REMARK    1  A    between atoms: C_1  and  C_2
REMARK    2  A    between atoms: C_5  and  C_6
REMARK    3  A    between atoms: C_6  and  C_7
REMARK    4  A    between atoms: C_6  and  N_8
REMARK    5  A    between atoms: C_14  and  C_15
REMARK                            x       y       z     vdW  Elec       q    Type
REMARK                         _______ _______ _______ _____ _____    ______ ____
ROOT
ATOM      1  N   UNL     1      46.107   5.234  14.013  0.00  0.00    +0.000 N 
ATOM      2  C   UNL     1      47.214   5.336  14.843  0.00  0.00    +0.000 A 
ATOM      3  N   UNL     1      47.978   6.433  14.825  0.00  0.00    +0.000 NA
ATOM      4  C   UNL     1      49.014   6.491  15.691  0.00  0.00    +0.000 A 
ATOM      5  C   UNL     1      49.331   5.503  16.590  0.00  0.00    +0.000 A 
ATOM      6 CL   UNL     1      50.666   5.739  17.642  0.00  0.00    +0.000 Cl
ATOM      7  C   UNL     1      48.500   4.406  16.530  0.00  0.00    +0.000 A 
ATOM      8  N   UNL     1      47.441   4.301  15.660  0.00  0.00    +0.000 NA
ATOM      9  H   UNL     1      45.933   4.240  13.898  0.00  0.00    +0.000 HD
ENDROOT
BRANCH   7  10
ATOM     10  C   UNL     1      48.682   3.214  17.431  0.00  0.00    +0.000 C 
ATOM     11  N   UNL     1      47.983   3.251  18.611  0.00  0.00    +0.000 N 
ATOM     12  O   UNL     1      49.391   2.250  17.180  0.00  0.00    +0.000 OA
ATOM     13  H   UNL     1      47.404   4.050  18.836  0.00  0.00    +0.000 HD
ATOM     14  H   UNL     1      48.075   2.481  19.257  0.00  0.00    +0.000 HD
ENDBRANCH   7  10
BRANCH   1  15
ATOM     15  C   UNL     1      46.158   5.970  12.743  0.00  0.00    +0.000 C 
ATOM     16  C   UNL     1      45.286   7.232  12.788  0.00  0.00    +0.000 C 
BRANCH  15  21
ATOM     17  C   UNL     1      44.493   2.365   8.520  0.00  0.00    +0.000 C 
ATOM     18  C   UNL     1      44.905   3.348   9.570  0.00  0.00    +0.000 A 
ATOM     19  C   UNL     1      45.318   4.639   9.250  0.00  0.00    +0.000 A 
ATOM     20  C   UNL     1      45.710   5.512  10.267  0.00  0.00    +0.000 A 
ATOM     21  C   UNL     1      45.688   5.072  11.592  0.00  0.00    +0.000 A 
ATOM     22  N   UNL     1      45.274   3.820  11.920  0.00  0.00    +0.000 NA
ATOM     23  C   UNL     1      44.903   2.995  10.913  0.00  0.00    +0.000 A 
ENDBRANCH  15  21
ENDBRANCH   1  15
TORSDOF 3
ENDMDL
