MODEL 1
REMARK VINA RESULT:    -8.190      0.000      0.000
REMARK INTER + INTRA:         -10.561
REMARK INTER:                 -10.105
REMARK INTRA:                  -0.457
REMARK UNBOUND:                -0.457
REMARK  Name = 
REMARK  4 active torsions:
REMARK  status: ('A' for Active; 'I' for Inactive)
REMARK    1  A    between atoms: C_2  and  C_3
REMARK    2  A    between atoms: C_6  and  C_7
REMARK    3  A    between atoms: C_7  and  N_8
REMARK    4  A    between atoms: C_13  and  C_14
REMARK                            x       y       z     vdW  Elec       q    Type
REMARK                         _______ _______ _______ _____ _____    ______ ____
ROOT
ATOM      1  N   UNL     1      44.702   4.142  11.559  0.00  0.00    +0.000 N 
ATOM      2  C   UNL     1      45.152   3.268  12.513  0.00  0.00    +0.000 A 
ATOM      3  N   UNL     1      45.865   3.873  13.441  0.00  0.00    +0.000 NA
ATOM      4  C   UNL     1      45.893   5.190  13.059  0.00  0.00    +0.000 A 
ATOM      5  C   UNL     1      46.540   6.294  13.629  0.00  0.00    +0.000 A 
ATOM      6  C   UNL     1      46.404   7.523  12.974  0.00  0.00    +0.000 A 
ATOM      7  C   UNL     1      45.634   7.579  11.806  0.00  0.00    +0.000 A 
ATOM      8  N   UNL     1      44.982   6.537  11.218  0.00  0.00    +0.000 NA
ATOM      9  C   UNL     1      45.163   5.386  11.892  0.00  0.00    +0.000 A 
ENDROOT
BRANCH   6  10
ATOM     10  C   UNL     1      47.050   8.772  13.442  0.00  0.00    +0.000 C 
ATOM     11  N   UNL     1      47.273   8.932  14.781  0.00  0.00    +0.000 N 
ATOM     12  O   UNL     1      47.387   9.647  12.651  0.00  0.00    +0.000 OA
ATOM     13  H   UNL     1      47.024   8.275  15.502  0.00  0.00    +0.000 HD
ATOM     14  H   UNL     1      47.706   9.801  15.073  0.00  0.00    +0.000 HD
ENDBRANCH   6  10
BRANCH   1  15
ATOM     15  C   UNL     1      44.030   3.787  10.322  0.00  0.00    +0.000 C 
BRANCH  15  19
ATOM     16  C   UNL     1      46.784   2.507   7.235  0.00  0.00    +0.000 A 
ATOM     17  C   UNL     1      46.494   3.864   7.392  0.00  0.00    +0.000 A 
ATOM     18  C   UNL     1      45.613   4.288   8.393  0.00  0.00    +0.000 A 
ATOM     19  C   UNL     1      44.986   3.355   9.234  0.00  0.00    +0.000 A 
ATOM     20  C   UNL     1      45.295   1.993   9.075  0.00  0.00    +0.000 A 
ATOM     21  C   UNL     1      46.186   1.572   8.085  0.00  0.00    +0.000 A 
BRANCH  16  23
ATOM     22  N   UNL     1      48.428   1.732   5.388  0.00  0.00    +0.000 NA
ATOM     23  C   UNL     1      47.692   2.078   6.214  0.00  0.00    +0.000 C 
ENDBRANCH  16  23
ENDBRANCH  15  19
ENDBRANCH   1  15
TORSDOF 4
ENDMDL
MODEL 2
REMARK VINA RESULT:    -7.947      2.119      2.829
REMARK INTER + INTRA:         -10.262
REMARK INTER:                  -9.819
REMARK INTRA:                  -0.442
REMARK UNBOUND:                -0.457
REMARK  Name = 
REMARK  4 active torsions:
REMARK  status: ('A' for Active; 'I' for Inactive)
REMARK    1  A    between atoms: C_2  and  C_3
REMARK    2  A    between atoms: C_6  and  C_7
REMARK    3  A    between atoms: C_7  and  N_8
REMARK    4  A    between atoms: C_13  and  C_14
REMARK                            x       y       z     vdW  Elec       q    Type
REMARK                         _______ _______ _______ _____ _____    ______ ____
ROOT
ATOM      1  N   UNL     1      44.545   4.881  11.267  0.00  0.00    +0.000 N 
ATOM      2  C   UNL     1      44.258   6.216  11.377  0.00  0.00    +0.000 A 
ATOM      3  N   UNL     1      44.843   6.763  12.421  0.00  0.00    +0.000 NA
ATOM      4  C   UNL     1      45.520   5.733  13.024  0.00  0.00    +0.000 A 
ATOM      5  C   UNL     1      46.280   5.703  14.200  0.00  0.00    +0.000 A 
ATOM      6  C   UNL     1      46.824   4.471  14.579  0.00  0.00    +0.000 A 
ATOM      7  C   UNL     1      46.587   3.355  13.766  0.00  0.00    +0.000 A 
ATOM      8  N   UNL     1      45.861   3.336  12.613  0.00  0.00    +0.000 NA
ATOM      9  C   UNL     1      45.360   4.549  12.314  0.00  0.00    +0.000 A 
ENDROOT
BRANCH   6  10
ATOM     10  C   UNL     1      47.628   4.277  15.809  0.00  0.00    +0.000 C 
ATOM     11  N   UNL     1      47.590   5.243  16.775  0.00  0.00    +0.000 N 
ATOM     12  O   UNL     1      48.313   3.272  15.967  0.00  0.00    +0.000 OA
ATOM     13  H   UNL     1      47.066   6.102  16.728  0.00  0.00    +0.000 HD
ATOM     14  H   UNL     1      48.158   5.089  17.600  0.00  0.00    +0.000 HD
ENDBRANCH   6  10
BRANCH   1  15
ATOM     15  C   UNL     1      43.941   3.950  10.331  0.00  0.00    +0.000 C 
BRANCH  15  19
ATOM     16  C   UNL     1      46.723   2.523   7.334  0.00  0.00    +0.000 A 
ATOM     17  C   UNL     1      46.453   3.890   7.440  0.00  0.00    +0.000 A 
ATOM     18  C   UNL     1      45.562   4.361   8.412  0.00  0.00    +0.000 A 
ATOM     19  C   UNL     1      44.907   3.467   9.273  0.00  0.00    +0.000 A 
ATOM     20  C   UNL     1      45.196   2.095   9.165  0.00  0.00    +0.000 A 
ATOM     21  C   UNL     1      46.095   1.628   8.204  0.00  0.00    +0.000 A 
BRANCH  16  23
ATOM     22  N   UNL     1      48.381   1.661   5.539  0.00  0.00    +0.000 NA
ATOM     23  C   UNL     1      47.639   2.046   6.342  0.00  0.00    +0.000 C 
ENDBRANCH  16  23
ENDBRANCH  15  19
ENDBRANCH   1  15
TORSDOF 4
ENDMDL
MODEL 3
REMARK VINA RESULT:    -7.402      2.729      6.879
REMARK INTER + INTRA:          -9.589
REMARK INTER:                  -9.302
REMARK INTRA:                  -0.288
REMARK UNBOUND:                -0.457
REMARK  Name = 
REMARK  4 active torsions:
REMARK  status: ('A' for Active; 'I' for Inactive)
REMARK    1  A    between atoms: C_2  and  C_3
REMARK    2  A    between atoms: C_6  and  C_7
REMARK    3  A    between atoms: C_7  and  N_8
REMARK    4  A    between atoms: C_13  and  C_14
REMARK                            x       y       z     vdW  Elec       q    Type
REMARK                         _______ _______ _______ _____ _____    ______ ____
ROOT
ATOM      1  N   UNL     1      44.083   4.400  10.401  0.00  0.00    +0.000 N 
ATOM      2  C   UNL     1      43.493   3.309  10.982  0.00  0.00    +0.000 A 
ATOM      3  N   UNL     1      43.950   2.178  10.487  0.00  0.00    +0.000 NA
ATOM      4  C   UNL     1      44.859   2.554   9.531  0.00  0.00    +0.000 A 
ATOM      5  C   UNL     1      45.623   1.787   8.643  0.00  0.00    +0.000 A 
ATOM      6  C   UNL     1      46.447   2.477   7.747  0.00  0.00    +0.000 A 
ATOM      7  C   UNL     1      46.465   3.877   7.794  0.00  0.00    +0.000 A 
ATOM      8  N   UNL     1      45.746   4.665   8.642  0.00  0.00    +0.000 NA
ATOM      9  C   UNL     1      44.969   3.939   9.467  0.00  0.00    +0.000 A 
ENDROOT
BRANCH   6  10
ATOM     10  C   UNL     1      47.293   1.805   6.733  0.00  0.00    +0.000 C 
ATOM     11  N   UNL     1      48.315   2.509   6.160  0.00  0.00    +0.000 N 
ATOM     12  O   UNL     1      47.091   0.638   6.411  0.00  0.00    +0.000 OA
ATOM     13  H   UNL     1      48.549   3.469   6.354  0.00  0.00    +0.000 HD
ATOM     14  H   UNL     1      48.869   2.027   5.462  0.00  0.00    +0.000 HD
ENDBRANCH   6  10
BRANCH   1  15
ATOM     15  C   UNL     1      43.700   5.786  10.599  0.00  0.00    +0.000 C 
BRANCH  15  19
ATOM     16  C   UNL     1      46.515   7.945  13.083  0.00  0.00    +0.000 A 
ATOM     17  C   UNL     1      45.621   8.647  12.271  0.00  0.00    +0.000 A 
ATOM     18  C   UNL     1      44.701   7.958  11.472  0.00  0.00    +0.000 A 
ATOM     19  C   UNL     1      44.683   6.554  11.452  0.00  0.00    +0.000 A 
ATOM     20  C   UNL     1      45.580   5.859  12.283  0.00  0.00    +0.000 A 
ATOM     21  C   UNL     1      46.487   6.548  13.090  0.00  0.00    +0.000 A 
BRANCH  16  23
ATOM     22  N   UNL     1      48.208   9.227  14.568  0.00  0.00    +0.000 NA
ATOM     23  C   UNL     1      47.450   8.654  13.903  0.00  0.00    +0.000 C 
ENDBRANCH  16  23
ENDBRANCH  15  19
ENDBRANCH   1  15
TORSDOF 4
ENDMDL
MODEL 4
REMARK VINA RESULT:    -6.010      4.651      7.588
REMARK INTER + INTRA:          -7.872
REMARK INTER:                  -7.827
REMARK INTRA:                  -0.045
REMARK UNBOUND:                -0.457
REMARK  Name = 
REMARK  4 active torsions:
REMARK  status: ('A' for Active; 'I' for Inactive)
REMARK    1  A    between atoms: C_2  and  C_3
REMARK    2  A    between atoms: C_6  and  C_7
REMARK    3  A    between atoms: C_7  and  N_8
REMARK    4  A    between atoms: C_13  and  C_14
REMARK                            x       y       z     vdW  Elec       q    Type
REMARK                         _______ _______ _______ _____ _____    ______ ____
ROOT
ATOM      1  N   UNL     1      47.339   5.009  15.263  0.00  0.00    +0.000 N 
ATOM      2  C   UNL     1      48.227   6.046  15.150  0.00  0.00    +0.000 A 
ATOM      3  N   UNL     1      48.150   6.638  13.976  0.00  0.00    +0.000 NA
ATOM      4  C   UNL     1      47.185   5.941  13.294  0.00  0.00    +0.000 A 
ATOM      5  C   UNL     1      46.709   6.081  11.985  0.00  0.00    +0.000 A 
ATOM      6  C   UNL     1      45.727   5.178  11.560  0.00  0.00    +0.000 A 
ATOM      7  C   UNL     1      45.277   4.205  12.461  0.00  0.00    +0.000 A 
ATOM      8  N   UNL     1      45.704   4.033  13.744  0.00  0.00    +0.000 NA
ATOM      9  C   UNL     1      46.653   4.926  14.082  0.00  0.00    +0.000 A 
ENDROOT
BRANCH   6  10
ATOM     10  C   UNL     1      45.147   5.186  10.197  0.00  0.00    +0.000 C 
ATOM     11  N   UNL     1      43.796   5.026  10.058  0.00  0.00    +0.000 N 
ATOM     12  O   UNL     1      45.856   5.336   9.207  0.00  0.00    +0.000 OA
ATOM     13  H   UNL     1      43.140   4.888  10.810  0.00  0.00    +0.000 HD
ATOM     14  H   UNL     1      43.429   5.024   9.114  0.00  0.00    +0.000 HD
ENDBRANCH   6  10
BRANCH   1  15
ATOM     15  C   UNL     1      47.272   4.054  16.354  0.00  0.00    +0.000 C 
BRANCH  15  19
ATOM     16  C   UNL     1      51.153   2.627  17.641  0.00  0.00    +0.000 A 
ATOM     17  C   UNL     1      50.748   3.927  17.957  0.00  0.00    +0.000 A 
ATOM     18  C   UNL     1      49.492   4.393  17.553  0.00  0.00    +0.000 A 
ATOM     19  C   UNL     1      48.634   3.575  16.802  0.00  0.00    +0.000 A 
ATOM     20  C   UNL     1      49.048   2.265  16.500  0.00  0.00    +0.000 A 
ATOM     21  C   UNL     1      50.296   1.796  16.916  0.00  0.00    +0.000 A 
BRANCH  16  23
ATOM     22  N   UNL     1      53.477   1.767  18.400  0.00  0.00    +0.000 NA
ATOM     23  C   UNL     1      52.437   2.152  18.061  0.00  0.00    +0.000 C 
ENDBRANCH  16  23
ENDBRANCH  15  19
ENDBRANCH   1  15
TORSDOF 4
ENDMDL
MODEL 5
REMARK VINA RESULT:    -5.785      3.513      6.708
REMARK INTER + INTRA:          -7.594
REMARK INTER:                  -7.132
REMARK INTRA:                  -0.462
REMARK UNBOUND:                -0.457
REMARK  Name = 
REMARK  4 active torsions:
REMARK  status: ('A' for Active; 'I' for Inactive)
REMARK    1  A    between atoms: C_2  and  C_3
REMARK    2  A    between atoms: C_6  and  C_7
REMARK    3  A    between atoms: C_7  and  N_8
REMARK    4  A    between atoms: C_13  and  C_14
REMARK                            x       y       z     vdW  Elec       q    Type
REMARK                         _______ _______ _______ _____ _____    ______ ____
ROOT
ATOM      1  N   UNL     1      46.032   7.702  12.847  0.00  0.00    +0.000 N 
ATOM      2  C   UNL     1      45.294   8.558  12.073  0.00  0.00    +0.000 A 
ATOM      3  N   UNL     1      44.419   7.918  11.325  0.00  0.00    +0.000 NA
ATOM      4  C   UNL     1      44.614   6.591  11.614  0.00  0.00    +0.000 A 
ATOM      5  C   UNL     1      44.009   5.443  11.088  0.00  0.00    +0.000 A 
ATOM      6  C   UNL     1      44.457   4.207  11.569  0.00  0.00    +0.000 A 
ATOM      7  C   UNL     1      45.466   4.191  12.540  0.00  0.00    +0.000 A 
ATOM      8  N   UNL     1      46.079   5.279  13.085  0.00  0.00    +0.000 NA
ATOM      9  C   UNL     1      45.609   6.431  12.572  0.00  0.00    +0.000 A 
ENDROOT
BRANCH   6  10
ATOM     10  C   UNL     1      43.931   2.906  11.090  0.00  0.00    +0.000 C 
ATOM     11  N   UNL     1      44.529   2.315  10.012  0.00  0.00    +0.000 N 
ATOM     12  O   UNL     1      42.983   2.362  11.647  0.00  0.00    +0.000 OA
ATOM     13  H   UNL     1      45.303   2.690   9.489  0.00  0.00    +0.000 HD
ATOM     14  H   UNL     1      44.141   1.432   9.701  0.00  0.00    +0.000 HD
ENDBRANCH   6  10
BRANCH   1  15
ATOM     15  C   UNL     1      47.181   8.059  13.660  0.00  0.00    +0.000 C 
BRANCH  15  19
ATOM     16  C   UNL     1      50.658   9.084  11.291  0.00  0.00    +0.000 A 
ATOM     17  C   UNL     1      50.283   7.746  11.436  0.00  0.00    +0.000 A 
ATOM     18  C   UNL     1      49.155   7.406  12.192  0.00  0.00    +0.000 A 
ATOM     19  C   UNL     1      48.403   8.399  12.838  0.00  0.00    +0.000 A 
ATOM     20  C   UNL     1      48.783   9.743  12.675  0.00  0.00    +0.000 A 
ATOM     21  C   UNL     1      49.900  10.083  11.908  0.00  0.00    +0.000 A 
BRANCH  16  23
ATOM     22  N   UNL     1      52.740   9.708   9.880  0.00  0.00    +0.000 NA
ATOM     23  C   UNL     1      51.809   9.428  10.511  0.00  0.00    +0.000 C 
ENDBRANCH  16  23
ENDBRANCH  15  19
ENDBRANCH   1  15
TORSDOF 4
ENDMDL
MODEL 6
REMARK VINA RESULT:    -5.748      3.602      6.485
REMARK INTER + INTRA:          -7.549
REMARK INTER:                  -7.340
REMARK INTRA:                  -0.209
REMARK UNBOUND:                -0.457
REMARK  Name = 
REMARK  4 active torsions:
REMARK  status: ('A' for Active; 'I' for Inactive)
REMARK    1  A    between atoms: C_2  and  C_3
REMARK    2  A    between atoms: C_6  and  C_7
REMARK    3  A    between atoms: C_7  and  N_8
REMARK    4  A    between atoms: C_13  and  C_14
REMARK                            x       y       z     vdW  Elec       q    Type
REMARK                         _______ _______ _______ _____ _____    ______ ____
ROOT
ATOM      1  N   UNL     1      47.257   6.698  13.327  0.00  0.00    +0.000 N 
ATOM      2  C   UNL     1      47.737   5.958  14.375  0.00  0.00    +0.000 A 
ATOM      3  N   UNL     1      47.309   4.713  14.339  0.00  0.00    +0.000 NA
ATOM      4  C   UNL     1      46.502   4.652  13.231  0.00  0.00    +0.000 A 
ATOM      5  C   UNL     1      45.734   3.599  12.717  0.00  0.00    +0.000 A 
ATOM      6  C   UNL     1      44.975   3.862  11.571  0.00  0.00    +0.000 A 
ATOM      7  C   UNL     1      45.032   5.143  11.008  0.00  0.00    +0.000 A 
ATOM      8  N   UNL     1      45.767   6.195  11.467  0.00  0.00    +0.000 NA
ATOM      9  C   UNL     1      46.463   5.876  12.574  0.00  0.00    +0.000 A 
ENDROOT
BRANCH   6  10
ATOM     10  C   UNL     1      44.095   2.858  10.928  0.00  0.00    +0.000 C 
ATOM     11  N   UNL     1      44.561   2.184   9.833  0.00  0.00    +0.000 N 
ATOM     12  O   UNL     1      42.972   2.626  11.365  0.00  0.00    +0.000 OA
ATOM     13  H   UNL     1      45.461   2.314   9.401  0.00  0.00    +0.000 HD
ATOM     14  H   UNL     1      43.933   1.512   9.408  0.00  0.00    +0.000 HD
ENDBRANCH   6  10
BRANCH   1  15
ATOM     15  C   UNL     1      47.402   8.132  13.154  0.00  0.00    +0.000 C 
BRANCH  15  19
ATOM     16  C   UNL     1      50.984   9.172  10.953  0.00  0.00    +0.000 A 
ATOM     17  C   UNL     1      50.067  10.167  11.304  0.00  0.00    +0.000 A 
ATOM     18  C   UNL     1      48.912   9.841  12.023  0.00  0.00    +0.000 A 
ATOM     19  C   UNL     1      48.643   8.510  12.377  0.00  0.00    +0.000 A 
ATOM     20  C   UNL     1      49.578   7.520  12.030  0.00  0.00    +0.000 A 
ATOM     21  C   UNL     1      50.738   7.848  11.324  0.00  0.00    +0.000 A 
BRANCH  16  23
ATOM     22  N   UNL     1      53.126   9.786   9.630  0.00  0.00    +0.000 NA
ATOM     23  C   UNL     1      52.168   9.511  10.222  0.00  0.00    +0.000 C 
ENDBRANCH  16  23
ENDBRANCH  15  19
ENDBRANCH   1  15
TORSDOF 4
ENDMDL
MODEL 7
REMARK VINA RESULT:    -5.397      4.802      7.033
REMARK INTER + INTRA:          -7.116
REMARK INTER:                  -6.669
REMARK INTRA:                  -0.447
REMARK UNBOUND:                -0.457
REMARK  Name = 
REMARK  4 active torsions:
REMARK  status: ('A' for Active; 'I' for Inactive)
REMARK    1  A    between atoms: C_2  and  C_3
REMARK    2  A    between atoms: C_6  and  C_7
REMARK    3  A    between atoms: C_7  and  N_8
REMARK    4  A    between atoms: C_13  and  C_14
REMARK                            x       y       z     vdW  Elec       q    Type
REMARK                         _______ _______ _______ _____ _____    ______ ____
ROOT
ATOM      1  N   UNL     1      48.801   7.385  15.199  0.00  0.00    +0.000 N 
ATOM      2  C   UNL     1      48.529   8.638  15.682  0.00  0.00    +0.000 A 
ATOM      3  N   UNL     1      48.518   8.670  16.999  0.00  0.00    +0.000 NA
ATOM      4  C   UNL     1      48.775   7.378  17.383  0.00  0.00    +0.000 A 
ATOM      5  C   UNL     1      48.836   6.798  18.656  0.00  0.00    +0.000 A 
ATOM      6  C   UNL     1      49.087   5.422  18.720  0.00  0.00    +0.000 A 
ATOM      7  C   UNL     1      49.266   4.716  17.524  0.00  0.00    +0.000 A 
ATOM      8  N   UNL     1      49.222   5.236  16.265  0.00  0.00    +0.000 NA
ATOM      9  C   UNL     1      48.968   6.558  16.276  0.00  0.00    +0.000 A 
ENDROOT
BRANCH   6  10
ATOM     10  C   UNL     1      49.155   4.664  19.992  0.00  0.00    +0.000 C 
ATOM     11  N   UNL     1      48.395   3.536  20.124  0.00  0.00    +0.000 N 
ATOM     12  O   UNL     1      49.879   5.032  20.911  0.00  0.00    +0.000 OA
ATOM     13  H   UNL     1      47.766   3.165  19.430  0.00  0.00    +0.000 HD
ATOM     14  H   UNL     1      48.453   3.045  21.009  0.00  0.00    +0.000 HD
ENDBRANCH   6  10
BRANCH   1  15
ATOM     15  C   UNL     1      48.731   6.970  13.810  0.00  0.00    +0.000 C 
BRANCH  15  19
ATOM     16  C   UNL     1      44.704   5.980  12.565  0.00  0.00    +0.000 A 
ATOM     17  C   UNL     1      45.499   5.013  13.186  0.00  0.00    +0.000 A 
ATOM     18  C   UNL     1      46.798   5.327  13.601  0.00  0.00    +0.000 A 
ATOM     19  C   UNL     1      47.331   6.606  13.373  0.00  0.00    +0.000 A 
ATOM     20  C   UNL     1      46.517   7.573  12.757  0.00  0.00    +0.000 A 
ATOM     21  C   UNL     1      45.216   7.263  12.357  0.00  0.00    +0.000 A 
BRANCH  16  23
ATOM     22  N   UNL     1      42.294   5.393  11.813  0.00  0.00    +0.000 NA
ATOM     23  C   UNL     1      43.372   5.656  12.148  0.00  0.00    +0.000 C 
ENDBRANCH  16  23
ENDBRANCH  15  19
ENDBRANCH   1  15
TORSDOF 4
ENDMDL
