MODEL 1
REMARK VINA RESULT:    -8.698      0.000      0.000
REMARK INTER + INTRA:         -12.073
REMARK INTER:                 -11.240
REMARK INTRA:                  -0.833
REMARK UNBOUND:                -0.833
REMARK  Name = 
REMARK  5 active torsions:
REMARK  status: ('A' for Active; 'I' for Inactive)
REMARK    1  A    between atoms: C_2  and  C_4
REMARK    2  A    between atoms: C_7  and  N_8
REMARK    3  A    between atoms: N_8  and  C_9
REMARK    4  A    between atoms: C_9  and  C_10
REMARK    5  A    between atoms: C_15  and  C_16
REMARK                            x       y       z     vdW  Elec       q    Type
REMARK                         _______ _______ _______ _____ _____    ______ ____
ROOT
ATOM      1  C   UNL     1      43.923   4.958  11.319  0.00  0.00    +0.000 C 
ATOM      2  C   UNL     1      43.054   3.827  11.843  0.00  0.00    +0.000 C 
ATOM      3  C   UNL     1      42.551   5.230  11.916  0.00  0.00    +0.000 C 
ENDROOT
BRANCH   1   4
ATOM      4  C   UNL     1      45.133   5.454  12.108  0.00  0.00    +0.000 A 
ATOM      5  C   UNL     1      45.771   4.641  13.051  0.00  0.00    +0.000 A 
ATOM      6  C   UNL     1      46.927   5.064  13.702  0.00  0.00    +0.000 A 
ATOM      7  C   UNL     1      47.476   6.326  13.442  0.00  0.00    +0.000 A 
ATOM      8 CL   UNL     1      48.859   6.732  14.404  0.00  0.00    +0.000 Cl
ATOM      9  C   UNL     1      46.892   7.195  12.494  0.00  0.00    +0.000 A 
ATOM     10  C   UNL     1      45.713   6.720  11.855  0.00  0.00    +0.000 A 
BRANCH   9  11
ATOM     11  C   UNL     1      47.435   8.533  12.126  0.00  0.00    +0.000 A 
ATOM     12  C   UNL     1      48.739   8.731  11.645  0.00  0.00    +0.000 A 
ATOM     13  C   UNL     1      49.216  10.007  11.340  0.00  0.00    +0.000 A 
ATOM     14  C   UNL     1      48.356  11.077  11.471  0.00  0.00    +0.000 A 
ATOM     15  N   UNL     1      47.081  10.953  11.889  0.00  0.00    +0.000 NA
ATOM     16  C   UNL     1      46.664   9.700  12.212  0.00  0.00    +0.000 A 
ENDBRANCH   9  11
ENDBRANCH   1   4
BRANCH   1  17
ATOM     17  N   UNL     1      44.104   5.075   9.865  0.00  0.00    +0.000 N 
ATOM     18  H   UNL     1      43.535   5.737   9.346  0.00  0.00    +0.000 HD
BRANCH  17  22
ATOM     19  C   UNL     1      46.634   2.696   7.635  0.00  0.00    +0.000 A 
ATOM     20  N   UNL     1      45.780   2.056   8.464  0.00  0.00    +0.000 NA
ATOM     21  C   UNL     1      44.973   2.862   9.187  0.00  0.00    +0.000 A 
ATOM     22  C   UNL     1      44.941   4.247   9.113  0.00  0.00    +0.000 A 
ATOM     23  C   UNL     1      45.906   4.763   8.259  0.00  0.00    +0.000 A 
ATOM     24  N   UNL     1      46.750   4.031   7.504  0.00  0.00    +0.000 NA
BRANCH  19  26
ATOM     25  N   UNL     1      48.572   2.435   6.169  0.00  0.00    +0.000 N 
ATOM     26  C   UNL     1      47.496   1.815   6.754  0.00  0.00    +0.000 C 
ATOM     27  O   UNL     1      47.289   0.620   6.570  0.00  0.00    +0.000 OA
ATOM     28  H   UNL     1      49.193   1.884   5.590  0.00  0.00    +0.000 HD
ATOM     29  H   UNL     1      48.755   3.419   6.346  0.00  0.00    +0.000 HD
ENDBRANCH  19  26
ENDBRANCH  17  22
ENDBRANCH   1  17
TORSDOF 5
ENDMDL
MODEL 2
REMARK VINA RESULT:    -8.681      2.065      3.728
REMARK INTER + INTRA:         -12.052
REMARK INTER:                 -11.384
REMARK INTRA:                  -0.668
REMARK UNBOUND:                -0.833
REMARK  Name = 
REMARK  5 active torsions:
REMARK  status: ('A' for Active; 'I' for Inactive)
REMARK    1  A    between atoms: C_2  and  C_4
REMARK    2  A    between atoms: C_7  and  N_8
REMARK    3  A    between atoms: N_8  and  C_9
REMARK    4  A    between atoms: C_9  and  C_10
REMARK    5  A    between atoms: C_15  and  C_16
REMARK                            x       y       z     vdW  Elec       q    Type
REMARK                         _______ _______ _______ _____ _____    ______ ____
ROOT
ATOM      1  C   UNL     1      43.877   4.950  11.393  0.00  0.00    +0.000 C 
ATOM      2  C   UNL     1      43.018   4.026  12.239  0.00  0.00    +0.000 C 
ATOM      3  C   UNL     1      42.639   5.463  12.110  0.00  0.00    +0.000 C 
ENDROOT
BRANCH   1   4
ATOM      4  C   UNL     1      45.228   5.452  11.898  0.00  0.00    +0.000 A 
ATOM      5  C   UNL     1      45.893   6.510  11.272  0.00  0.00    +0.000 A 
ATOM      6  C   UNL     1      47.080   7.023  11.790  0.00  0.00    +0.000 A 
ATOM      7  C   UNL     1      47.651   6.481  12.947  0.00  0.00    +0.000 A 
ATOM      8 CL   UNL     1      49.173   7.173  13.404  0.00  0.00    +0.000 Cl
ATOM      9  C   UNL     1      47.028   5.418  13.640  0.00  0.00    +0.000 A 
ATOM     10  C   UNL     1      45.819   4.928  13.073  0.00  0.00    +0.000 A 
BRANCH   9  11
ATOM     11  C   UNL     1      47.543   4.814  14.901  0.00  0.00    +0.000 A 
ATOM     12  C   UNL     1      48.046   5.570  15.971  0.00  0.00    +0.000 A 
ATOM     13  C   UNL     1      48.545   4.960  17.122  0.00  0.00    +0.000 A 
ATOM     14  C   UNL     1      48.487   3.584  17.214  0.00  0.00    +0.000 A 
ATOM     15  N   UNL     1      47.981   2.801  16.241  0.00  0.00    +0.000 NA
ATOM     16  C   UNL     1      47.538   3.429  15.119  0.00  0.00    +0.000 A 
ENDBRANCH   9  11
ENDBRANCH   1   4
BRANCH   1  17
ATOM     17  N   UNL     1      43.840   4.786   9.933  0.00  0.00    +0.000 N 
ATOM     18  H   UNL     1      43.106   5.245   9.401  0.00  0.00    +0.000 HD
BRANCH  17  22
ATOM     19  C   UNL     1      46.409   2.351   7.812  0.00  0.00    +0.000 A 
ATOM     20  N   UNL     1      45.595   1.739   8.700  0.00  0.00    +0.000 NA
ATOM     21  C   UNL     1      44.773   2.563   9.385  0.00  0.00    +0.000 A 
ATOM     22  C   UNL     1      44.691   3.938   9.220  0.00  0.00    +0.000 A 
ATOM     23  C   UNL     1      45.620   4.429   8.313  0.00  0.00    +0.000 A 
ATOM     24  N   UNL     1      46.475   3.676   7.590  0.00  0.00    +0.000 NA
BRANCH  19  26
ATOM     25  N   UNL     1      48.412   2.025   6.449  0.00  0.00    +0.000 N 
ATOM     26  C   UNL     1      47.285   1.442   6.973  0.00  0.00    +0.000 C 
ATOM     27  O   UNL     1      47.045   0.256   6.772  0.00  0.00    +0.000 OA
ATOM     28  H   UNL     1      49.043   1.454   5.901  0.00  0.00    +0.000 HD
ATOM     29  H   UNL     1      48.620   3.001   6.641  0.00  0.00    +0.000 HD
ENDBRANCH  19  26
ENDBRANCH  17  22
ENDBRANCH   1  17
TORSDOF 5
ENDMDL
MODEL 3
REMARK VINA RESULT:    -8.083      1.803      2.388
REMARK INTER + INTRA:         -11.278
REMARK INTER:                 -10.474
REMARK INTRA:                  -0.804
REMARK UNBOUND:                -0.833
REMARK  Name = 
REMARK  5 active torsions:
REMARK  status: ('A' for Active; 'I' for Inactive)
REMARK    1  A    between atoms: C_2  and  C_4
REMARK    2  A    between atoms: C_7  and  N_8
REMARK    3  A    between atoms: N_8  and  C_9
REMARK    4  A    between atoms: C_9  and  C_10
REMARK    5  A    between atoms: C_15  and  C_16
REMARK                            x       y       z     vdW  Elec       q    Type
REMARK                         _______ _______ _______ _____ _____    ______ ____
ROOT
ATOM      1  C   UNL     1      44.055   5.148  11.434  0.00  0.00    +0.000 C 
ATOM      2  C   UNL     1      44.350   4.078  12.471  0.00  0.00    +0.000 C 
ATOM      3  C   UNL     1      43.047   4.804  12.519  0.00  0.00    +0.000 C 
ENDROOT
BRANCH   1   4
ATOM      4  C   UNL     1      44.715   6.524  11.512  0.00  0.00    +0.000 A 
ATOM      5  C   UNL     1      43.992   7.694  11.260  0.00  0.00    +0.000 A 
ATOM      6  C   UNL     1      44.573   8.949  11.421  0.00  0.00    +0.000 A 
ATOM      7  C   UNL     1      45.908   9.074  11.825  0.00  0.00    +0.000 A 
ATOM      8 CL   UNL     1      46.502  10.702  11.887  0.00  0.00    +0.000 Cl
ATOM      9  C   UNL     1      46.695   7.936  12.110  0.00  0.00    +0.000 A 
ATOM     10  C   UNL     1      46.058   6.677  11.931  0.00  0.00    +0.000 A 
BRANCH   9  11
ATOM     11  C   UNL     1      48.106   7.981  12.587  0.00  0.00    +0.000 A 
ATOM     12  C   UNL     1      49.185   8.359  11.773  0.00  0.00    +0.000 A 
ATOM     13  C   UNL     1      50.495   8.359  12.255  0.00  0.00    +0.000 A 
ATOM     14  C   UNL     1      50.708   8.026  13.577  0.00  0.00    +0.000 A 
ATOM     15  N   UNL     1      49.713   7.693  14.423  0.00  0.00    +0.000 NA
ATOM     16  C   UNL     1      48.455   7.668  13.908  0.00  0.00    +0.000 A 
ENDBRANCH   9  11
ENDBRANCH   1   4
BRANCH   1  17
ATOM     17  N   UNL     1      43.791   4.720  10.053  0.00  0.00    +0.000 N 
ATOM     18  H   UNL     1      42.875   4.890   9.648  0.00  0.00    +0.000 HD
BRANCH  17  22
ATOM     19  C   UNL     1      46.500   2.619   7.755  0.00  0.00    +0.000 A 
ATOM     20  N   UNL     1      45.714   1.889   8.578  0.00  0.00    +0.000 NA
ATOM     21  C   UNL     1      44.845   2.606   9.323  0.00  0.00    +0.000 A 
ATOM     22  C   UNL     1      44.691   3.984   9.278  0.00  0.00    +0.000 A 
ATOM     23  C   UNL     1      45.598   4.601   8.426  0.00  0.00    +0.000 A 
ATOM     24  N   UNL     1      46.495   3.961   7.650  0.00  0.00    +0.000 NA
BRANCH  19  26
ATOM     25  N   UNL     1      48.505   2.531   6.362  0.00  0.00    +0.000 N 
ATOM     26  C   UNL     1      47.428   1.835   6.850  0.00  0.00    +0.000 C 
ATOM     27  O   UNL     1      47.269   0.652   6.566  0.00  0.00    +0.000 OA
ATOM     28  H   UNL     1      49.169   2.045   5.771  0.00  0.00    +0.000 HD
ATOM     29  H   UNL     1      48.648   3.503   6.621  0.00  0.00    +0.000 HD
ENDBRANCH  19  26
ENDBRANCH  17  22
ENDBRANCH   1  17
TORSDOF 5
ENDMDL
MODEL 4
REMARK VINA RESULT:    -7.039      4.167      7.496
REMARK INTER + INTRA:          -9.930
REMARK INTER:                  -9.734
REMARK INTRA:                  -0.196
REMARK UNBOUND:                -0.833
REMARK  Name = 
REMARK  5 active torsions:
REMARK  status: ('A' for Active; 'I' for Inactive)
REMARK    1  A    between atoms: C_2  and  C_4
REMARK    2  A    between atoms: C_7  and  N_8
REMARK    3  A    between atoms: N_8  and  C_9
REMARK    4  A    between atoms: C_9  and  C_10
REMARK    5  A    between atoms: C_15  and  C_16
REMARK                            x       y       z     vdW  Elec       q    Type
REMARK                         _______ _______ _______ _____ _____    ______ ____
ROOT
ATOM      1  C   UNL     1      48.633   7.820  12.640  0.00  0.00    +0.000 C 
ATOM      2  C   UNL     1      49.759   7.375  11.722  0.00  0.00    +0.000 C 
ATOM      3  C   UNL     1      49.352   8.811  11.738  0.00  0.00    +0.000 C 
ENDROOT
BRANCH   1   4
ATOM      4  C   UNL     1      47.175   7.511  12.306  0.00  0.00    +0.000 A 
ATOM      5  C   UNL     1      46.142   8.373  12.684  0.00  0.00    +0.000 A 
ATOM      6  C   UNL     1      44.825   8.133  12.300  0.00  0.00    +0.000 A 
ATOM      7  C   UNL     1      44.495   7.008  11.534  0.00  0.00    +0.000 A 
ATOM      8 CL   UNL     1      42.802   6.809  11.220  0.00  0.00    +0.000 Cl
ATOM      9  C   UNL     1      45.489   6.100  11.105  0.00  0.00    +0.000 A 
ATOM     10  C   UNL     1      46.818   6.387  11.522  0.00  0.00    +0.000 A 
BRANCH   9  11
ATOM     11  C   UNL     1      45.232   4.906  10.252  0.00  0.00    +0.000 A 
ATOM     12  C   UNL     1      45.623   4.818   8.906  0.00  0.00    +0.000 A 
ATOM     13  C   UNL     1      45.335   3.691   8.137  0.00  0.00    +0.000 A 
ATOM     14  C   UNL     1      44.697   2.628   8.743  0.00  0.00    +0.000 A 
ATOM     15  N   UNL     1      44.329   2.630  10.039  0.00  0.00    +0.000 NA
ATOM     16  C   UNL     1      44.593   3.760  10.747  0.00  0.00    +0.000 A 
ENDBRANCH   9  11
ENDBRANCH   1   4
BRANCH   1  17
ATOM     17  N   UNL     1      48.892   7.853  14.086  0.00  0.00    +0.000 N 
ATOM     18  H   UNL     1      49.413   8.631  14.479  0.00  0.00    +0.000 HD
BRANCH  17  22
ATOM     19  C   UNL     1      47.912   4.735  16.606  0.00  0.00    +0.000 A 
ATOM     20  N   UNL     1      48.601   5.759  17.155  0.00  0.00    +0.000 NA
ATOM     21  C   UNL     1      48.915   6.759  16.303  0.00  0.00    +0.000 A 
ATOM     22  C   UNL     1      48.563   6.816  14.963  0.00  0.00    +0.000 A 
ATOM     23  C   UNL     1      47.903   5.674  14.530  0.00  0.00    +0.000 A 
ATOM     24  N   UNL     1      47.554   4.633  15.312  0.00  0.00    +0.000 NA
BRANCH  19  26
ATOM     25  N   UNL     1      48.241   3.499  18.688  0.00  0.00    +0.000 N 
ATOM     26  C   UNL     1      47.478   3.637  17.555  0.00  0.00    +0.000 C 
ATOM     27  O   UNL     1      46.504   2.915  17.367  0.00  0.00    +0.000 OA
ATOM     28  H   UNL     1      47.977   2.795  19.367  0.00  0.00    +0.000 HD
ATOM     29  H   UNL     1      49.030   4.117  18.853  0.00  0.00    +0.000 HD
ENDBRANCH  19  26
ENDBRANCH  17  22
ENDBRANCH   1  17
TORSDOF 5
ENDMDL
MODEL 5
REMARK VINA RESULT:    -6.852      5.128      7.773
REMARK INTER + INTRA:          -9.688
REMARK INTER:                  -8.699
REMARK INTRA:                  -0.989
REMARK UNBOUND:                -0.833
REMARK  Name = 
REMARK  5 active torsions:
REMARK  status: ('A' for Active; 'I' for Inactive)
REMARK    1  A    between atoms: C_2  and  C_4
REMARK    2  A    between atoms: C_7  and  N_8
REMARK    3  A    between atoms: N_8  and  C_9
REMARK    4  A    between atoms: C_9  and  C_10
REMARK    5  A    between atoms: C_15  and  C_16
REMARK                            x       y       z     vdW  Elec       q    Type
REMARK                         _______ _______ _______ _____ _____    ______ ____
ROOT
ATOM      1  C   UNL     1      48.954   7.713  15.365  0.00  0.00    +0.000 C 
ATOM      2  C   UNL     1      48.400   9.127  15.388  0.00  0.00    +0.000 C 
ATOM      3  C   UNL     1      49.870   8.920  15.243  0.00  0.00    +0.000 C 
ENDROOT
BRANCH   1   4
ATOM      4  C   UNL     1      49.061   6.888  16.646  0.00  0.00    +0.000 A 
ATOM      5  C   UNL     1      48.338   7.227  17.794  0.00  0.00    +0.000 A 
ATOM      6  C   UNL     1      48.369   6.421  18.929  0.00  0.00    +0.000 A 
ATOM      7  C   UNL     1      49.142   5.254  18.959  0.00  0.00    +0.000 A 
ATOM      8 CL   UNL     1      49.142   4.418  20.478  0.00  0.00    +0.000 Cl
ATOM      9  C   UNL     1      49.888   4.843  17.832  0.00  0.00    +0.000 A 
ATOM     10  C   UNL     1      49.825   5.697  16.697  0.00  0.00    +0.000 A 
BRANCH   9  11
ATOM     11  C   UNL     1      50.699   3.594  17.764  0.00  0.00    +0.000 A 
ATOM     12  C   UNL     1      52.037   3.518  18.183  0.00  0.00    +0.000 A 
ATOM     13  C   UNL     1      52.767   2.334  18.073  0.00  0.00    +0.000 A 
ATOM     14  C   UNL     1      52.128   1.211  17.590  0.00  0.00    +0.000 A 
ATOM     15  N   UNL     1      50.836   1.205  17.208  0.00  0.00    +0.000 NA
ATOM     16  C   UNL     1      50.167   2.386  17.294  0.00  0.00    +0.000 A 
ENDBRANCH   9  11
ENDBRANCH   1   4
BRANCH   1  17
ATOM     17  N   UNL     1      48.697   6.888  14.175  0.00  0.00    +0.000 N 
ATOM     18  H   UNL     1      49.412   6.819  13.457  0.00  0.00    +0.000 HD
BRANCH  17  22
ATOM     19  C   UNL     1      45.073   5.117  13.303  0.00  0.00    +0.000 A 
ATOM     20  N   UNL     1      45.976   4.352  13.956  0.00  0.00    +0.000 NA
ATOM     21  C   UNL     1      47.155   4.956  14.218  0.00  0.00    +0.000 A 
ATOM     22  C   UNL     1      47.475   6.269  13.903  0.00  0.00    +0.000 A 
ATOM     23  C   UNL     1      46.471   6.913  13.192  0.00  0.00    +0.000 A 
ATOM     24  N   UNL     1      45.269   6.382  12.889  0.00  0.00    +0.000 NA
BRANCH  19  26
ATOM     25  N   UNL     1      42.668   5.372  12.953  0.00  0.00    +0.000 N 
ATOM     26  C   UNL     1      43.714   4.490  13.067  0.00  0.00    +0.000 C 
ATOM     27  O   UNL     1      43.527   3.283  12.960  0.00  0.00    +0.000 OA
ATOM     28  H   UNL     1      41.742   5.005  12.771  0.00  0.00    +0.000 HD
ATOM     29  H   UNL     1      42.832   6.373  13.016  0.00  0.00    +0.000 HD
ENDBRANCH  19  26
ENDBRANCH  17  22
ENDBRANCH   1  17
TORSDOF 5
ENDMDL
MODEL 6
REMARK VINA RESULT:    -6.402      3.406      6.149
REMARK INTER + INTRA:          -9.107
REMARK INTER:                  -8.592
REMARK INTRA:                  -0.515
REMARK UNBOUND:                -0.833
REMARK  Name = 
REMARK  5 active torsions:
REMARK  status: ('A' for Active; 'I' for Inactive)
REMARK    1  A    between atoms: C_2  and  C_4
REMARK    2  A    between atoms: C_7  and  N_8
REMARK    3  A    between atoms: N_8  and  C_9
REMARK    4  A    between atoms: C_9  and  C_10
REMARK    5  A    between atoms: C_15  and  C_16
REMARK                            x       y       z     vdW  Elec       q    Type
REMARK                         _______ _______ _______ _____ _____    ______ ____
ROOT
ATOM      1  C   UNL     1      48.125   8.213  12.578  0.00  0.00    +0.000 C 
ATOM      2  C   UNL     1      48.976   9.114  11.699  0.00  0.00    +0.000 C 
ATOM      3  C   UNL     1      49.127   7.633  11.593  0.00  0.00    +0.000 C 
ENDROOT
BRANCH   1   4
ATOM      4  C   UNL     1      48.435   8.041  14.064  0.00  0.00    +0.000 A 
ATOM      5  C   UNL     1      48.718   9.139  14.881  0.00  0.00    +0.000 A 
ATOM      6  C   UNL     1      48.911   8.986  16.252  0.00  0.00    +0.000 A 
ATOM      7  C   UNL     1      48.842   7.722  16.850  0.00  0.00    +0.000 A 
ATOM      8 CL   UNL     1      49.198   7.696  18.546  0.00  0.00    +0.000 Cl
ATOM      9  C   UNL     1      48.548   6.569  16.088  0.00  0.00    +0.000 A 
ATOM     10  C   UNL     1      48.359   6.775  14.693  0.00  0.00    +0.000 A 
BRANCH   9  11
ATOM     11  C   UNL     1      48.412   5.196  16.650  0.00  0.00    +0.000 A 
ATOM     12  C   UNL     1      49.485   4.478  17.203  0.00  0.00    +0.000 A 
ATOM     13  C   UNL     1      49.317   3.182  17.692  0.00  0.00    +0.000 A 
ATOM     14  C   UNL     1      48.053   2.631  17.670  0.00  0.00    +0.000 A 
ATOM     15  N   UNL     1      46.973   3.279  17.190  0.00  0.00    +0.000 NA
ATOM     16  C   UNL     1      47.182   4.526  16.689  0.00  0.00    +0.000 A 
ENDBRANCH   9  11
ENDBRANCH   1   4
BRANCH   1  17
ATOM     17  N   UNL     1      46.689   8.111  12.280  0.00  0.00    +0.000 N 
ATOM     18  H   UNL     1      46.114   8.947  12.321  0.00  0.00    +0.000 HD
BRANCH  17  22
ATOM     19  C   UNL     1      44.670   4.566  11.661  0.00  0.00    +0.000 A 
ATOM     20  N   UNL     1      45.314   5.086  10.593  0.00  0.00    +0.000 NA
ATOM     21  C   UNL     1      45.957   6.252  10.824  0.00  0.00    +0.000 A 
ATOM     22  C   UNL     1      46.024   6.905  12.047  0.00  0.00    +0.000 A 
ATOM     23  C   UNL     1      45.276   6.279  13.035  0.00  0.00    +0.000 A 
ATOM     24  N   UNL     1      44.606   5.119  12.886  0.00  0.00    +0.000 NA
BRANCH  19  26
ATOM     25  N   UNL     1      43.774   2.490  12.589  0.00  0.00    +0.000 N 
ATOM     26  C   UNL     1      44.008   3.219  11.450  0.00  0.00    +0.000 C 
ATOM     27  O   UNL     1      43.671   2.787  10.352  0.00  0.00    +0.000 OA
ATOM     28  H   UNL     1      43.311   1.593  12.503  0.00  0.00    +0.000 HD
ATOM     29  H   UNL     1      44.030   2.863  13.498  0.00  0.00    +0.000 HD
ENDBRANCH  19  26
ENDBRANCH  17  22
ENDBRANCH   1  17
TORSDOF 5
ENDMDL
MODEL 7
REMARK VINA RESULT:    -5.730      4.005      6.250
REMARK INTER + INTRA:          -8.239
REMARK INTER:                  -8.047
REMARK INTRA:                  -0.191
REMARK UNBOUND:                -0.833
REMARK  Name = 
REMARK  5 active torsions:
REMARK  status: ('A' for Active; 'I' for Inactive)
REMARK    1  A    between atoms: C_2  and  C_4
REMARK    2  A    between atoms: C_7  and  N_8
REMARK    3  A    between atoms: N_8  and  C_9
REMARK    4  A    between atoms: C_9  and  C_10
REMARK    5  A    between atoms: C_15  and  C_16
REMARK                            x       y       z     vdW  Elec       q    Type
REMARK                         _______ _______ _______ _____ _____    ______ ____
ROOT
ATOM      1  C   UNL     1      48.026   7.788  13.021  0.00  0.00    +0.000 C 
ATOM      2  C   UNL     1      48.099   9.030  12.148  0.00  0.00    +0.000 C 
ATOM      3  C   UNL     1      48.440   7.701  11.560  0.00  0.00    +0.000 C 
ENDROOT
BRANCH   1   4
ATOM      4  C   UNL     1      49.102   7.495  14.065  0.00  0.00    +0.000 A 
ATOM      5  C   UNL     1      50.387   8.036  13.958  0.00  0.00    +0.000 A 
ATOM      6  C   UNL     1      51.336   7.839  14.958  0.00  0.00    +0.000 A 
ATOM      7  C   UNL     1      51.035   7.078  16.094  0.00  0.00    +0.000 A 
ATOM      8 CL   UNL     1      52.355   6.854  17.194  0.00  0.00    +0.000 Cl
ATOM      9  C   UNL     1      49.753   6.511  16.274  0.00  0.00    +0.000 A 
ATOM     10  C   UNL     1      48.818   6.739  15.227  0.00  0.00    +0.000 A 
BRANCH   9  11
ATOM     11  C   UNL     1      49.336   5.727  17.470  0.00  0.00    +0.000 A 
ATOM     12  C   UNL     1      48.861   6.316  18.653  0.00  0.00    +0.000 A 
ATOM     13  C   UNL     1      48.509   5.543  19.760  0.00  0.00    +0.000 A 
ATOM     14  C   UNL     1      48.586   4.170  19.653  0.00  0.00    +0.000 A 
ATOM     15  N   UNL     1      48.996   3.539  18.535  0.00  0.00    +0.000 NA
ATOM     16  C   UNL     1      49.366   4.326  17.490  0.00  0.00    +0.000 A 
ENDBRANCH   9  11
ENDBRANCH   1   4
BRANCH   1  17
ATOM     17  N   UNL     1      46.698   7.298  13.417  0.00  0.00    +0.000 N 
ATOM     18  H   UNL     1      46.241   7.706  14.226  0.00  0.00    +0.000 HD
BRANCH  17  22
ATOM     19  C   UNL     1      44.789   4.143  11.564  0.00  0.00    +0.000 A 
ATOM     20  N   UNL     1      45.582   3.834  12.614  0.00  0.00    +0.000 NA
ATOM     21  C   UNL     1      46.201   4.886  13.192  0.00  0.00    +0.000 A 
ATOM     22  C   UNL     1      46.055   6.214  12.815  0.00  0.00    +0.000 A 
ATOM     23  C   UNL     1      45.251   6.370  11.694  0.00  0.00    +0.000 A 
ATOM     24  N   UNL     1      44.600   5.376  11.058  0.00  0.00    +0.000 NA
BRANCH  19  26
ATOM     25  N   UNL     1      43.371   2.171  11.834  0.00  0.00    +0.000 N 
ATOM     26  C   UNL     1      44.021   2.992  10.946  0.00  0.00    +0.000 C 
ATOM     27  O   UNL     1      43.947   2.789   9.739  0.00  0.00    +0.000 OA
ATOM     28  H   UNL     1      42.824   1.400  11.470  0.00  0.00    +0.000 HD
ATOM     29  H   UNL     1      43.414   2.359  12.831  0.00  0.00    +0.000 HD
ENDBRANCH  19  26
ENDBRANCH  17  22
ENDBRANCH   1  17
TORSDOF 5
ENDMDL
