MODEL 1
REMARK VINA RESULT:    -8.020      0.000      0.000
REMARK INTER + INTRA:         -12.910
REMARK INTER:                 -11.537
REMARK INTRA:                  -1.373
REMARK UNBOUND:                -1.373
REMARK  Name = 
REMARK  8 active torsions:
REMARK  status: ('A' for Active; 'I' for Inactive)
REMARK    1  A    between atoms: N_1  and  C_2
REMARK    2  A    between atoms: C_2  and  C_3
REMARK    3  A    between atoms: C_3  and  N_4
REMARK    4  A    between atoms: C_3  and  C_17
REMARK    5  A    between atoms: C_5  and  C_7
REMARK    6  A    between atoms: C_20  and  O_21
REMARK    7  A    between atoms: O_21  and  C_22
REMARK    8  A    between atoms: C_22  and  C_23
REMARK                            x       y       z     vdW  Elec       q    Type
REMARK                         _______ _______ _______ _____ _____    ______ ____
ROOT
ATOM      1  C   UNL     1      47.887   6.865  13.659  0.00  0.00    +0.000 C 
ENDROOT
BRANCH   1   2
ATOM      2  C   UNL     1      46.840   6.032  12.920  0.00  0.00    +0.000 A 
ATOM      3  C   UNL     1      46.207   6.519  11.768  0.00  0.00    +0.000 A 
ATOM      4  C   UNL     1      45.308   5.715  11.056  0.00  0.00    +0.000 A 
ATOM      5  C   UNL     1      45.042   4.410  11.475  0.00  0.00    +0.000 A 
ATOM      6  C   UNL     1      45.623   3.940  12.651  0.00  0.00    +0.000 A 
ATOM      7  C   UNL     1      46.525   4.735  13.357  0.00  0.00    +0.000 A 
BRANCH   5   8
ATOM      8  O   UNL     1      44.218   3.673  10.666  0.00  0.00    +0.000 OA
BRANCH   8   9
ATOM      9  C   UNL     1      44.230   4.064   9.285  0.00  0.00    +0.000 C 
BRANCH   9  10
ATOM     10  C   UNL     1      45.289   3.326   8.501  0.00  0.00    +0.000 A 
ATOM     11  C   UNL     1      45.513   1.965   8.688  0.00  0.00    +0.000 A 
ATOM     12  C   UNL     1      46.514   1.342   7.947  0.00  0.00    +0.000 A 
ATOM     13  C   UNL     1      47.273   2.091   7.057  0.00  0.00    +0.000 A 
ATOM     14  C   UNL     1      47.005   3.443   6.946  0.00  0.00    +0.000 A 
ATOM     15  N   UNL     1      46.038   4.074   7.646  0.00  0.00    +0.000 NA
ENDBRANCH   9  10
ENDBRANCH   8   9
ENDBRANCH   5   8
ENDBRANCH   1   2
BRANCH   1  16
ATOM     16  N   UNL     1      47.875   6.450  15.057  0.00  0.00    +0.000 N 
ATOM     17  C   UNL     1      49.006   6.280  15.814  0.00  0.00    +0.000 C 
ATOM     18  O   UNL     1      50.125   6.608  15.436  0.00  0.00    +0.000 OA
ATOM     19  H   UNL     1      47.046   5.940  15.339  0.00  0.00    +0.000 HD
BRANCH  17  20
ATOM     20  C   UNL     1      48.781   5.731  17.154  0.00  0.00    +0.000 A 
ATOM     21  C   UNL     1      49.011   4.388  17.419  0.00  0.00    +0.000 A 
ATOM     22  S   UNL     1      48.729   3.962  19.050  0.00  0.00    +0.000 S 
ATOM     23  C   UNL     1      48.236   5.546  19.437  0.00  0.00    +0.000 A 
ATOM     24  N   UNL     1      47.828   5.872  20.696  0.00  0.00    +0.000 NA
ATOM     25  C   UNL     1      47.451   7.100  20.831  0.00  0.00    +0.000 A 
ATOM     26  N   UNL     1      47.448   8.034  19.829  0.00  0.00    +0.000 N 
ATOM     27  C   UNL     1      47.886   7.760  18.555  0.00  0.00    +0.000 A 
ATOM     28  O   UNL     1      47.941   8.636  17.702  0.00  0.00    +0.000 OA
ATOM     29  C   UNL     1      48.307   6.390  18.346  0.00  0.00    +0.000 A 
ATOM     30  H   UNL     1      47.158   8.985  20.003  0.00  0.00    +0.000 HD
ENDBRANCH  17  20
ENDBRANCH   1  16
BRANCH   1  31
ATOM     31  C   UNL     1      47.626   8.393  13.500  0.00  0.00    +0.000 C 
BRANCH  31  32
ATOM     32  N   UNL     1      47.122   9.055  14.710  0.00  0.00    +0.000 NA
ATOM     33  H   UNL     1      47.881   9.592  15.127  0.00  0.00    +0.000 HD
ATOM     34  H   UNL     1      46.857   8.352  15.399  0.00  0.00    +0.000 HD
ENDBRANCH  31  32
ENDBRANCH   1  31
TORSDOF 8
ENDMDL
MODEL 2
REMARK VINA RESULT:    -7.619      1.923      2.578
REMARK INTER + INTRA:         -12.332
REMARK INTER:                 -11.182
REMARK INTRA:                  -1.150
REMARK UNBOUND:                -1.373
REMARK  Name = 
REMARK  8 active torsions:
REMARK  status: ('A' for Active; 'I' for Inactive)
REMARK    1  A    between atoms: N_1  and  C_2
REMARK    2  A    between atoms: C_2  and  C_3
REMARK    3  A    between atoms: C_3  and  N_4
REMARK    4  A    between atoms: C_3  and  C_17
REMARK    5  A    between atoms: C_5  and  C_7
REMARK    6  A    between atoms: C_20  and  O_21
REMARK    7  A    between atoms: O_21  and  C_22
REMARK    8  A    between atoms: C_22  and  C_23
REMARK                            x       y       z     vdW  Elec       q    Type
REMARK                         _______ _______ _______ _____ _____    ______ ____
ROOT
ATOM      1  C   UNL     1      47.094   8.035  13.061  0.00  0.00    +0.000 C 
ENDROOT
BRANCH   1   2
ATOM      2  C   UNL     1      46.311   6.952  12.318  0.00  0.00    +0.000 A 
ATOM      3  C   UNL     1      46.622   6.611  10.994  0.00  0.00    +0.000 A 
ATOM      4  C   UNL     1      45.949   5.564  10.353  0.00  0.00    +0.000 A 
ATOM      5  C   UNL     1      44.971   4.833  11.028  0.00  0.00    +0.000 A 
ATOM      6  C   UNL     1      44.616   5.204  12.324  0.00  0.00    +0.000 A 
ATOM      7  C   UNL     1      45.290   6.240  12.969  0.00  0.00    +0.000 A 
BRANCH   5   8
ATOM      8  O   UNL     1      44.431   3.774  10.347  0.00  0.00    +0.000 OA
BRANCH   8   9
ATOM      9  C   UNL     1      44.393   3.937   8.922  0.00  0.00    +0.000 C 
BRANCH   9  10
ATOM     10  C   UNL     1      45.422   3.074   8.229  0.00  0.00    +0.000 A 
ATOM     11  C   UNL     1      46.218   3.576   7.204  0.00  0.00    +0.000 A 
ATOM     12  C   UNL     1      47.138   2.728   6.592  0.00  0.00    +0.000 A 
ATOM     13  C   UNL     1      47.228   1.405   7.005  0.00  0.00    +0.000 A 
ATOM     14  C   UNL     1      46.386   0.976   8.014  0.00  0.00    +0.000 A 
ATOM     15  N   UNL     1      45.488   1.775   8.629  0.00  0.00    +0.000 NA
ENDBRANCH   9  10
ENDBRANCH   8   9
ENDBRANCH   5   8
ENDBRANCH   1   2
BRANCH   1  16
ATOM     16  N   UNL     1      47.456   7.499  14.368  0.00  0.00    +0.000 N 
ATOM     17  C   UNL     1      48.733   7.148  14.724  0.00  0.00    +0.000 C 
ATOM     18  O   UNL     1      49.716   7.394  14.035  0.00  0.00    +0.000 OA
ATOM     19  H   UNL     1      46.695   7.052  14.867  0.00  0.00    +0.000 HD
BRANCH  17  20
ATOM     20  C   UNL     1      48.859   6.507  16.036  0.00  0.00    +0.000 A 
ATOM     21  C   UNL     1      49.539   7.136  17.070  0.00  0.00    +0.000 A 
ATOM     22  S   UNL     1      49.533   6.240  18.526  0.00  0.00    +0.000 S 
ATOM     23  C   UNL     1      48.673   4.960  17.802  0.00  0.00    +0.000 A 
ATOM     24  N   UNL     1      48.352   3.838  18.504  0.00  0.00    +0.000 NA
ATOM     25  C   UNL     1      47.730   2.939  17.814  0.00  0.00    +0.000 A 
ATOM     26  N   UNL     1      47.395   3.060  16.491  0.00  0.00    +0.000 N 
ATOM     27  C   UNL     1      47.665   4.188  15.754  0.00  0.00    +0.000 A 
ATOM     28  O   UNL     1      47.287   4.295  14.596  0.00  0.00    +0.000 OA
ATOM     29  C   UNL     1      48.377   5.222  16.478  0.00  0.00    +0.000 A 
ATOM     30  H   UNL     1      46.892   2.328  16.012  0.00  0.00    +0.000 HD
ENDBRANCH  17  20
ENDBRANCH   1  16
BRANCH   1  31
ATOM     31  C   UNL     1      46.282   9.359  13.176  0.00  0.00    +0.000 C 
BRANCH  31  32
ATOM     32  N   UNL     1      46.774  10.453  12.329  0.00  0.00    +0.000 NA
ATOM     33  H   UNL     1      46.960  10.084  11.397  0.00  0.00    +0.000 HD
ATOM     34  H   UNL     1      47.668  10.787  12.688  0.00  0.00    +0.000 HD
ENDBRANCH  31  32
ENDBRANCH   1  31
TORSDOF 8
ENDMDL
MODEL 3
REMARK VINA RESULT:    -7.408      2.841      4.846
REMARK INTER + INTRA:         -12.029
REMARK INTER:                 -10.657
REMARK INTRA:                  -1.372
REMARK UNBOUND:                -1.373
REMARK  Name = 
REMARK  8 active torsions:
REMARK  status: ('A' for Active; 'I' for Inactive)
REMARK    1  A    between atoms: N_1  and  C_2
REMARK    2  A    between atoms: C_2  and  C_3
REMARK    3  A    between atoms: C_3  and  N_4
REMARK    4  A    between atoms: C_3  and  C_17
REMARK    5  A    between atoms: C_5  and  C_7
REMARK    6  A    between atoms: C_20  and  O_21
REMARK    7  A    between atoms: O_21  and  C_22
REMARK    8  A    between atoms: C_22  and  C_23
REMARK                            x       y       z     vdW  Elec       q    Type
REMARK                         _______ _______ _______ _____ _____    ______ ____
ROOT
ATOM      1  C   UNL     1      47.036   5.557  14.451  0.00  0.00    +0.000 C 
ENDROOT
BRANCH   1   2
ATOM      2  C   UNL     1      46.351   5.031  13.189  0.00  0.00    +0.000 A 
ATOM      3  C   UNL     1      45.894   3.708  13.110  0.00  0.00    +0.000 A 
ATOM      4  C   UNL     1      45.198   3.262  11.979  0.00  0.00    +0.000 A 
ATOM      5  C   UNL     1      44.935   4.134  10.922  0.00  0.00    +0.000 A 
ATOM      6  C   UNL     1      45.436   5.434  10.968  0.00  0.00    +0.000 A 
ATOM      7  C   UNL     1      46.121   5.883  12.096  0.00  0.00    +0.000 A 
BRANCH   5   8
ATOM      8  O   UNL     1      44.174   3.631   9.900  0.00  0.00    +0.000 OA
BRANCH   8   9
ATOM      9  C   UNL     1      44.516   2.295   9.502  0.00  0.00    +0.000 C 
BRANCH   9  10
ATOM     10  C   UNL     1      45.563   2.283   8.412  0.00  0.00    +0.000 A 
ATOM     11  C   UNL     1      45.771   3.390   7.594  0.00  0.00    +0.000 A 
ATOM     12  C   UNL     1      46.739   3.314   6.596  0.00  0.00    +0.000 A 
ATOM     13  C   UNL     1      47.459   2.138   6.430  0.00  0.00    +0.000 A 
ATOM     14  C   UNL     1      47.178   1.075   7.268  0.00  0.00    +0.000 A 
ATOM     15  N   UNL     1      46.249   1.120   8.247  0.00  0.00    +0.000 NA
ENDBRANCH   9  10
ENDBRANCH   8   9
ENDBRANCH   5   8
ENDBRANCH   1   2
BRANCH   1  16
ATOM     16  N   UNL     1      48.224   6.292  14.033  0.00  0.00    +0.000 N 
ATOM     17  C   UNL     1      48.864   7.219  14.816  0.00  0.00    +0.000 C 
ATOM     18  O   UNL     1      48.592   7.407  15.996  0.00  0.00    +0.000 OA
ATOM     19  H   UNL     1      48.342   6.371  13.030  0.00  0.00    +0.000 HD
BRANCH  17  20
ATOM     20  C   UNL     1      49.958   7.939  14.159  0.00  0.00    +0.000 A 
ATOM     21  C   UNL     1      51.255   7.856  14.647  0.00  0.00    +0.000 A 
ATOM     22  S   UNL     1      52.386   8.734  13.713  0.00  0.00    +0.000 S 
ATOM     23  C   UNL     1      51.169   9.297  12.664  0.00  0.00    +0.000 A 
ATOM     24  N   UNL     1      51.458  10.134  11.629  0.00  0.00    +0.000 NA
ATOM     25  C   UNL     1      50.429  10.505  10.940  0.00  0.00    +0.000 A 
ATOM     26  N   UNL     1      49.140  10.113  11.186  0.00  0.00    +0.000 N 
ATOM     27  C   UNL     1      48.806   9.240  12.195  0.00  0.00    +0.000 A 
ATOM     28  O   UNL     1      47.655   8.851  12.341  0.00  0.00    +0.000 OA
ATOM     29  C   UNL     1      49.924   8.806  13.007  0.00  0.00    +0.000 A 
ATOM     30  H   UNL     1      48.380  10.423  10.599  0.00  0.00    +0.000 HD
ENDBRANCH  17  20
ENDBRANCH   1  16
BRANCH   1  31
ATOM     31  C   UNL     1      47.379   4.406  15.443  0.00  0.00    +0.000 C 
BRANCH  31  32
ATOM     32  N   UNL     1      47.159   4.734  16.858  0.00  0.00    +0.000 NA
ATOM     33  H   UNL     1      46.729   3.930  17.314  0.00  0.00    +0.000 HD
ATOM     34  H   UNL     1      46.486   5.497  16.930  0.00  0.00    +0.000 HD
ENDBRANCH  31  32
ENDBRANCH   1  31
TORSDOF 8
ENDMDL
MODEL 4
REMARK VINA RESULT:    -7.349      3.265      4.660
REMARK INTER + INTRA:         -11.944
REMARK INTER:                 -10.585
REMARK INTRA:                  -1.359
REMARK UNBOUND:                -1.373
REMARK  Name = 
REMARK  8 active torsions:
REMARK  status: ('A' for Active; 'I' for Inactive)
REMARK    1  A    between atoms: N_1  and  C_2
REMARK    2  A    between atoms: C_2  and  C_3
REMARK    3  A    between atoms: C_3  and  N_4
REMARK    4  A    between atoms: C_3  and  C_17
REMARK    5  A    between atoms: C_5  and  C_7
REMARK    6  A    between atoms: C_20  and  O_21
REMARK    7  A    between atoms: O_21  and  C_22
REMARK    8  A    between atoms: C_22  and  C_23
REMARK                            x       y       z     vdW  Elec       q    Type
REMARK                         _______ _______ _______ _____ _____    ______ ____
ROOT
ATOM      1  C   UNL     1      46.671   5.695  14.156  0.00  0.00    +0.000 C 
ENDROOT
BRANCH   1   2
ATOM      2  C   UNL     1      45.914   5.213  12.919  0.00  0.00    +0.000 A 
ATOM      3  C   UNL     1      45.995   5.907  11.703  0.00  0.00    +0.000 A 
ATOM      4  C   UNL     1      45.359   5.411  10.558  0.00  0.00    +0.000 A 
ATOM      5  C   UNL     1      44.650   4.210  10.606  0.00  0.00    +0.000 A 
ATOM      6  C   UNL     1      44.517   3.545  11.824  0.00  0.00    +0.000 A 
ATOM      7  C   UNL     1      45.156   4.031  12.964  0.00  0.00    +0.000 A 
BRANCH   5   8
ATOM      8  O   UNL     1      44.138   3.763   9.417  0.00  0.00    +0.000 OA
BRANCH   8   9
ATOM      9  C   UNL     1      44.441   2.393   9.113  0.00  0.00    +0.000 C 
BRANCH   9  10
ATOM     10  C   UNL     1      45.613   2.272   8.167  0.00  0.00    +0.000 A 
ATOM     11  C   UNL     1      45.946   3.301   7.290  0.00  0.00    +0.000 A 
ATOM     12  C   UNL     1      47.026   3.125   6.430  0.00  0.00    +0.000 A 
ATOM     13  C   UNL     1      47.733   1.929   6.455  0.00  0.00    +0.000 A 
ATOM     14  C   UNL     1      47.325   0.947   7.339  0.00  0.00    +0.000 A 
ATOM     15  N   UNL     1      46.285   1.090   8.187  0.00  0.00    +0.000 NA
ENDBRANCH   9  10
ENDBRANCH   8   9
ENDBRANCH   5   8
ENDBRANCH   1   2
BRANCH   1  16
ATOM     16  N   UNL     1      47.833   6.448  13.696  0.00  0.00    +0.000 N 
ATOM     17  C   UNL     1      47.869   7.816  13.603  0.00  0.00    +0.000 C 
ATOM     18  O   UNL     1      46.987   8.544  14.042  0.00  0.00    +0.000 OA
ATOM     19  H   UNL     1      48.469   5.925  13.106  0.00  0.00    +0.000 HD
BRANCH  17  20
ATOM     20  C   UNL     1      49.083   8.366  12.994  0.00  0.00    +0.000 A 
ATOM     21  C   UNL     1      49.021   9.062  11.795  0.00  0.00    +0.000 A 
ATOM     22  S   UNL     1      50.539   9.656  11.279  0.00  0.00    +0.000 S 
ATOM     23  C   UNL     1      51.332   8.951  12.612  0.00  0.00    +0.000 A 
ATOM     24  N   UNL     1      52.680   9.059  12.771  0.00  0.00    +0.000 NA
ATOM     25  C   UNL     1      53.144   8.445  13.809  0.00  0.00    +0.000 A 
ATOM     26  N   UNL     1      52.386   7.737  14.705  0.00  0.00    +0.000 N 
ATOM     27  C   UNL     1      51.019   7.633  14.605  0.00  0.00    +0.000 A 
ATOM     28  O   UNL     1      50.363   7.057  15.461  0.00  0.00    +0.000 OA
ATOM     29  C   UNL     1      50.450   8.293  13.447  0.00  0.00    +0.000 A 
ATOM     30  H   UNL     1      52.807   7.294  15.508  0.00  0.00    +0.000 HD
ENDBRANCH  17  20
ENDBRANCH   1  16
BRANCH   1  31
ATOM     31  C   UNL     1      47.073   4.510  15.084  0.00  0.00    +0.000 C 
BRANCH  31  32
ATOM     32  N   UNL     1      48.294   4.735  15.869  0.00  0.00    +0.000 NA
ATOM     33  H   UNL     1      49.101   4.561  15.270  0.00  0.00    +0.000 HD
ATOM     34  H   UNL     1      48.345   4.050  16.623  0.00  0.00    +0.000 HD
ENDBRANCH  31  32
ENDBRANCH   1  31
TORSDOF 8
ENDMDL
MODEL 5
REMARK VINA RESULT:    -7.253      1.496      2.265
REMARK INTER + INTRA:         -11.806
REMARK INTER:                 -10.738
REMARK INTRA:                  -1.068
REMARK UNBOUND:                -1.373
REMARK  Name = 
REMARK  8 active torsions:
REMARK  status: ('A' for Active; 'I' for Inactive)
REMARK    1  A    between atoms: N_1  and  C_2
REMARK    2  A    between atoms: C_2  and  C_3
REMARK    3  A    between atoms: C_3  and  N_4
REMARK    4  A    between atoms: C_3  and  C_17
REMARK    5  A    between atoms: C_5  and  C_7
REMARK    6  A    between atoms: C_20  and  O_21
REMARK    7  A    between atoms: O_21  and  C_22
REMARK    8  A    between atoms: C_22  and  C_23
REMARK                            x       y       z     vdW  Elec       q    Type
REMARK                         _______ _______ _______ _____ _____    ______ ____
ROOT
ATOM      1  C   UNL     1      48.601   7.058  13.578  0.00  0.00    +0.000 C 
ENDROOT
BRANCH   1   2
ATOM      2  C   UNL     1      47.458   6.295  12.909  0.00  0.00    +0.000 A 
ATOM      3  C   UNL     1      47.013   5.065  13.415  0.00  0.00    +0.000 A 
ATOM      4  C   UNL     1      45.914   4.415  12.840  0.00  0.00    +0.000 A 
ATOM      5  C   UNL     1      45.235   4.991  11.765  0.00  0.00    +0.000 A 
ATOM      6  C   UNL     1      45.706   6.184  11.221  0.00  0.00    +0.000 A 
ATOM      7  C   UNL     1      46.795   6.838  11.796  0.00  0.00    +0.000 A 
BRANCH   5   8
ATOM      8  O   UNL     1      44.121   4.324  11.327  0.00  0.00    +0.000 OA
BRANCH   8   9
ATOM      9  C   UNL     1      43.841   4.482   9.928  0.00  0.00    +0.000 C 
BRANCH   9  10
ATOM     10  C   UNL     1      44.785   3.672   9.071  0.00  0.00    +0.000 A 
ATOM     11  C   UNL     1      44.947   2.303   9.265  0.00  0.00    +0.000 A 
ATOM     12  C   UNL     1      45.844   1.612   8.454  0.00  0.00    +0.000 A 
ATOM     13  C   UNL     1      46.564   2.303   7.487  0.00  0.00    +0.000 A 
ATOM     14  C   UNL     1      46.363   3.666   7.372  0.00  0.00    +0.000 A 
ATOM     15  N   UNL     1      45.498   4.362   8.140  0.00  0.00    +0.000 NA
ENDBRANCH   9  10
ENDBRANCH   8   9
ENDBRANCH   5   8
ENDBRANCH   1   2
BRANCH   1  16
ATOM     16  N   UNL     1      48.330   7.091  15.011  0.00  0.00    +0.000 N 
ATOM     17  C   UNL     1      49.306   7.087  15.974  0.00  0.00    +0.000 C 
ATOM     18  O   UNL     1      50.499   7.212  15.724  0.00  0.00    +0.000 OA
ATOM     19  H   UNL     1      47.414   6.746  15.276  0.00  0.00    +0.000 HD
BRANCH  17  20
ATOM     20  C   UNL     1      48.819   6.990  17.353  0.00  0.00    +0.000 A 
ATOM     21  C   UNL     1      48.255   8.089  17.985  0.00  0.00    +0.000 A 
ATOM     22  S   UNL     1      47.713   7.753  19.571  0.00  0.00    +0.000 S 
ATOM     23  C   UNL     1      48.268   6.145  19.481  0.00  0.00    +0.000 A 
ATOM     24  N   UNL     1      48.137   5.291  20.535  0.00  0.00    +0.000 NA
ATOM     25  C   UNL     1      48.635   4.116  20.332  0.00  0.00    +0.000 A 
ATOM     26  N   UNL     1      49.246   3.713  19.174  0.00  0.00    +0.000 N 
ATOM     27  C   UNL     1      49.367   4.528  18.073  0.00  0.00    +0.000 A 
ATOM     28  O   UNL     1      49.851   4.114  17.029  0.00  0.00    +0.000 OA
ATOM     29  C   UNL     1      48.837   5.864  18.254  0.00  0.00    +0.000 A 
ATOM     30  H   UNL     1      49.600   2.774  19.071  0.00  0.00    +0.000 HD
ENDBRANCH  17  20
ENDBRANCH   1  16
BRANCH   1  31
ATOM     31  C   UNL     1      48.767   8.487  12.982  0.00  0.00    +0.000 C 
BRANCH  31  32
ATOM     32  N   UNL     1      49.972   8.670  12.162  0.00  0.00    +0.000 NA
ATOM     33  H   UNL     1      50.699   9.087  12.741  0.00  0.00    +0.000 HD
ATOM     34  H   UNL     1      49.780   9.341  11.418  0.00  0.00    +0.000 HD
ENDBRANCH  31  32
ENDBRANCH   1  31
TORSDOF 8
ENDMDL
MODEL 6
REMARK VINA RESULT:    -6.671      3.544      8.275
REMARK INTER + INTRA:         -10.968
REMARK INTER:                  -9.842
REMARK INTRA:                  -1.126
REMARK UNBOUND:                -1.373
REMARK  Name = 
REMARK  8 active torsions:
REMARK  status: ('A' for Active; 'I' for Inactive)
REMARK    1  A    between atoms: N_1  and  C_2
REMARK    2  A    between atoms: C_2  and  C_3
REMARK    3  A    between atoms: C_3  and  N_4
REMARK    4  A    between atoms: C_3  and  C_17
REMARK    5  A    between atoms: C_5  and  C_7
REMARK    6  A    between atoms: C_20  and  O_21
REMARK    7  A    between atoms: O_21  and  C_22
REMARK    8  A    between atoms: C_22  and  C_23
REMARK                            x       y       z     vdW  Elec       q    Type
REMARK                         _______ _______ _______ _____ _____    ______ ____
ROOT
ATOM      1  C   UNL     1      48.011   7.865  12.628  0.00  0.00    +0.000 C 
ENDROOT
BRANCH   1   2
ATOM      2  C   UNL     1      48.310   7.289  14.012  0.00  0.00    +0.000 A 
ATOM      3  C   UNL     1      47.865   6.011  14.378  0.00  0.00    +0.000 A 
ATOM      4  C   UNL     1      48.213   5.464  15.619  0.00  0.00    +0.000 A 
ATOM      5  C   UNL     1      49.023   6.178  16.504  0.00  0.00    +0.000 A 
ATOM      6  C   UNL     1      49.422   7.471  16.171  0.00  0.00    +0.000 A 
ATOM      7  C   UNL     1      49.084   8.015  14.933  0.00  0.00    +0.000 A 
BRANCH   5   8
ATOM      8  O   UNL     1      49.381   5.526  17.655  0.00  0.00    +0.000 OA
BRANCH   8   9
ATOM      9  C   UNL     1      50.795   5.351  17.827  0.00  0.00    +0.000 C 
BRANCH   9  10
ATOM     10  C   UNL     1      51.197   3.897  17.736  0.00  0.00    +0.000 A 
ATOM     11  C   UNL     1      52.440   3.459  18.182  0.00  0.00    +0.000 A 
ATOM     12  C   UNL     1      52.761   2.110  18.057  0.00  0.00    +0.000 A 
ATOM     13  C   UNL     1      51.845   1.240  17.478  0.00  0.00    +0.000 A 
ATOM     14  C   UNL     1      50.640   1.757  17.038  0.00  0.00    +0.000 A 
ATOM     15  N   UNL     1      50.300   3.058  17.149  0.00  0.00    +0.000 NA
ENDBRANCH   9  10
ENDBRANCH   8   9
ENDBRANCH   5   8
ENDBRANCH   1   2
BRANCH   1  16
ATOM     16  N   UNL     1      47.325   6.832  11.860  0.00  0.00    +0.000 N 
ATOM     17  C   UNL     1      46.039   6.951  11.397  0.00  0.00    +0.000 C 
ATOM     18  O   UNL     1      45.398   7.993  11.451  0.00  0.00    +0.000 OA
ATOM     19  H   UNL     1      47.686   5.895  11.996  0.00  0.00    +0.000 HD
BRANCH  17  20
ATOM     20  C   UNL     1      45.493   5.747  10.763  0.00  0.00    +0.000 A 
ATOM     21  C   UNL     1      45.652   5.530   9.401  0.00  0.00    +0.000 A 
ATOM     22  S   UNL     1      44.980   4.051   8.870  0.00  0.00    +0.000 S 
ATOM     23  C   UNL     1      44.407   3.685  10.432  0.00  0.00    +0.000 A 
ATOM     24  N   UNL     1      43.704   2.544  10.678  0.00  0.00    +0.000 NA
ATOM     25  C   UNL     1      43.306   2.418  11.901  0.00  0.00    +0.000 A 
ATOM     26  N   UNL     1      43.547   3.323  12.901  0.00  0.00    +0.000 N 
ATOM     27  C   UNL     1      44.283   4.468  12.707  0.00  0.00    +0.000 A 
ATOM     28  O   UNL     1      44.545   5.218  13.637  0.00  0.00    +0.000 OA
ATOM     29  C   UNL     1      44.742   4.664  11.347  0.00  0.00    +0.000 A 
ATOM     30  H   UNL     1      43.224   3.159  13.842  0.00  0.00    +0.000 HD
ENDBRANCH  17  20
ENDBRANCH   1  16
BRANCH   1  31
ATOM     31  C   UNL     1      49.306   8.360  11.917  0.00  0.00    +0.000 C 
BRANCH  31  32
ATOM     32  N   UNL     1      50.334   7.327  11.732  0.00  0.00    +0.000 NA
ATOM     33  H   UNL     1      49.947   6.585  11.150  0.00  0.00    +0.000 HD
ATOM     34  H   UNL     1      50.554   6.900  12.631  0.00  0.00    +0.000 HD
ENDBRANCH  31  32
ENDBRANCH   1  31
TORSDOF 8
ENDMDL
MODEL 7
REMARK VINA RESULT:    -6.655      4.059      6.484
REMARK INTER + INTRA:         -10.946
REMARK INTER:                  -9.591
REMARK INTRA:                  -1.355
REMARK UNBOUND:                -1.373
REMARK  Name = 
REMARK  8 active torsions:
REMARK  status: ('A' for Active; 'I' for Inactive)
REMARK    1  A    between atoms: N_1  and  C_2
REMARK    2  A    between atoms: C_2  and  C_3
REMARK    3  A    between atoms: C_3  and  N_4
REMARK    4  A    between atoms: C_3  and  C_17
REMARK    5  A    between atoms: C_5  and  C_7
REMARK    6  A    between atoms: C_20  and  O_21
REMARK    7  A    between atoms: O_21  and  C_22
REMARK    8  A    between atoms: C_22  and  C_23
REMARK                            x       y       z     vdW  Elec       q    Type
REMARK                         _______ _______ _______ _____ _____    ______ ____
ROOT
ATOM      1  C   UNL     1      49.460   5.055  19.741  0.00  0.00    +0.000 C 
ENDROOT
BRANCH   1   2
ATOM      2  C   UNL     1      48.711   4.685  18.461  0.00  0.00    +0.000 A 
ATOM      3  C   UNL     1      48.665   5.563  17.368  0.00  0.00    +0.000 A 
ATOM      4  C   UNL     1      48.043   5.179  16.174  0.00  0.00    +0.000 A 
ATOM      5  C   UNL     1      47.477   3.910  16.047  0.00  0.00    +0.000 A 
ATOM      6  C   UNL     1      47.468   3.054  17.147  0.00  0.00    +0.000 A 
ATOM      7  C   UNL     1      48.094   3.429  18.335  0.00  0.00    +0.000 A 
BRANCH   5   8
ATOM      8  O   UNL     1      46.970   3.595  14.814  0.00  0.00    +0.000 OA
BRANCH   8   9
ATOM      9  C   UNL     1      46.726   4.725  13.963  0.00  0.00    +0.000 C 
BRANCH   9  10
ATOM     10  C   UNL     1      45.422   4.591  13.210  0.00  0.00    +0.000 A 
ATOM     11  C   UNL     1      44.616   5.696  12.954  0.00  0.00    +0.000 A 
ATOM     12  C   UNL     1      43.418   5.508  12.270  0.00  0.00    +0.000 A 
ATOM     13  C   UNL     1      43.049   4.228  11.876  0.00  0.00    +0.000 A 
ATOM     14  C   UNL     1      43.893   3.179  12.190  0.00  0.00    +0.000 A 
ATOM     15  N   UNL     1      45.062   3.330  12.847  0.00  0.00    +0.000 NA
ENDBRANCH   9  10
ENDBRANCH   8   9
ENDBRANCH   5   8
ENDBRANCH   1   2
BRANCH   1  16
ATOM     16  N   UNL     1      50.691   4.274  19.773  0.00  0.00    +0.000 N 
ATOM     17  C   UNL     1      51.860   4.665  19.172  0.00  0.00    +0.000 C 
ATOM     18  O   UNL     1      52.026   5.776  18.681  0.00  0.00    +0.000 OA
ATOM     19  H   UNL     1      50.559   3.282  19.931  0.00  0.00    +0.000 HD
BRANCH  17  20
ATOM     20  C   UNL     1      52.941   3.676  19.210  0.00  0.00    +0.000 A 
ATOM     21  C   UNL     1      54.092   3.912  19.949  0.00  0.00    +0.000 A 
ATOM     22  S   UNL     1      55.206   2.617  19.896  0.00  0.00    +0.000 S 
ATOM     23  C   UNL     1      54.211   1.728  18.838  0.00  0.00    +0.000 A 
ATOM     24  N   UNL     1      54.590   0.507  18.368  0.00  0.00    +0.000 NA
ATOM     25  C   UNL     1      53.749  -0.032  17.548  0.00  0.00    +0.000 A 
ATOM     26  N   UNL     1      52.563   0.533  17.158  0.00  0.00    +0.000 N 
ATOM     27  C   UNL     1      52.123   1.744  17.635  0.00  0.00    +0.000 A 
ATOM     28  O   UNL     1      51.025   2.186  17.326  0.00  0.00    +0.000 OA
ATOM     29  C   UNL     1      53.038   2.399  18.549  0.00  0.00    +0.000 A 
ATOM     30  H   UNL     1      51.940   0.052  16.527  0.00  0.00    +0.000 HD
ENDBRANCH  17  20
ENDBRANCH   1  16
BRANCH   1  31
ATOM     31  C   UNL     1      48.585   4.820  21.009  0.00  0.00    +0.000 C 
BRANCH  31  32
ATOM     32  N   UNL     1      47.331   5.584  21.036  0.00  0.00    +0.000 NA
ATOM     33  H   UNL     1      46.577   4.982  20.708  0.00  0.00    +0.000 HD
ATOM     34  H   UNL     1      47.389   6.357  20.373  0.00  0.00    +0.000 HD
ENDBRANCH  31  32
ENDBRANCH   1  31
TORSDOF 8
ENDMDL
MODEL 8
REMARK VINA RESULT:    -6.425      2.286      2.944
REMARK INTER + INTRA:         -10.615
REMARK INTER:                  -9.254
REMARK INTRA:                  -1.361
REMARK UNBOUND:                -1.373
REMARK  Name = 
REMARK  8 active torsions:
REMARK  status: ('A' for Active; 'I' for Inactive)
REMARK    1  A    between atoms: N_1  and  C_2
REMARK    2  A    between atoms: C_2  and  C_3
REMARK    3  A    between atoms: C_3  and  N_4
REMARK    4  A    between atoms: C_3  and  C_17
REMARK    5  A    between atoms: C_5  and  C_7
REMARK    6  A    between atoms: C_20  and  O_21
REMARK    7  A    between atoms: O_21  and  C_22
REMARK    8  A    between atoms: C_22  and  C_23
REMARK                            x       y       z     vdW  Elec       q    Type
REMARK                         _______ _______ _______ _____ _____    ______ ____
ROOT
ATOM      1  C   UNL     1      48.903   8.542  14.345  0.00  0.00    +0.000 C 
ENDROOT
BRANCH   1   2
ATOM      2  C   UNL     1      47.803   7.995  13.436  0.00  0.00    +0.000 A 
ATOM      3  C   UNL     1      46.493   8.491  13.503  0.00  0.00    +0.000 A 
ATOM      4  C   UNL     1      45.514   8.037  12.611  0.00  0.00    +0.000 A 
ATOM      5  C   UNL     1      45.833   7.097  11.630  0.00  0.00    +0.000 A 
ATOM      6  C   UNL     1      47.118   6.557  11.594  0.00  0.00    +0.000 A 
ATOM      7  C   UNL     1      48.097   7.013  12.475  0.00  0.00    +0.000 A 
BRANCH   5   8
ATOM      8  O   UNL     1      44.832   6.780  10.749  0.00  0.00    +0.000 OA
BRANCH   8   9
ATOM      9  C   UNL     1      44.172   5.534  11.019  0.00  0.00    +0.000 C 
BRANCH   9  10
ATOM     10  C   UNL     1      44.612   4.447  10.066  0.00  0.00    +0.000 A 
ATOM     11  C   UNL     1      45.371   4.736   8.936  0.00  0.00    +0.000 A 
ATOM     12  C   UNL     1      45.733   3.695   8.085  0.00  0.00    +0.000 A 
ATOM     13  C   UNL     1      45.317   2.401   8.373  0.00  0.00    +0.000 A 
ATOM     14  C   UNL     1      44.545   2.199   9.502  0.00  0.00    +0.000 A 
ATOM     15  N   UNL     1      44.182   3.187  10.348  0.00  0.00    +0.000 NA
ENDBRANCH   9  10
ENDBRANCH   8   9
ENDBRANCH   5   8
ENDBRANCH   1   2
BRANCH   1  16
ATOM     16  N   UNL     1      48.982   7.672  15.514  0.00  0.00    +0.000 N 
ATOM     17  C   UNL     1      50.105   6.969  15.868  0.00  0.00    +0.000 C 
ATOM     18  O   UNL     1      51.195   7.122  15.328  0.00  0.00    +0.000 OA
ATOM     19  H   UNL     1      48.090   7.318  15.838  0.00  0.00    +0.000 HD
BRANCH  17  20
ATOM     20  C   UNL     1      49.933   6.053  17.000  0.00  0.00    +0.000 A 
ATOM     21  C   UNL     1      50.746   6.151  18.121  0.00  0.00    +0.000 A 
ATOM     22  S   UNL     1      50.354   5.020  19.341  0.00  0.00    +0.000 S 
ATOM     23  C   UNL     1      49.126   4.328  18.384  0.00  0.00    +0.000 A 
ATOM     24  N   UNL     1      48.392   3.271  18.831  0.00  0.00    +0.000 NA
ATOM     25  C   UNL     1      47.521   2.832  17.984  0.00  0.00    +0.000 A 
ATOM     26  N   UNL     1      47.311   3.354  16.734  0.00  0.00    +0.000 N 
ATOM     27  C   UNL     1      48.001   4.442  16.256  0.00  0.00    +0.000 A 
ATOM     28  O   UNL     1      47.739   4.930  15.166  0.00  0.00    +0.000 OA
ATOM     29  C   UNL     1      49.003   4.964  17.164  0.00  0.00    +0.000 A 
ATOM     30  H   UNL     1      46.601   2.977  16.124  0.00  0.00    +0.000 HD
ENDBRANCH  17  20
ENDBRANCH   1  16
BRANCH   1  31
ATOM     31  C   UNL     1      48.642  10.027  14.738  0.00  0.00    +0.000 C 
BRANCH  31  32
ATOM     32  N   UNL     1      49.580  10.571  15.728  0.00  0.00    +0.000 NA
ATOM     33  H   UNL     1      50.516  10.569  15.325  0.00  0.00    +0.000 HD
ATOM     34  H   UNL     1      49.617   9.953  16.538  0.00  0.00    +0.000 HD
ENDBRANCH  31  32
ENDBRANCH   1  31
TORSDOF 8
ENDMDL
MODEL 9
REMARK VINA RESULT:    -6.343      2.658      8.325
REMARK INTER + INTRA:         -10.497
REMARK INTER:                  -9.134
REMARK INTRA:                  -1.363
REMARK UNBOUND:                -1.373
REMARK  Name = 
REMARK  8 active torsions:
REMARK  status: ('A' for Active; 'I' for Inactive)
REMARK    1  A    between atoms: N_1  and  C_2
REMARK    2  A    between atoms: C_2  and  C_3
REMARK    3  A    between atoms: C_3  and  N_4
REMARK    4  A    between atoms: C_3  and  C_17
REMARK    5  A    between atoms: C_5  and  C_7
REMARK    6  A    between atoms: C_20  and  O_21
REMARK    7  A    between atoms: O_21  and  C_22
REMARK    8  A    between atoms: C_22  and  C_23
REMARK                            x       y       z     vdW  Elec       q    Type
REMARK                         _______ _______ _______ _____ _____    ______ ____
ROOT
ATOM      1  C   UNL     1      48.026   8.129  12.357  0.00  0.00    +0.000 C 
ENDROOT
BRANCH   1   2
ATOM      2  C   UNL     1      48.496   8.050  13.809  0.00  0.00    +0.000 A 
ATOM      3  C   UNL     1      47.910   8.845  14.805  0.00  0.00    +0.000 A 
ATOM      4  C   UNL     1      48.296   8.706  16.144  0.00  0.00    +0.000 A 
ATOM      5  C   UNL     1      49.256   7.761  16.509  0.00  0.00    +0.000 A 
ATOM      6  C   UNL     1      49.884   7.008  15.518  0.00  0.00    +0.000 A 
ATOM      7  C   UNL     1      49.496   7.139  14.185  0.00  0.00    +0.000 A 
BRANCH   5   8
ATOM      8  O   UNL     1      49.504   7.639  17.851  0.00  0.00    +0.000 OA
BRANCH   8   9
ATOM      9  C   UNL     1      48.511   6.897  18.576  0.00  0.00    +0.000 C 
BRANCH   9  10
ATOM     10  C   UNL     1      48.463   5.450  18.143  0.00  0.00    +0.000 A 
ATOM     11  C   UNL     1      47.271   4.851  17.745  0.00  0.00    +0.000 A 
ATOM     12  C   UNL     1      47.286   3.509  17.373  0.00  0.00    +0.000 A 
ATOM     13  C   UNL     1      48.479   2.799  17.422  0.00  0.00    +0.000 A 
ATOM     14  C   UNL     1      49.616   3.460  17.851  0.00  0.00    +0.000 A 
ATOM     15  N   UNL     1      49.634   4.760  18.214  0.00  0.00    +0.000 NA
ENDBRANCH   9  10
ENDBRANCH   8   9
ENDBRANCH   5   8
ENDBRANCH   1   2
BRANCH   1  16
ATOM     16  N   UNL     1      47.112   7.015  12.128  0.00  0.00    +0.000 N 
ATOM     17  C   UNL     1      45.755   7.155  11.993  0.00  0.00    +0.000 C 
ATOM     18  O   UNL     1      45.195   8.241  11.899  0.00  0.00    +0.000 OA
ATOM     19  H   UNL     1      47.459   6.115  12.437  0.00  0.00    +0.000 HD
BRANCH  17  20
ATOM     20  C   UNL     1      45.006   5.898  11.902  0.00  0.00    +0.000 A 
ATOM     21  C   UNL     1      44.240   5.449  12.968  0.00  0.00    +0.000 A 
ATOM     22  S   UNL     1      43.416   3.989  12.642  0.00  0.00    +0.000 S 
ATOM     23  C   UNL     1      44.103   3.882  11.087  0.00  0.00    +0.000 A 
ATOM     24  N   UNL     1      43.828   2.833  10.263  0.00  0.00    +0.000 NA
ATOM     25  C   UNL     1      44.448   2.870   9.129  0.00  0.00    +0.000 A 
ATOM     26  N   UNL     1      45.312   3.860   8.741  0.00  0.00    +0.000 N 
ATOM     27  C   UNL     1      45.589   4.956   9.524  0.00  0.00    +0.000 A 
ATOM     28  O   UNL     1      46.306   5.860   9.118  0.00  0.00    +0.000 OA
ATOM     29  C   UNL     1      44.929   4.955  10.814  0.00  0.00    +0.000 A 
ATOM     30  H   UNL     1      45.752   3.842   7.833  0.00  0.00    +0.000 HD
ENDBRANCH  17  20
ENDBRANCH   1  16
BRANCH   1  31
ATOM     31  C   UNL     1      49.224   8.118  11.361  0.00  0.00    +0.000 C 
BRANCH  31  32
ATOM     32  N   UNL     1      50.027   9.348  11.359  0.00  0.00    +0.000 NA
ATOM     33  H   UNL     1      49.886   9.826  10.470  0.00  0.00    +0.000 HD
ATOM     34  H   UNL     1      51.018   9.107  11.400  0.00  0.00    +0.000 HD
ENDBRANCH  31  32
ENDBRANCH   1  31
TORSDOF 8
ENDMDL
