MODEL 1
REMARK VINA RESULT:    -8.449      0.000      0.000
REMARK INTER + INTRA:         -11.612
REMARK INTER:                 -10.919
REMARK INTRA:                  -0.693
REMARK UNBOUND:                -0.693
REMARK  Name = 
REMARK  5 active torsions:
REMARK  status: ('A' for Active; 'I' for Inactive)
REMARK    1  A    between atoms: C_2  and  C_18
REMARK    2  A    between atoms: N_3  and  C_4
REMARK    3  A    between atoms: C_4  and  C_5
REMARK    4  A    between atoms: C_8  and  C_9
REMARK    5  A    between atoms: C_9  and  C_10
REMARK                            x       y       z     vdW  Elec       q    Type
REMARK                         _______ _______ _______ _____ _____    ______ ____
ROOT
ATOM      1  O   UNL     1      47.181   3.254  14.037  0.00  0.00    +0.000 OA
ATOM      2  C   UNL     1      46.910   4.417  14.318  0.00  0.00    +0.000 C 
ATOM      3  N   UNL     1      45.725   5.038  14.006  0.00  0.00    +0.000 N 
ATOM      4  H   UNL     1      45.533   5.925  14.448  0.00  0.00    +0.000 HD
ENDROOT
BRANCH   2   5
ATOM      5  C   UNL     1      47.708   5.230  15.226  0.00  0.00    +0.000 A 
ATOM      6  C   UNL     1      48.349   6.390  14.828  0.00  0.00    +0.000 A 
ATOM      7  S   UNL     1      49.625   6.806  15.900  0.00  0.00    +0.000 S 
ATOM      8  C   UNL     1      49.238   5.519  16.951  0.00  0.00    +0.000 A 
ATOM      9  N   UNL     1      50.023   5.168  18.004  0.00  0.00    +0.000 NA
ATOM     10  C   UNL     1      49.550   4.194  18.715  0.00  0.00    +0.000 A 
ATOM     11  N   UNL     1      48.337   3.581  18.506  0.00  0.00    +0.000 N 
ATOM     12  C   UNL     1      47.502   3.919  17.471  0.00  0.00    +0.000 A 
ATOM     13  O   UNL     1      46.388   3.425  17.340  0.00  0.00    +0.000 OA
ATOM     14  C   UNL     1      48.066   4.902  16.572  0.00  0.00    +0.000 A 
ATOM     15  H   UNL     1      47.989   2.884  19.149  0.00  0.00    +0.000 HD
ENDBRANCH   2   5
BRANCH   3  16
ATOM     16  C   UNL     1      44.582   4.320  13.514  0.00  0.00    +0.000 C 
BRANCH  16  17
ATOM     17  C   UNL     1      44.625   4.246  12.015  0.00  0.00    +0.000 A 
ATOM     18  C   UNL     1      45.352   5.165  11.258  0.00  0.00    +0.000 A 
ATOM     19  C   UNL     1      45.384   5.050   9.868  0.00  0.00    +0.000 A 
ATOM     20  C   UNL     1      44.673   4.017   9.262  0.00  0.00    +0.000 A 
ATOM     21  N   UNL     1      43.904   3.155   9.971  0.00  0.00    +0.000 NA
ATOM     22  C   UNL     1      43.898   3.286  11.319  0.00  0.00    +0.000 A 
BRANCH  20  23
ATOM     23  C   UNL     1      44.746   3.800   7.768  0.00  0.00    +0.000 C 
BRANCH  23  24
ATOM     24  C   UNL     1      45.923   2.996   7.311  0.00  0.00    +0.000 A 
ATOM     25  C   UNL     1      46.287   1.806   7.911  0.00  0.00    +0.000 A 
ATOM     26  N   UNL     1      47.326   1.049   7.513  0.00  0.00    +0.000 NA
ATOM     27  C   UNL     1      48.013   1.514   6.459  0.00  0.00    +0.000 A 
ATOM     28  N   UNL     1      47.755   2.644   5.785  0.00  0.00    +0.000 NA
ATOM     29  C   UNL     1      46.701   3.360   6.228  0.00  0.00    +0.000 A 
ENDBRANCH  23  24
ENDBRANCH  20  23
ENDBRANCH  16  17
ENDBRANCH   3  16
TORSDOF 5
ENDMDL
MODEL 2
REMARK VINA RESULT:    -7.821      1.709      2.886
REMARK INTER + INTRA:         -10.801
REMARK INTER:                  -9.825
REMARK INTRA:                  -0.976
REMARK UNBOUND:                -0.693
REMARK  Name = 
REMARK  5 active torsions:
REMARK  status: ('A' for Active; 'I' for Inactive)
REMARK    1  A    between atoms: C_2  and  C_18
REMARK    2  A    between atoms: N_3  and  C_4
REMARK    3  A    between atoms: C_4  and  C_5
REMARK    4  A    between atoms: C_8  and  C_9
REMARK    5  A    between atoms: C_9  and  C_10
REMARK                            x       y       z     vdW  Elec       q    Type
REMARK                         _______ _______ _______ _____ _____    ______ ____
ROOT
ATOM      1  O   UNL     1      47.123   3.437  14.472  0.00  0.00    +0.000 OA
ATOM      2  C   UNL     1      47.067   4.662  14.503  0.00  0.00    +0.000 C 
ATOM      3  N   UNL     1      46.010   5.406  14.037  0.00  0.00    +0.000 N 
ATOM      4  H   UNL     1      45.984   6.385  14.285  0.00  0.00    +0.000 HD
ENDROOT
BRANCH   2   5
ATOM      5  C   UNL     1      48.006   5.491  15.250  0.00  0.00    +0.000 A 
ATOM      6  C   UNL     1      48.349   5.235  16.566  0.00  0.00    +0.000 A 
ATOM      7  S   UNL     1      48.988   6.632  17.334  0.00  0.00    +0.000 S 
ATOM      8  C   UNL     1      48.924   7.529  15.884  0.00  0.00    +0.000 A 
ATOM      9  N   UNL     1      49.166   8.865  15.835  0.00  0.00    +0.000 NA
ATOM     10  C   UNL     1      49.112   9.369  14.643  0.00  0.00    +0.000 A 
ATOM     11  N   UNL     1      48.899   8.650  13.491  0.00  0.00    +0.000 N 
ATOM     12  C   UNL     1      48.674   7.296  13.491  0.00  0.00    +0.000 A 
ATOM     13  O   UNL     1      48.566   6.650  12.455  0.00  0.00    +0.000 OA
ATOM     14  C   UNL     1      48.582   6.727  14.817  0.00  0.00    +0.000 A 
ATOM     15  H   UNL     1      48.953   9.092  12.584  0.00  0.00    +0.000 HD
ENDBRANCH   2   5
BRANCH   3  16
ATOM     16  C   UNL     1      44.753   4.817  13.669  0.00  0.00    +0.000 C 
BRANCH  16  17
ATOM     17  C   UNL     1      44.712   4.572  12.188  0.00  0.00    +0.000 A 
ATOM     18  C   UNL     1      45.421   5.375  11.295  0.00  0.00    +0.000 A 
ATOM     19  C   UNL     1      45.374   5.102   9.927  0.00  0.00    +0.000 A 
ATOM     20  C   UNL     1      44.604   4.029   9.481  0.00  0.00    +0.000 A 
ATOM     21  N   UNL     1      43.853   3.279  10.324  0.00  0.00    +0.000 NA
ATOM     22  C   UNL     1      43.923   3.563  11.646  0.00  0.00    +0.000 A 
BRANCH  20  23
ATOM     23  C   UNL     1      44.590   3.642   8.020  0.00  0.00    +0.000 C 
BRANCH  23  24
ATOM     24  C   UNL     1      45.770   2.834   7.578  0.00  0.00    +0.000 A 
ATOM     25  C   UNL     1      46.681   3.297   6.650  0.00  0.00    +0.000 A 
ATOM     26  N   UNL     1      47.764   2.606   6.246  0.00  0.00    +0.000 NA
ATOM     27  C   UNL     1      47.929   1.403   6.817  0.00  0.00    +0.000 A 
ATOM     28  N   UNL     1      47.126   0.848   7.736  0.00  0.00    +0.000 NA
ATOM     29  C   UNL     1      46.059   1.588   8.102  0.00  0.00    +0.000 A 
ENDBRANCH  23  24
ENDBRANCH  20  23
ENDBRANCH  16  17
ENDBRANCH   3  16
TORSDOF 5
ENDMDL
MODEL 3
REMARK VINA RESULT:    -7.777      2.950      8.649
REMARK INTER + INTRA:         -10.744
REMARK INTER:                  -9.876
REMARK INTRA:                  -0.868
REMARK UNBOUND:                -0.693
REMARK  Name = 
REMARK  5 active torsions:
REMARK  status: ('A' for Active; 'I' for Inactive)
REMARK    1  A    between atoms: C_2  and  C_18
REMARK    2  A    between atoms: N_3  and  C_4
REMARK    3  A    between atoms: C_4  and  C_5
REMARK    4  A    between atoms: C_8  and  C_9
REMARK    5  A    between atoms: C_9  and  C_10
REMARK                            x       y       z     vdW  Elec       q    Type
REMARK                         _______ _______ _______ _____ _____    ______ ____
ROOT
ATOM      1  O   UNL     1      44.988   7.325  11.522  0.00  0.00    +0.000 OA
ATOM      2  C   UNL     1      45.427   6.180  11.481  0.00  0.00    +0.000 C 
ATOM      3  N   UNL     1      46.645   5.794  11.986  0.00  0.00    +0.000 N 
ATOM      4  H   UNL     1      46.823   4.804  12.071  0.00  0.00    +0.000 HD
ENDROOT
BRANCH   2   5
ATOM      5  C   UNL     1      44.623   5.024  11.104  0.00  0.00    +0.000 A 
ATOM      6  C   UNL     1      43.593   4.539  11.891  0.00  0.00    +0.000 A 
ATOM      7  S   UNL     1      43.221   2.907  11.507  0.00  0.00    +0.000 S 
ATOM      8  C   UNL     1      44.339   2.895  10.218  0.00  0.00    +0.000 A 
ATOM      9  N   UNL     1      44.669   1.764   9.541  0.00  0.00    +0.000 NA
ATOM     10  C   UNL     1      45.503   1.954   8.568  0.00  0.00    +0.000 A 
ATOM     11  N   UNL     1      45.989   3.177   8.172  0.00  0.00    +0.000 N 
ATOM     12  C   UNL     1      45.664   4.348   8.811  0.00  0.00    +0.000 A 
ATOM     13  O   UNL     1      46.036   5.442   8.403  0.00  0.00    +0.000 OA
ATOM     14  C   UNL     1      44.851   4.154   9.991  0.00  0.00    +0.000 A 
ATOM     15  H   UNL     1      46.571   3.265   7.351  0.00  0.00    +0.000 HD
ENDBRANCH   2   5
BRANCH   3  16
ATOM     16  C   UNL     1      47.441   6.649  12.822  0.00  0.00    +0.000 C 
BRANCH  16  17
ATOM     17  C   UNL     1      47.703   5.983  14.142  0.00  0.00    +0.000 A 
ATOM     18  C   UNL     1      46.991   4.854  14.545  0.00  0.00    +0.000 A 
ATOM     19  C   UNL     1      47.277   4.251  15.769  0.00  0.00    +0.000 A 
ATOM     20  C   UNL     1      48.272   4.802  16.574  0.00  0.00    +0.000 A 
ATOM     21  N   UNL     1      48.930   5.938  16.235  0.00  0.00    +0.000 NA
ATOM     22  C   UNL     1      48.634   6.498  15.037  0.00  0.00    +0.000 A 
BRANCH  20  23
ATOM     23  C   UNL     1      48.678   4.136  17.869  0.00  0.00    +0.000 C 
BRANCH  23  24
ATOM     24  C   UNL     1      49.912   3.294  17.776  0.00  0.00    +0.000 A 
ATOM     25  C   UNL     1      49.918   2.049  17.178  0.00  0.00    +0.000 A 
ATOM     26  N   UNL     1      51.014   1.276  17.059  0.00  0.00    +0.000 NA
ATOM     27  C   UNL     1      52.146   1.793  17.559  0.00  0.00    +0.000 A 
ATOM     28  N   UNL     1      52.273   2.990  18.151  0.00  0.00    +0.000 NA
ATOM     29  C   UNL     1      51.143   3.721  18.239  0.00  0.00    +0.000 A 
ENDBRANCH  23  24
ENDBRANCH  20  23
ENDBRANCH  16  17
ENDBRANCH   3  16
TORSDOF 5
ENDMDL
MODEL 4
REMARK VINA RESULT:    -7.463      1.899      2.329
REMARK INTER + INTRA:         -10.338
REMARK INTER:                 -10.174
REMARK INTRA:                  -0.163
REMARK UNBOUND:                -0.693
REMARK  Name = 
REMARK  5 active torsions:
REMARK  status: ('A' for Active; 'I' for Inactive)
REMARK    1  A    between atoms: C_2  and  C_18
REMARK    2  A    between atoms: N_3  and  C_4
REMARK    3  A    between atoms: C_4  and  C_5
REMARK    4  A    between atoms: C_8  and  C_9
REMARK    5  A    between atoms: C_9  and  C_10
REMARK                            x       y       z     vdW  Elec       q    Type
REMARK                         _______ _______ _______ _____ _____    ______ ____
ROOT
ATOM      1  O   UNL     1      48.107   6.447  12.694  0.00  0.00    +0.000 OA
ATOM      2  C   UNL     1      47.343   6.233  13.630  0.00  0.00    +0.000 C 
ATOM      3  N   UNL     1      46.000   6.525  13.622  0.00  0.00    +0.000 N 
ATOM      4  H   UNL     1      45.433   6.135  14.361  0.00  0.00    +0.000 HD
ENDROOT
BRANCH   2   5
ATOM      5  C   UNL     1      47.699   5.424  14.790  0.00  0.00    +0.000 A 
ATOM      6  C   UNL     1      47.150   4.177  15.031  0.00  0.00    +0.000 A 
ATOM      7  S   UNL     1      47.304   3.731  16.683  0.00  0.00    +0.000 S 
ATOM      8  C   UNL     1      48.207   5.134  17.038  0.00  0.00    +0.000 A 
ATOM      9  N   UNL     1      48.538   5.494  18.306  0.00  0.00    +0.000 NA
ATOM     10  C   UNL     1      49.261   6.566  18.380  0.00  0.00    +0.000 A 
ATOM     11  N   UNL     1      49.733   7.276  17.302  0.00  0.00    +0.000 N 
ATOM     12  C   UNL     1      49.444   6.935  16.004  0.00  0.00    +0.000 A 
ATOM     13  O   UNL     1      49.934   7.524  15.048  0.00  0.00    +0.000 OA
ATOM     14  C   UNL     1      48.519   5.829  15.890  0.00  0.00    +0.000 A 
ATOM     15  H   UNL     1      50.362   8.056  17.427  0.00  0.00    +0.000 HD
ENDBRANCH   2   5
BRANCH   3  16
ATOM     16  C   UNL     1      45.299   6.907  12.428  0.00  0.00    +0.000 C 
BRANCH  16  17
ATOM     17  C   UNL     1      45.203   5.739  11.489  0.00  0.00    +0.000 A 
ATOM     18  C   UNL     1      45.643   5.825  10.169  0.00  0.00    +0.000 A 
ATOM     19  C   UNL     1      45.556   4.711   9.333  0.00  0.00    +0.000 A 
ATOM     20  C   UNL     1      45.017   3.531   9.840  0.00  0.00    +0.000 A 
ATOM     21  N   UNL     1      44.519   3.444  11.098  0.00  0.00    +0.000 NA
ATOM     22  C   UNL     1      44.623   4.540  11.888  0.00  0.00    +0.000 A 
BRANCH  20  23
ATOM     23  C   UNL     1      44.980   2.274   9.001  0.00  0.00    +0.000 C 
BRANCH  23  24
ATOM     24  C   UNL     1      45.976   2.242   7.883  0.00  0.00    +0.000 A 
ATOM     25  C   UNL     1      46.927   1.248   7.764  0.00  0.00    +0.000 A 
ATOM     26  N   UNL     1      47.822   1.178   6.761  0.00  0.00    +0.000 NA
ATOM     27  C   UNL     1      47.738   2.150   5.840  0.00  0.00    +0.000 A 
ATOM     28  N   UNL     1      46.856   3.160   5.836  0.00  0.00    +0.000 NA
ATOM     29  C   UNL     1      45.983   3.177   6.864  0.00  0.00    +0.000 A 
ENDBRANCH  23  24
ENDBRANCH  20  23
ENDBRANCH  16  17
ENDBRANCH   3  16
TORSDOF 5
ENDMDL
MODEL 5
REMARK VINA RESULT:    -7.334      3.132      4.747
REMARK INTER + INTRA:         -10.172
REMARK INTER:                  -8.854
REMARK INTRA:                  -1.317
REMARK UNBOUND:                -0.693
REMARK  Name = 
REMARK  5 active torsions:
REMARK  status: ('A' for Active; 'I' for Inactive)
REMARK    1  A    between atoms: C_2  and  C_18
REMARK    2  A    between atoms: N_3  and  C_4
REMARK    3  A    between atoms: C_4  and  C_5
REMARK    4  A    between atoms: C_8  and  C_9
REMARK    5  A    between atoms: C_9  and  C_10
REMARK                            x       y       z     vdW  Elec       q    Type
REMARK                         _______ _______ _______ _____ _____    ______ ____
ROOT
ATOM      1  O   UNL     1      50.978   6.647  15.519  0.00  0.00    +0.000 OA
ATOM      2  C   UNL     1      49.946   7.049  16.046  0.00  0.00    +0.000 C 
ATOM      3  N   UNL     1      49.106   7.989  15.499  0.00  0.00    +0.000 N 
ATOM      4  H   UNL     1      48.196   8.104  15.921  0.00  0.00    +0.000 HD
ENDROOT
BRANCH   2   5
ATOM      5  C   UNL     1      49.341   6.418  17.213  0.00  0.00    +0.000 A 
ATOM      6  C   UNL     1      49.618   6.816  18.509  0.00  0.00    +0.000 A 
ATOM      7  S   UNL     1      49.238   5.583  19.642  0.00  0.00    +0.000 S 
ATOM      8  C   UNL     1      48.591   4.581  18.422  0.00  0.00    +0.000 A 
ATOM      9  N   UNL     1      48.224   3.292  18.646  0.00  0.00    +0.000 NA
ATOM     10  C   UNL     1      47.716   2.699  17.613  0.00  0.00    +0.000 A 
ATOM     11  N   UNL     1      47.485   3.294  16.396  0.00  0.00    +0.000 N 
ATOM     12  C   UNL     1      47.816   4.599  16.132  0.00  0.00    +0.000 A 
ATOM     13  O   UNL     1      47.533   5.145  15.072  0.00  0.00    +0.000 OA
ATOM     14  C   UNL     1      48.519   5.247  17.217  0.00  0.00    +0.000 A 
ATOM     15  H   UNL     1      47.007   2.799  15.657  0.00  0.00    +0.000 HD
ENDBRANCH   2   5
BRANCH   3  16
ATOM     16  C   UNL     1      49.229   8.438  14.140  0.00  0.00    +0.000 C 
BRANCH  16  17
ATOM     17  C   UNL     1      48.029   8.013  13.344  0.00  0.00    +0.000 A 
ATOM     18  C   UNL     1      48.134   7.099  12.296  0.00  0.00    +0.000 A 
ATOM     19  C   UNL     1      46.992   6.713  11.593  0.00  0.00    +0.000 A 
ATOM     20  C   UNL     1      45.763   7.262  11.953  0.00  0.00    +0.000 A 
ATOM     21  N   UNL     1      45.648   8.204  12.923  0.00  0.00    +0.000 NA
ATOM     22  C   UNL     1      46.772   8.554  13.591  0.00  0.00    +0.000 A 
BRANCH  20  23
ATOM     23  C   UNL     1      44.487   6.812  11.280  0.00  0.00    +0.000 C 
BRANCH  23  24
ATOM     24  C   UNL     1      44.091   5.399  11.577  0.00  0.00    +0.000 A 
ATOM     25  C   UNL     1      43.781   4.491  10.585  0.00  0.00    +0.000 A 
ATOM     26  N   UNL     1      43.441   3.209  10.816  0.00  0.00    +0.000 NA
ATOM     27  C   UNL     1      43.427   2.836  12.105  0.00  0.00    +0.000 A 
ATOM     28  N   UNL     1      43.718   3.617  13.156  0.00  0.00    +0.000 NA
ATOM     29  C   UNL     1      44.053   4.890  12.862  0.00  0.00    +0.000 A 
ENDBRANCH  23  24
ENDBRANCH  20  23
ENDBRANCH  16  17
ENDBRANCH   3  16
TORSDOF 5
ENDMDL
MODEL 6
REMARK VINA RESULT:    -7.331      2.147      3.200
REMARK INTER + INTRA:         -10.167
REMARK INTER:                  -9.306
REMARK INTRA:                  -0.861
REMARK UNBOUND:                -0.693
REMARK  Name = 
REMARK  5 active torsions:
REMARK  status: ('A' for Active; 'I' for Inactive)
REMARK    1  A    between atoms: C_2  and  C_18
REMARK    2  A    between atoms: N_3  and  C_4
REMARK    3  A    between atoms: C_4  and  C_5
REMARK    4  A    between atoms: C_8  and  C_9
REMARK    5  A    between atoms: C_9  and  C_10
REMARK                            x       y       z     vdW  Elec       q    Type
REMARK                         _______ _______ _______ _____ _____    ______ ____
ROOT
ATOM      1  O   UNL     1      48.475   8.182  16.861  0.00  0.00    +0.000 OA
ATOM      2  C   UNL     1      48.712   7.051  16.450  0.00  0.00    +0.000 C 
ATOM      3  N   UNL     1      48.354   6.583  15.209  0.00  0.00    +0.000 N 
ATOM      4  H   UNL     1      48.763   5.711  14.903  0.00  0.00    +0.000 HD
ENDROOT
BRANCH   2   5
ATOM      5  C   UNL     1      49.611   6.123  17.124  0.00  0.00    +0.000 A 
ATOM      6  C   UNL     1      50.853   6.498  17.607  0.00  0.00    +0.000 A 
ATOM      7  S   UNL     1      51.883   5.141  17.820  0.00  0.00    +0.000 S 
ATOM      8  C   UNL     1      50.637   4.056  17.393  0.00  0.00    +0.000 A 
ATOM      9  N   UNL     1      50.853   2.727  17.202  0.00  0.00    +0.000 NA
ATOM     10  C   UNL     1      49.783   2.053  16.923  0.00  0.00    +0.000 A 
ATOM     11  N   UNL     1      48.511   2.573  16.878  0.00  0.00    +0.000 N 
ATOM     12  C   UNL     1      48.244   3.902  17.089  0.00  0.00    +0.000 A 
ATOM     13  O   UNL     1      47.101   4.342  17.128  0.00  0.00    +0.000 OA
ATOM     14  C   UNL     1      49.432   4.709  17.258  0.00  0.00    +0.000 A 
ATOM     15  H   UNL     1      47.709   1.975  16.738  0.00  0.00    +0.000 HD
ENDBRANCH   2   5
BRANCH   3  16
ATOM     16  C   UNL     1      47.861   7.444  14.170  0.00  0.00    +0.000 C 
BRANCH  16  17
ATOM     17  C   UNL     1      46.994   6.666  13.223  0.00  0.00    +0.000 A 
ATOM     18  C   UNL     1      46.586   5.363  13.508  0.00  0.00    +0.000 A 
ATOM     19  C   UNL     1      45.764   4.680  12.611  0.00  0.00    +0.000 A 
ATOM     20  C   UNL     1      45.373   5.319  11.436  0.00  0.00    +0.000 A 
ATOM     21  N   UNL     1      45.814   6.558  11.105  0.00  0.00    +0.000 NA
ATOM     22  C   UNL     1      46.606   7.198  11.998  0.00  0.00    +0.000 A 
BRANCH  20  23
ATOM     23  C   UNL     1      44.415   4.653  10.475  0.00  0.00    +0.000 C 
BRANCH  23  24
ATOM     24  C   UNL     1      45.067   3.774   9.454  0.00  0.00    +0.000 A 
ATOM     25  C   UNL     1      45.703   4.279   8.337  0.00  0.00    +0.000 A 
ATOM     26  N   UNL     1      46.316   3.519   7.411  0.00  0.00    +0.000 NA
ATOM     27  C   UNL     1      46.291   2.196   7.637  0.00  0.00    +0.000 A 
ATOM     28  N   UNL     1      45.720   1.585   8.684  0.00  0.00    +0.000 NA
ATOM     29  C   UNL     1      45.122   2.398   9.580  0.00  0.00    +0.000 A 
ENDBRANCH  23  24
ENDBRANCH  20  23
ENDBRANCH  16  17
ENDBRANCH   3  16
TORSDOF 5
ENDMDL
MODEL 7
REMARK VINA RESULT:    -7.248      3.846      4.571
REMARK INTER + INTRA:         -10.059
REMARK INTER:                  -9.274
REMARK INTRA:                  -0.785
REMARK UNBOUND:                -0.693
REMARK  Name = 
REMARK  5 active torsions:
REMARK  status: ('A' for Active; 'I' for Inactive)
REMARK    1  A    between atoms: C_2  and  C_18
REMARK    2  A    between atoms: N_3  and  C_4
REMARK    3  A    between atoms: C_4  and  C_5
REMARK    4  A    between atoms: C_8  and  C_9
REMARK    5  A    between atoms: C_9  and  C_10
REMARK                            x       y       z     vdW  Elec       q    Type
REMARK                         _______ _______ _______ _____ _____    ______ ____
ROOT
ATOM      1  O   UNL     1      44.852   7.752  11.190  0.00  0.00    +0.000 OA
ATOM      2  C   UNL     1      45.635   7.476  12.093  0.00  0.00    +0.000 C 
ATOM      3  N   UNL     1      45.351   6.632  13.140  0.00  0.00    +0.000 N 
ATOM      4  H   UNL     1      46.122   6.327  13.715  0.00  0.00    +0.000 HD
ENDROOT
BRANCH   2   5
ATOM      5  C   UNL     1      47.052   7.815  12.060  0.00  0.00    +0.000 A 
ATOM      6  C   UNL     1      48.050   6.861  11.966  0.00  0.00    +0.000 A 
ATOM      7  S   UNL     1      49.560   7.472  12.508  0.00  0.00    +0.000 S 
ATOM      8  C   UNL     1      48.910   9.032  12.743  0.00  0.00    +0.000 A 
ATOM      9  N   UNL     1      49.600  10.033  13.351  0.00  0.00    +0.000 NA
ATOM     10  C   UNL     1      48.962  11.159  13.405  0.00  0.00    +0.000 A 
ATOM     11  N   UNL     1      47.725  11.392  12.853  0.00  0.00    +0.000 N 
ATOM     12  C   UNL     1      47.003  10.419  12.209  0.00  0.00    +0.000 A 
ATOM     13  O   UNL     1      45.938  10.655  11.650  0.00  0.00    +0.000 OA
ATOM     14  C   UNL     1      47.622   9.113  12.260  0.00  0.00    +0.000 A 
ATOM     15  H   UNL     1      47.320  12.317  12.857  0.00  0.00    +0.000 HD
ENDBRANCH   2   5
BRANCH   3  16
ATOM     16  C   UNL     1      44.179   5.801  13.167  0.00  0.00    +0.000 C 
BRANCH  16  17
ATOM     17  C   UNL     1      44.260   4.759  12.089  0.00  0.00    +0.000 A 
ATOM     18  C   UNL     1      43.318   4.693  11.063  0.00  0.00    +0.000 A 
ATOM     19  C   UNL     1      43.439   3.722  10.069  0.00  0.00    +0.000 A 
ATOM     20  C   UNL     1      44.504   2.826  10.130  0.00  0.00    +0.000 A 
ATOM     21  N   UNL     1      45.392   2.827  11.155  0.00  0.00    +0.000 NA
ATOM     22  C   UNL     1      45.253   3.785  12.102  0.00  0.00    +0.000 A 
BRANCH  20  23
ATOM     23  C   UNL     1      44.726   1.812   9.031  0.00  0.00    +0.000 C 
BRANCH  23  24
ATOM     24  C   UNL     1      45.930   2.071   8.179  0.00  0.00    +0.000 A 
ATOM     25  C   UNL     1      46.786   1.065   7.778  0.00  0.00    +0.000 A 
ATOM     26  N   UNL     1      47.864   1.260   6.995  0.00  0.00    +0.000 NA
ATOM     27  C   UNL     1      48.071   2.525   6.598  0.00  0.00    +0.000 A 
ATOM     28  N   UNL     1      47.309   3.584   6.908  0.00  0.00    +0.000 NA
ATOM     29  C   UNL     1      46.243   3.327   7.693  0.00  0.00    +0.000 A 
ENDBRANCH  23  24
ENDBRANCH  20  23
ENDBRANCH  16  17
ENDBRANCH   3  16
TORSDOF 5
ENDMDL
MODEL 8
REMARK VINA RESULT:    -7.004      3.241      8.084
REMARK INTER + INTRA:          -9.744
REMARK INTER:                  -9.060
REMARK INTRA:                  -0.684
REMARK UNBOUND:                -0.693
REMARK  Name = 
REMARK  5 active torsions:
REMARK  status: ('A' for Active; 'I' for Inactive)
REMARK    1  A    between atoms: C_2  and  C_18
REMARK    2  A    between atoms: N_3  and  C_4
REMARK    3  A    between atoms: C_4  and  C_5
REMARK    4  A    between atoms: C_8  and  C_9
REMARK    5  A    between atoms: C_9  and  C_10
REMARK                            x       y       z     vdW  Elec       q    Type
REMARK                         _______ _______ _______ _____ _____    ______ ____
ROOT
ATOM      1  O   UNL     1      44.464   7.872  11.334  0.00  0.00    +0.000 OA
ATOM      2  C   UNL     1      45.468   7.173  11.257  0.00  0.00    +0.000 C 
ATOM      3  N   UNL     1      46.669   7.463  11.860  0.00  0.00    +0.000 N 
ATOM      4  H   UNL     1      47.364   6.731  11.891  0.00  0.00    +0.000 HD
ENDROOT
BRANCH   2   5
ATOM      5  C   UNL     1      45.465   5.820  10.713  0.00  0.00    +0.000 A 
ATOM      6  C   UNL     1      45.861   5.531   9.419  0.00  0.00    +0.000 A 
ATOM      7  S   UNL     1      45.234   4.022   8.890  0.00  0.00    +0.000 S 
ATOM      8  C   UNL     1      44.550   3.704  10.420  0.00  0.00    +0.000 A 
ATOM      9  N   UNL     1      43.718   2.655  10.650  0.00  0.00    +0.000 NA
ATOM     10  C   UNL     1      43.328   2.549  11.881  0.00  0.00    +0.000 A 
ATOM     11  N   UNL     1      43.741   3.357  12.913  0.00  0.00    +0.000 N 
ATOM     12  C   UNL     1      44.599   4.413  12.731  0.00  0.00    +0.000 A 
ATOM     13  O   UNL     1      45.026   5.079  13.668  0.00  0.00    +0.000 OA
ATOM     14  C   UNL     1      44.938   4.649  11.345  0.00  0.00    +0.000 A 
ATOM     15  H   UNL     1      43.465   3.168  13.865  0.00  0.00    +0.000 HD
ENDBRANCH   2   5
BRANCH   3  16
ATOM     16  C   UNL     1      46.811   8.507  12.836  0.00  0.00    +0.000 C 
BRANCH  16  17
ATOM     17  C   UNL     1      47.609   8.013  14.008  0.00  0.00    +0.000 A 
ATOM     18  C   UNL     1      47.991   8.866  15.043  0.00  0.00    +0.000 A 
ATOM     19  C   UNL     1      48.714   8.365  16.125  0.00  0.00    +0.000 A 
ATOM     20  C   UNL     1      49.050   7.013  16.142  0.00  0.00    +0.000 A 
ATOM     21  N   UNL     1      48.750   6.180  15.115  0.00  0.00    +0.000 NA
ATOM     22  C   UNL     1      48.041   6.693  14.081  0.00  0.00    +0.000 A 
BRANCH  20  23
ATOM     23  C   UNL     1      49.758   6.406  17.332  0.00  0.00    +0.000 C 
BRANCH  23  24
ATOM     24  C   UNL     1      49.815   4.910  17.326  0.00  0.00    +0.000 A 
ATOM     25  C   UNL     1      48.681   4.124  17.277  0.00  0.00    +0.000 A 
ATOM     26  N   UNL     1      48.698   2.778  17.250  0.00  0.00    +0.000 NA
ATOM     27  C   UNL     1      49.915   2.212  17.260  0.00  0.00    +0.000 A 
ATOM     28  N   UNL     1      51.087   2.863  17.295  0.00  0.00    +0.000 NA
ATOM     29  C   UNL     1      51.007   4.209  17.319  0.00  0.00    +0.000 A 
ENDBRANCH  23  24
ENDBRANCH  20  23
ENDBRANCH  16  17
ENDBRANCH   3  16
TORSDOF 5
ENDMDL
MODEL 9
REMARK VINA RESULT:    -6.955      3.521      9.217
REMARK INTER + INTRA:          -9.681
REMARK INTER:                  -8.956
REMARK INTRA:                  -0.725
REMARK UNBOUND:                -0.693
REMARK  Name = 
REMARK  5 active torsions:
REMARK  status: ('A' for Active; 'I' for Inactive)
REMARK    1  A    between atoms: C_2  and  C_18
REMARK    2  A    between atoms: N_3  and  C_4
REMARK    3  A    between atoms: C_4  and  C_5
REMARK    4  A    between atoms: C_8  and  C_9
REMARK    5  A    between atoms: C_9  and  C_10
REMARK                            x       y       z     vdW  Elec       q    Type
REMARK                         _______ _______ _______ _____ _____    ______ ____
ROOT
ATOM      1  O   UNL     1      47.528   2.934  14.399  0.00  0.00    +0.000 OA
ATOM      2  C   UNL     1      47.061   4.024  14.713  0.00  0.00    +0.000 C 
ATOM      3  N   UNL     1      46.783   4.411  16.002  0.00  0.00    +0.000 N 
ATOM      4  H   UNL     1      46.585   5.387  16.164  0.00  0.00    +0.000 HD
ENDROOT
BRANCH   2   5
ATOM      5  C   UNL     1      46.955   5.149  13.792  0.00  0.00    +0.000 A 
ATOM      6  C   UNL     1      47.753   6.275  13.889  0.00  0.00    +0.000 A 
ATOM      7  S   UNL     1      47.052   7.617  13.077  0.00  0.00    +0.000 S 
ATOM      8  C   UNL     1      45.762   6.664  12.496  0.00  0.00    +0.000 A 
ATOM      9  N   UNL     1      44.685   7.194  11.858  0.00  0.00    +0.000 NA
ATOM     10  C   UNL     1      43.825   6.315  11.452  0.00  0.00    +0.000 A 
ATOM     11  N   UNL     1      43.971   4.953  11.570  0.00  0.00    +0.000 N 
ATOM     12  C   UNL     1      45.053   4.373  12.184  0.00  0.00    +0.000 A 
ATOM     13  O   UNL     1      45.216   3.159  12.214  0.00  0.00    +0.000 OA
ATOM     14  C   UNL     1      45.960   5.330  12.779  0.00  0.00    +0.000 A 
ATOM     15  H   UNL     1      43.303   4.320  11.156  0.00  0.00    +0.000 HD
ENDBRANCH   2   5
BRANCH   3  16
ATOM     16  C   UNL     1      47.223   3.661  17.146  0.00  0.00    +0.000 C 
BRANCH  16  17
ATOM     17  C   UNL     1      48.706   3.812  17.323  0.00  0.00    +0.000 A 
ATOM     18  C   UNL     1      49.557   2.707  17.333  0.00  0.00    +0.000 A 
ATOM     19  C   UNL     1      50.932   2.891  17.481  0.00  0.00    +0.000 A 
ATOM     20  C   UNL     1      51.426   4.185  17.625  0.00  0.00    +0.000 A 
ATOM     21  N   UNL     1      50.612   5.268  17.688  0.00  0.00    +0.000 NA
ATOM     22  C   UNL     1      49.283   5.059  17.536  0.00  0.00    +0.000 A 
BRANCH  20  23
ATOM     23  C   UNL     1      52.914   4.441  17.702  0.00  0.00    +0.000 C 
BRANCH  23  24
ATOM     24  C   UNL     1      53.695   3.371  18.399  0.00  0.00    +0.000 A 
ATOM     25  C   UNL     1      54.535   2.506  17.725  0.00  0.00    +0.000 A 
ATOM     26  N   UNL     1      55.266   1.548  18.323  0.00  0.00    +0.000 NA
ATOM     27  C   UNL     1      55.147   1.474  19.657  0.00  0.00    +0.000 A 
ATOM     28  N   UNL     1      54.378   2.260  20.425  0.00  0.00    +0.000 NA
ATOM     29  C   UNL     1      53.670   3.203  19.771  0.00  0.00    +0.000 A 
ENDBRANCH  23  24
ENDBRANCH  20  23
ENDBRANCH  16  17
ENDBRANCH   3  16
TORSDOF 5
ENDMDL
