MODEL 1
REMARK VINA RESULT:    -7.811      0.000      0.000
REMARK INTER + INTRA:         -13.842
REMARK INTER:                 -12.149
REMARK INTRA:                  -1.693
REMARK UNBOUND:                -1.693
REMARK  Name = 
REMARK  11 active torsions:
REMARK  status: ('A' for Active; 'I' for Inactive)
REMARK    1  A    between atoms: C_1  and  C_2
REMARK    2  A    between atoms: C_2  and  C_3
REMARK    3  A    between atoms: C_3  and  N_4
REMARK    4  A    between atoms: C_3  and  C_21
REMARK    5  A    between atoms: N_4  and  C_5
REMARK    6  A    between atoms: C_5  and  C_6
REMARK    7  A    between atoms: C_9  and  C_10
REMARK    8  A    between atoms: C_10  and  O_11
REMARK    9  A    between atoms: C_10  and  C_12
REMARK   10  A    between atoms: C_12  and  N_13
REMARK   11  A    between atoms: N_13  and  C_14
REMARK                            x       y       z     vdW  Elec       q    Type
REMARK                         _______ _______ _______ _____ _____    ______ ____
ROOT
ATOM      1  C   UNL     1      45.656   6.960  12.292  0.00  0.00    +0.000 A 
ATOM      2  C   UNL     1      44.636   6.334  13.021  0.00  0.00    +0.000 A 
ATOM      3  C   UNL     1      44.132   5.098  12.618  0.00  0.00    +0.000 A 
ATOM      4  C   UNL     1      44.642   4.462  11.479  0.00  0.00    +0.000 A 
ATOM      5  C   UNL     1      45.656   5.098  10.746  0.00  0.00    +0.000 A 
ATOM      6  C   UNL     1      46.154   6.337  11.145  0.00  0.00    +0.000 A 
ENDROOT
BRANCH   1   7
ATOM      7  C   UNL     1      46.182   8.307  12.719  0.00  0.00    +0.000 C 
BRANCH   7   8
ATOM      8  N   UNL     1      46.947   8.206  13.961  0.00  0.00    +0.000 NA
ATOM      9  H   UNL     1      46.324   7.853  14.688  0.00  0.00    +0.000 HD
BRANCH   8  10
ATOM     10  C   UNL     1      48.116   7.311  13.860  0.00  0.00    +0.000 C 
BRANCH  10  11
ATOM     11  C   UNL     1      48.433   6.873  15.283  0.00  0.00    +0.000 A 
ATOM     12  C   UNL     1      49.048   7.681  16.228  0.00  0.00    +0.000 A 
ATOM     13  S   UNL     1      49.232   6.935  17.751  0.00  0.00    +0.000 S 
ATOM     14  C   UNL     1      48.486   5.503  17.206  0.00  0.00    +0.000 A 
ATOM     15  N   UNL     1      48.297   4.448  18.046  0.00  0.00    +0.000 NA
ATOM     16  C   UNL     1      47.712   3.435  17.499  0.00  0.00    +0.000 A 
ATOM     17  N   UNL     1      47.309   3.380  16.190  0.00  0.00    +0.000 N 
ATOM     18  C   UNL     1      47.497   4.411  15.296  0.00  0.00    +0.000 A 
ATOM     19  O   UNL     1      47.167   4.303  14.121  0.00  0.00    +0.000 OA
ATOM     20  C   UNL     1      48.127   5.585  15.878  0.00  0.00    +0.000 A 
ATOM     21  H   UNL     1      46.871   2.548  15.819  0.00  0.00    +0.000 HD
ENDBRANCH  10  11
BRANCH  10  23
ATOM     22  C   UNL     1      49.693   7.452  11.822  0.00  0.00    +0.000 C 
ATOM     23  C   UNL     1      49.297   8.029  13.170  0.00  0.00    +0.000 C 
ENDBRANCH  10  23
ENDBRANCH   8  10
ENDBRANCH   7   8
ENDBRANCH   1   7
BRANCH   4  24
ATOM     24  C   UNL     1      44.127   3.094  11.082  0.00  0.00    +0.000 C 
BRANCH  24  25
ATOM     25  O   UNL     1      42.722   2.998  11.343  0.00  0.00    +0.000 OA
ATOM     26  H   UNL     1      42.257   3.417  10.601  0.00  0.00    +0.000 HD
ENDBRANCH  24  25
BRANCH  24  27
ATOM     27  C   UNL     1      44.366   2.766   9.588  0.00  0.00    +0.000 C 
BRANCH  27  28
ATOM     28  N   UNL     1      45.459   1.813   9.354  0.00  0.00    +0.000 NA
ATOM     29  H   UNL     1      45.170   0.879   9.641  0.00  0.00    +0.000 HD
BRANCH  28  30
ATOM     30  C   UNL     1      45.875   1.806   7.953  0.00  0.00    +0.000 C 
ATOM     31  C   UNL     1      46.542   3.117   7.559  0.00  0.00    +0.000 C 
ATOM     32  C   UNL     1      47.370   2.704   6.360  0.00  0.00    +0.000 C 
ATOM     33  N   UNL     1      47.940   1.405   6.736  0.00  0.00    +0.000 NA
ATOM     34  C   UNL     1      46.922   0.744   7.570  0.00  0.00    +0.000 C 
ATOM     35  H   UNL     1      48.758   1.575   7.324  0.00  0.00    +0.000 HD
ENDBRANCH  28  30
ENDBRANCH  27  28
ENDBRANCH  24  27
ENDBRANCH   4  24
TORSDOF 10
ENDMDL
MODEL 2
REMARK VINA RESULT:    -7.620      2.278      3.270
REMARK INTER + INTRA:         -13.544
REMARK INTER:                 -12.698
REMARK INTRA:                  -0.846
REMARK UNBOUND:                -1.693
REMARK  Name = 
REMARK  11 active torsions:
REMARK  status: ('A' for Active; 'I' for Inactive)
REMARK    1  A    between atoms: C_1  and  C_2
REMARK    2  A    between atoms: C_2  and  C_3
REMARK    3  A    between atoms: C_3  and  N_4
REMARK    4  A    between atoms: C_3  and  C_21
REMARK    5  A    between atoms: N_4  and  C_5
REMARK    6  A    between atoms: C_5  and  C_6
REMARK    7  A    between atoms: C_9  and  C_10
REMARK    8  A    between atoms: C_10  and  O_11
REMARK    9  A    between atoms: C_10  and  C_12
REMARK   10  A    between atoms: C_12  and  N_13
REMARK   11  A    between atoms: N_13  and  C_14
REMARK                            x       y       z     vdW  Elec       q    Type
REMARK                         _______ _______ _______ _____ _____    ______ ____
ROOT
ATOM      1  C   UNL     1      47.018   5.539  13.516  0.00  0.00    +0.000 A 
ATOM      2  C   UNL     1      46.738   6.375  12.426  0.00  0.00    +0.000 A 
ATOM      3  C   UNL     1      45.848   5.969  11.431  0.00  0.00    +0.000 A 
ATOM      4  C   UNL     1      45.218   4.721  11.510  0.00  0.00    +0.000 A 
ATOM      5  C   UNL     1      45.511   3.883  12.598  0.00  0.00    +0.000 A 
ATOM      6  C   UNL     1      46.406   4.285  13.587  0.00  0.00    +0.000 A 
ENDROOT
BRANCH   1   7
ATOM      7  C   UNL     1      47.997   5.973  14.577  0.00  0.00    +0.000 C 
BRANCH   7   8
ATOM      8  N   UNL     1      48.237   4.904  15.545  0.00  0.00    +0.000 NA
ATOM      9  H   UNL     1      49.077   4.401  15.258  0.00  0.00    +0.000 HD
BRANCH   8  10
ATOM     10  C   UNL     1      48.423   5.392  16.924  0.00  0.00    +0.000 C 
BRANCH  10  11
ATOM     11  C   UNL     1      49.835   4.988  17.326  0.00  0.00    +0.000 A 
ATOM     12  C   UNL     1      50.789   5.869  17.814  0.00  0.00    +0.000 A 
ATOM     13  S   UNL     1      52.266   5.121  18.225  0.00  0.00    +0.000 S 
ATOM     14  C   UNL     1      51.681   3.585  17.774  0.00  0.00    +0.000 A 
ATOM     15  N   UNL     1      52.457   2.474  17.908  0.00  0.00    +0.000 NA
ATOM     16  C   UNL     1      51.881   1.379  17.535  0.00  0.00    +0.000 A 
ATOM     17  N   UNL     1      50.608   1.299  17.034  0.00  0.00    +0.000 N 
ATOM     18  C   UNL     1      49.792   2.396  16.859  0.00  0.00    +0.000 A 
ATOM     19  O   UNL     1      48.678   2.288  16.360  0.00  0.00    +0.000 OA
ATOM     20  C   UNL     1      50.391   3.648  17.294  0.00  0.00    +0.000 A 
ATOM     21  H   UNL     1      50.222   0.412  16.744  0.00  0.00    +0.000 HD
ENDBRANCH  10  11
BRANCH  10  23
ATOM     22  C   UNL     1      47.030   5.667  19.080  0.00  0.00    +0.000 C 
ATOM     23  C   UNL     1      47.339   4.815  17.861  0.00  0.00    +0.000 C 
ENDBRANCH  10  23
ENDBRANCH   8  10
ENDBRANCH   7   8
ENDBRANCH   1   7
BRANCH   4  24
ATOM     24  C   UNL     1      44.212   4.315  10.454  0.00  0.00    +0.000 C 
BRANCH  24  25
ATOM     25  O   UNL     1      43.295   5.386  10.204  0.00  0.00    +0.000 OA
ATOM     26  H   UNL     1      42.530   5.013   9.736  0.00  0.00    +0.000 HD
ENDBRANCH  24  25
BRANCH  24  27
ATOM     27  C   UNL     1      44.871   3.917   9.111  0.00  0.00    +0.000 C 
BRANCH  27  28
ATOM     28  N   UNL     1      45.371   2.537   9.077  0.00  0.00    +0.000 NA
ATOM     29  H   UNL     1      44.629   1.894   9.350  0.00  0.00    +0.000 HD
BRANCH  28  30
ATOM     30  C   UNL     1      45.885   2.183   7.755  0.00  0.00    +0.000 C 
ATOM     31  C   UNL     1      46.705   3.315   7.151  0.00  0.00    +0.000 C 
ATOM     32  C   UNL     1      47.574   2.580   6.152  0.00  0.00    +0.000 C 
ATOM     33  N   UNL     1      47.983   1.355   6.850  0.00  0.00    +0.000 NA
ATOM     34  C   UNL     1      46.847   0.982   7.709  0.00  0.00    +0.000 C 
ATOM     35  H   UNL     1      48.769   1.586   7.461  0.00  0.00    +0.000 HD
ENDBRANCH  28  30
ENDBRANCH  27  28
ENDBRANCH  24  27
ENDBRANCH   4  24
TORSDOF 10
ENDMDL
MODEL 3
REMARK VINA RESULT:    -7.190      1.703      2.157
REMARK INTER + INTRA:         -12.875
REMARK INTER:                 -11.700
REMARK INTRA:                  -1.175
REMARK UNBOUND:                -1.693
REMARK  Name = 
REMARK  11 active torsions:
REMARK  status: ('A' for Active; 'I' for Inactive)
REMARK    1  A    between atoms: C_1  and  C_2
REMARK    2  A    between atoms: C_2  and  C_3
REMARK    3  A    between atoms: C_3  and  N_4
REMARK    4  A    between atoms: C_3  and  C_21
REMARK    5  A    between atoms: N_4  and  C_5
REMARK    6  A    between atoms: C_5  and  C_6
REMARK    7  A    between atoms: C_9  and  C_10
REMARK    8  A    between atoms: C_10  and  O_11
REMARK    9  A    between atoms: C_10  and  C_12
REMARK   10  A    between atoms: C_12  and  N_13
REMARK   11  A    between atoms: N_13  and  C_14
REMARK                            x       y       z     vdW  Elec       q    Type
REMARK                         _______ _______ _______ _____ _____    ______ ____
ROOT
ATOM      1  C   UNL     1      46.963   5.657  13.052  0.00  0.00    +0.000 A 
ATOM      2  C   UNL     1      46.773   4.352  13.528  0.00  0.00    +0.000 A 
ATOM      3  C   UNL     1      45.846   3.504  12.924  0.00  0.00    +0.000 A 
ATOM      4  C   UNL     1      45.092   3.943  11.829  0.00  0.00    +0.000 A 
ATOM      5  C   UNL     1      45.277   5.254  11.362  0.00  0.00    +0.000 A 
ATOM      6  C   UNL     1      46.199   6.104  11.971  0.00  0.00    +0.000 A 
ENDROOT
BRANCH   1   7
ATOM      7  C   UNL     1      47.951   6.577  13.722  0.00  0.00    +0.000 C 
BRANCH   7   8
ATOM      8  N   UNL     1      48.220   6.155  15.096  0.00  0.00    +0.000 NA
ATOM      9  H   UNL     1      48.528   5.183  15.073  0.00  0.00    +0.000 HD
BRANCH   8  10
ATOM     10  C   UNL     1      49.251   6.967  15.767  0.00  0.00    +0.000 C 
BRANCH  10  11
ATOM     11  C   UNL     1      48.827   7.061  17.227  0.00  0.00    +0.000 A 
ATOM     12  C   UNL     1      48.301   8.202  17.814  0.00  0.00    +0.000 A 
ATOM     13  S   UNL     1      47.872   7.995  19.452  0.00  0.00    +0.000 S 
ATOM     14  C   UNL     1      48.366   6.364  19.436  0.00  0.00    +0.000 A 
ATOM     15  N   UNL     1      48.238   5.583  20.544  0.00  0.00    +0.000 NA
ATOM     16  C   UNL     1      48.645   4.367  20.384  0.00  0.00    +0.000 A 
ATOM     17  N   UNL     1      49.176   3.869  19.223  0.00  0.00    +0.000 N 
ATOM     18  C   UNL     1      49.346   4.624  18.083  0.00  0.00    +0.000 A 
ATOM     19  O   UNL     1      49.871   4.155  17.080  0.00  0.00    +0.000 OA
ATOM     20  C   UNL     1      48.873   5.994  18.209  0.00  0.00    +0.000 A 
ATOM     21  H   UNL     1      49.492   2.911  19.169  0.00  0.00    +0.000 HD
ENDBRANCH  10  11
BRANCH  10  23
ATOM     22  C   UNL     1      50.817   8.853  14.959  0.00  0.00    +0.000 C 
ATOM     23  C   UNL     1      49.391   8.347  15.089  0.00  0.00    +0.000 C 
ENDBRANCH  10  23
ENDBRANCH   8  10
ENDBRANCH   7   8
ENDBRANCH   1   7
BRANCH   4  24
ATOM     24  C   UNL     1      44.128   2.996  11.146  0.00  0.00    +0.000 C 
BRANCH  24  25
ATOM     25  O   UNL     1      42.785   3.473  11.280  0.00  0.00    +0.000 OA
ATOM     26  H   UNL     1      42.198   2.818  10.866  0.00  0.00    +0.000 HD
ENDBRANCH  24  25
BRANCH  24  27
ATOM     27  C   UNL     1      44.428   2.809   9.638  0.00  0.00    +0.000 C 
BRANCH  27  28
ATOM     28  N   UNL     1      45.335   1.693   9.344  0.00  0.00    +0.000 NA
ATOM     29  H   UNL     1      44.866   0.807   9.533  0.00  0.00    +0.000 HD
BRANCH  28  30
ATOM     30  C   UNL     1      45.804   1.731   7.961  0.00  0.00    +0.000 C 
ATOM     31  C   UNL     1      46.386   3.092   7.603  0.00  0.00    +0.000 C 
ATOM     32  C   UNL     1      47.289   2.754   6.434  0.00  0.00    +0.000 C 
ATOM     33  N   UNL     1      47.938   1.496   6.822  0.00  0.00    +0.000 NA
ATOM     34  C   UNL     1      46.942   0.754   7.611  0.00  0.00    +0.000 C 
ATOM     35  H   UNL     1      48.718   1.721   7.443  0.00  0.00    +0.000 HD
ENDBRANCH  28  30
ENDBRANCH  27  28
ENDBRANCH  24  27
ENDBRANCH   4  24
TORSDOF 10
ENDMDL
MODEL 4
REMARK VINA RESULT:    -6.867      2.136      3.314
REMARK INTER + INTRA:         -12.374
REMARK INTER:                 -11.478
REMARK INTRA:                  -0.896
REMARK UNBOUND:                -1.693
REMARK  Name = 
REMARK  11 active torsions:
REMARK  status: ('A' for Active; 'I' for Inactive)
REMARK    1  A    between atoms: C_1  and  C_2
REMARK    2  A    between atoms: C_2  and  C_3
REMARK    3  A    between atoms: C_3  and  N_4
REMARK    4  A    between atoms: C_3  and  C_21
REMARK    5  A    between atoms: N_4  and  C_5
REMARK    6  A    between atoms: C_5  and  C_6
REMARK    7  A    between atoms: C_9  and  C_10
REMARK    8  A    between atoms: C_10  and  O_11
REMARK    9  A    between atoms: C_10  and  C_12
REMARK   10  A    between atoms: C_12  and  N_13
REMARK   11  A    between atoms: N_13  and  C_14
REMARK                            x       y       z     vdW  Elec       q    Type
REMARK                         _______ _______ _______ _____ _____    ______ ____
ROOT
ATOM      1  C   UNL     1      46.454   5.257  13.152  0.00  0.00    +0.000 A 
ATOM      2  C   UNL     1      46.032   3.922  13.223  0.00  0.00    +0.000 A 
ATOM      3  C   UNL     1      45.227   3.378  12.222  0.00  0.00    +0.000 A 
ATOM      4  C   UNL     1      44.833   4.157  11.128  0.00  0.00    +0.000 A 
ATOM      5  C   UNL     1      45.250   5.497  11.067  0.00  0.00    +0.000 A 
ATOM      6  C   UNL     1      46.047   6.042  12.071  0.00  0.00    +0.000 A 
ENDROOT
BRANCH   1   7
ATOM      7  C   UNL     1      47.305   5.846  14.247  0.00  0.00    +0.000 C 
BRANCH   7   8
ATOM      8  N   UNL     1      48.075   4.810  14.935  0.00  0.00    +0.000 NA
ATOM      9  H   UNL     1      49.060   4.945  14.706  0.00  0.00    +0.000 HD
BRANCH   8  10
ATOM     10  C   UNL     1      47.918   4.839  16.401  0.00  0.00    +0.000 C 
BRANCH  10  11
ATOM     11  C   UNL     1      48.799   5.980  16.895  0.00  0.00    +0.000 A 
ATOM     12  C   UNL     1      49.941   6.420  16.243  0.00  0.00    +0.000 A 
ATOM     13  S   UNL     1      50.696   7.746  17.005  0.00  0.00    +0.000 S 
ATOM     14  C   UNL     1      49.516   7.789  18.233  0.00  0.00    +0.000 A 
ATOM     15  N   UNL     1      49.561   8.731  19.215  0.00  0.00    +0.000 NA
ATOM     16  C   UNL     1      48.598   8.647  20.073  0.00  0.00    +0.000 A 
ATOM     17  N   UNL     1      47.605   7.703  20.040  0.00  0.00    +0.000 N 
ATOM     18  C   UNL     1      47.529   6.716  19.081  0.00  0.00    +0.000 A 
ATOM     19  O   UNL     1      46.653   5.860  19.117  0.00  0.00    +0.000 OA
ATOM     20  C   UNL     1      48.578   6.791  18.077  0.00  0.00    +0.000 A 
ATOM     21  H   UNL     1      46.889   7.682  20.753  0.00  0.00    +0.000 HD
ENDBRANCH  10  11
BRANCH  10  23
ATOM     22  C   UNL     1      47.135   2.717  17.644  0.00  0.00    +0.000 C 
ATOM     23  C   UNL     1      48.294   3.475  17.020  0.00  0.00    +0.000 C 
ENDBRANCH  10  23
ENDBRANCH   8  10
ENDBRANCH   7   8
ENDBRANCH   1   7
BRANCH   4  24
ATOM     24  C   UNL     1      44.007   3.540  10.019  0.00  0.00    +0.000 C 
BRANCH  24  25
ATOM     25  O   UNL     1      43.672   4.530   9.040  0.00  0.00    +0.000 OA
ATOM     26  H   UNL     1      43.868   4.156   8.166  0.00  0.00    +0.000 HD
ENDBRANCH  24  25
BRANCH  24  27
ATOM     27  C   UNL     1      44.729   2.375   9.301  0.00  0.00    +0.000 C 
BRANCH  27  28
ATOM     28  N   UNL     1      46.074   2.715   8.816  0.00  0.00    +0.000 NA
ATOM     29  H   UNL     1      46.776   2.316   9.439  0.00  0.00    +0.000 HD
BRANCH  28  30
ATOM     30  C   UNL     1      46.286   2.247   7.449  0.00  0.00    +0.000 C 
ATOM     31  C   UNL     1      46.567   3.403   6.498  0.00  0.00    +0.000 C 
ATOM     32  C   UNL     1      47.300   2.713   5.366  0.00  0.00    +0.000 C 
ATOM     33  N   UNL     1      48.204   1.769   6.033  0.00  0.00    +0.000 NA
ATOM     34  C   UNL     1      47.492   1.313   7.239  0.00  0.00    +0.000 C 
ATOM     35  H   UNL     1      49.031   2.285   6.340  0.00  0.00    +0.000 HD
ENDBRANCH  28  30
ENDBRANCH  27  28
ENDBRANCH  24  27
ENDBRANCH   4  24
TORSDOF 10
ENDMDL
MODEL 5
REMARK VINA RESULT:    -6.732      1.943      2.637
REMARK INTER + INTRA:         -12.163
REMARK INTER:                 -10.619
REMARK INTRA:                  -1.544
REMARK UNBOUND:                -1.693
REMARK  Name = 
REMARK  11 active torsions:
REMARK  status: ('A' for Active; 'I' for Inactive)
REMARK    1  A    between atoms: C_1  and  C_2
REMARK    2  A    between atoms: C_2  and  C_3
REMARK    3  A    between atoms: C_3  and  N_4
REMARK    4  A    between atoms: C_3  and  C_21
REMARK    5  A    between atoms: N_4  and  C_5
REMARK    6  A    between atoms: C_5  and  C_6
REMARK    7  A    between atoms: C_9  and  C_10
REMARK    8  A    between atoms: C_10  and  O_11
REMARK    9  A    between atoms: C_10  and  C_12
REMARK   10  A    between atoms: C_12  and  N_13
REMARK   11  A    between atoms: N_13  and  C_14
REMARK                            x       y       z     vdW  Elec       q    Type
REMARK                         _______ _______ _______ _____ _____    ______ ____
ROOT
ATOM      1  C   UNL     1      46.976   6.757  13.198  0.00  0.00    +0.000 A 
ATOM      2  C   UNL     1      45.789   7.298  12.686  0.00  0.00    +0.000 A 
ATOM      3  C   UNL     1      44.642   6.513  12.570  0.00  0.00    +0.000 A 
ATOM      4  C   UNL     1      44.661   5.170  12.967  0.00  0.00    +0.000 A 
ATOM      5  C   UNL     1      45.855   4.629  13.469  0.00  0.00    +0.000 A 
ATOM      6  C   UNL     1      47.002   5.413  13.578  0.00  0.00    +0.000 A 
ENDROOT
BRANCH   1   7
ATOM      7  C   UNL     1      48.218   7.604  13.302  0.00  0.00    +0.000 C 
BRANCH   7   8
ATOM      8  N   UNL     1      49.326   6.852  13.888  0.00  0.00    +0.000 NA
ATOM      9  H   UNL     1      49.825   6.385  13.131  0.00  0.00    +0.000 HD
BRANCH   8  10
ATOM     10  C   UNL     1      50.275   7.694  14.639  0.00  0.00    +0.000 C 
BRANCH  10  11
ATOM     11  C   UNL     1      49.522   8.181  15.869  0.00  0.00    +0.000 A 
ATOM     12  C   UNL     1      49.294   9.517  16.165  0.00  0.00    +0.000 A 
ATOM     13  S   UNL     1      48.381   9.757  17.586  0.00  0.00    +0.000 S 
ATOM     14  C   UNL     1      48.247   8.080  17.855  0.00  0.00    +0.000 A 
ATOM     15  N   UNL     1      47.545   7.595  18.916  0.00  0.00    +0.000 NA
ATOM     16  C   UNL     1      47.521   6.305  18.989  0.00  0.00    +0.000 A 
ATOM     17  N   UNL     1      48.142   5.462  18.104  0.00  0.00    +0.000 N 
ATOM     18  C   UNL     1      48.881   5.904  17.028  0.00  0.00    +0.000 A 
ATOM     19  O   UNL     1      49.463   5.119  16.289  0.00  0.00    +0.000 OA
ATOM     20  C   UNL     1      48.910   7.352  16.891  0.00  0.00    +0.000 A 
ATOM     21  H   UNL     1      48.099   4.461  18.228  0.00  0.00    +0.000 HD
ENDBRANCH  10  11
BRANCH  10  23
ATOM     22  C   UNL     1      51.794   8.429  12.685  0.00  0.00    +0.000 C 
ATOM     23  C   UNL     1      50.801   8.848  13.756  0.00  0.00    +0.000 C 
ENDBRANCH  10  23
ENDBRANCH   8  10
ENDBRANCH   7   8
ENDBRANCH   1   7
BRANCH   4  24
ATOM     24  C   UNL     1      43.395   4.342  12.889  0.00  0.00    +0.000 C 
BRANCH  24  25
ATOM     25  O   UNL     1      42.412   5.012  12.091  0.00  0.00    +0.000 OA
ATOM     26  H   UNL     1      41.643   5.183  12.658  0.00  0.00    +0.000 HD
ENDBRANCH  24  25
BRANCH  24  27
ATOM     27  C   UNL     1      43.629   2.934  12.288  0.00  0.00    +0.000 C 
BRANCH  27  28
ATOM     28  N   UNL     1      43.438   2.868  10.833  0.00  0.00    +0.000 NA
ATOM     29  H   UNL     1      42.756   3.567  10.542  0.00  0.00    +0.000 HD
BRANCH  28  30
ATOM     30  C   UNL     1      44.697   3.060  10.116  0.00  0.00    +0.000 C 
ATOM     31  C   UNL     1      44.873   2.030   9.007  0.00  0.00    +0.000 C 
ATOM     32  C   UNL     1      45.850   2.724   8.081  0.00  0.00    +0.000 C 
ATOM     33  N   UNL     1      45.393   4.119   8.042  0.00  0.00    +0.000 NA
ATOM     34  C   UNL     1      44.852   4.404   9.381  0.00  0.00    +0.000 C 
ATOM     35  H   UNL     1      44.620   4.180   7.377  0.00  0.00    +0.000 HD
ENDBRANCH  28  30
ENDBRANCH  27  28
ENDBRANCH  24  27
ENDBRANCH   4  24
TORSDOF 10
ENDMDL
MODEL 6
REMARK VINA RESULT:    -6.419      2.501      3.172
REMARK INTER + INTRA:         -11.677
REMARK INTER:                 -10.662
REMARK INTRA:                  -1.015
REMARK UNBOUND:                -1.693
REMARK  Name = 
REMARK  11 active torsions:
REMARK  status: ('A' for Active; 'I' for Inactive)
REMARK    1  A    between atoms: C_1  and  C_2
REMARK    2  A    between atoms: C_2  and  C_3
REMARK    3  A    between atoms: C_3  and  N_4
REMARK    4  A    between atoms: C_3  and  C_21
REMARK    5  A    between atoms: N_4  and  C_5
REMARK    6  A    between atoms: C_5  and  C_6
REMARK    7  A    between atoms: C_9  and  C_10
REMARK    8  A    between atoms: C_10  and  O_11
REMARK    9  A    between atoms: C_10  and  C_12
REMARK   10  A    between atoms: C_12  and  N_13
REMARK   11  A    between atoms: N_13  and  C_14
REMARK                            x       y       z     vdW  Elec       q    Type
REMARK                         _______ _______ _______ _____ _____    ______ ____
ROOT
ATOM      1  C   UNL     1      46.817   6.302  13.053  0.00  0.00    +0.000 A 
ATOM      2  C   UNL     1      46.423   6.780  11.796  0.00  0.00    +0.000 A 
ATOM      3  C   UNL     1      45.481   6.086  11.036  0.00  0.00    +0.000 A 
ATOM      4  C   UNL     1      44.912   4.903  11.522  0.00  0.00    +0.000 A 
ATOM      5  C   UNL     1      45.318   4.423  12.777  0.00  0.00    +0.000 A 
ATOM      6  C   UNL     1      46.264   5.112  13.532  0.00  0.00    +0.000 A 
ENDROOT
BRANCH   1   7
ATOM      7  C   UNL     1      47.851   7.045  13.861  0.00  0.00    +0.000 C 
BRANCH   7   8
ATOM      8  N   UNL     1      48.632   6.129  14.691  0.00  0.00    +0.000 NA
ATOM      9  H   UNL     1      49.150   5.505  14.072  0.00  0.00    +0.000 HD
BRANCH   8  10
ATOM     10  C   UNL     1      49.585   6.814  15.583  0.00  0.00    +0.000 C 
BRANCH  10  11
ATOM     11  C   UNL     1      49.804   5.876  16.763  0.00  0.00    +0.000 A 
ATOM     12  C   UNL     1      48.780   5.294  17.496  0.00  0.00    +0.000 A 
ATOM     13  S   UNL     1      49.328   4.251  18.729  0.00  0.00    +0.000 S 
ATOM     14  C   UNL     1      50.959   4.532  18.324  0.00  0.00    +0.000 A 
ATOM     15  N   UNL     1      51.965   3.904  18.994  0.00  0.00    +0.000 NA
ATOM     16  C   UNL     1      53.149   4.206  18.573  0.00  0.00    +0.000 A 
ATOM     17  N   UNL     1      53.414   5.083  17.554  0.00  0.00    +0.000 N 
ATOM     18  C   UNL     1      52.433   5.759  16.861  0.00  0.00    +0.000 A 
ATOM     19  O   UNL     1      52.715   6.573  15.990  0.00  0.00    +0.000 OA
ATOM     20  C   UNL     1      51.082   5.426  17.282  0.00  0.00    +0.000 A 
ATOM     21  H   UNL     1      54.366   5.289  17.284  0.00  0.00    +0.000 HD
ENDBRANCH  10  11
BRANCH  10  23
ATOM     22  C   UNL     1      50.089   9.149  16.563  0.00  0.00    +0.000 C 
ATOM     23  C   UNL     1      49.044   8.199  16.004  0.00  0.00    +0.000 C 
ENDBRANCH  10  23
ENDBRANCH   8  10
ENDBRANCH   7   8
ENDBRANCH   1   7
BRANCH   4  24
ATOM     24  C   UNL     1      43.850   4.188  10.713  0.00  0.00    +0.000 C 
BRANCH  24  25
ATOM     25  O   UNL     1      43.328   5.057   9.702  0.00  0.00    +0.000 OA
ATOM     26  H   UNL     1      42.443   5.338   9.985  0.00  0.00    +0.000 HD
ENDBRANCH  24  25
BRANCH  24  27
ATOM     27  C   UNL     1      44.374   2.904  10.026  0.00  0.00    +0.000 C 
BRANCH  27  28
ATOM     28  N   UNL     1      44.487   3.013   8.565  0.00  0.00    +0.000 NA
ATOM     29  H   UNL     1      44.098   3.902   8.254  0.00  0.00    +0.000 HD
BRANCH  28  30
ATOM     30  C   UNL     1      45.873   2.884   8.122  0.00  0.00    +0.000 C 
ATOM     31  C   UNL     1      46.310   1.427   8.063  0.00  0.00    +0.000 C 
ATOM     32  C   UNL     1      47.464   1.480   7.083  0.00  0.00    +0.000 C 
ATOM     33  N   UNL     1      47.010   2.397   6.030  0.00  0.00    +0.000 NA
ATOM     34  C   UNL     1      46.175   3.404   6.704  0.00  0.00    +0.000 C 
ATOM     35  H   UNL     1      46.408   1.874   5.392  0.00  0.00    +0.000 HD
ENDBRANCH  28  30
ENDBRANCH  27  28
ENDBRANCH  24  27
ENDBRANCH   4  24
TORSDOF 10
ENDMDL
MODEL 7
REMARK VINA RESULT:    -6.330      2.644      3.577
REMARK INTER + INTRA:         -11.538
REMARK INTER:                 -10.512
REMARK INTRA:                  -1.026
REMARK UNBOUND:                -1.693
REMARK  Name = 
REMARK  11 active torsions:
REMARK  status: ('A' for Active; 'I' for Inactive)
REMARK    1  A    between atoms: C_1  and  C_2
REMARK    2  A    between atoms: C_2  and  C_3
REMARK    3  A    between atoms: C_3  and  N_4
REMARK    4  A    between atoms: C_3  and  C_21
REMARK    5  A    between atoms: N_4  and  C_5
REMARK    6  A    between atoms: C_5  and  C_6
REMARK    7  A    between atoms: C_9  and  C_10
REMARK    8  A    between atoms: C_10  and  O_11
REMARK    9  A    between atoms: C_10  and  C_12
REMARK   10  A    between atoms: C_12  and  N_13
REMARK   11  A    between atoms: N_13  and  C_14
REMARK                            x       y       z     vdW  Elec       q    Type
REMARK                         _______ _______ _______ _____ _____    ______ ____
ROOT
ATOM      1  C   UNL     1      46.752   5.554  12.981  0.00  0.00    +0.000 A 
ATOM      2  C   UNL     1      46.195   4.295  13.243  0.00  0.00    +0.000 A 
ATOM      3  C   UNL     1      45.289   3.720  12.353  0.00  0.00    +0.000 A 
ATOM      4  C   UNL     1      44.926   4.392  11.179  0.00  0.00    +0.000 A 
ATOM      5  C   UNL     1      45.478   5.658  10.926  0.00  0.00    +0.000 A 
ATOM      6  C   UNL     1      46.377   6.235  11.820  0.00  0.00    +0.000 A 
ENDROOT
BRANCH   1   7
ATOM      7  C   UNL     1      47.714   6.181  13.958  0.00  0.00    +0.000 C 
BRANCH   7   8
ATOM      8  N   UNL     1      47.471   7.616  14.094  0.00  0.00    +0.000 NA
ATOM      9  H   UNL     1      47.489   7.846  15.088  0.00  0.00    +0.000 HD
BRANCH   8  10
ATOM     10  C   UNL     1      48.465   8.449  13.393  0.00  0.00    +0.000 C 
BRANCH  10  11
ATOM     11  C   UNL     1      49.695   8.479  14.291  0.00  0.00    +0.000 A 
ATOM     12  C   UNL     1      49.647   8.590  15.673  0.00  0.00    +0.000 A 
ATOM     13  S   UNL     1      51.182   8.550  16.416  0.00  0.00    +0.000 S 
ATOM     14  C   UNL     1      51.970   8.372  14.916  0.00  0.00    +0.000 A 
ATOM     15  N   UNL     1      53.324   8.247  14.846  0.00  0.00    +0.000 NA
ATOM     16  C   UNL     1      53.782   8.111  13.646  0.00  0.00    +0.000 A 
ATOM     17  N   UNL     1      53.009   8.099  12.514  0.00  0.00    +0.000 N 
ATOM     18  C   UNL     1      51.639   8.243  12.530  0.00  0.00    +0.000 A 
ATOM     19  O   UNL     1      50.990   8.278  11.491  0.00  0.00    +0.000 OA
ATOM     20  C   UNL     1      51.078   8.370  13.866  0.00  0.00    +0.000 A 
ATOM     21  H   UNL     1      53.432   8.005  11.601  0.00  0.00    +0.000 HD
ENDBRANCH  10  11
BRANCH  10  23
ATOM     22  C   UNL     1      48.039  10.313  11.659  0.00  0.00    +0.000 C 
ATOM     23  C   UNL     1      47.895   9.854  13.100  0.00  0.00    +0.000 C 
ENDBRANCH  10  23
ENDBRANCH   8  10
ENDBRANCH   7   8
ENDBRANCH   1   7
BRANCH   4  24
ATOM     24  C   UNL     1      43.985   3.734  10.192  0.00  0.00    +0.000 C 
BRANCH  24  25
ATOM     25  O   UNL     1      43.619   4.660   9.163  0.00  0.00    +0.000 OA
ATOM     26  H   UNL     1      43.226   4.150   8.435  0.00  0.00    +0.000 HD
ENDBRANCH  24  25
BRANCH  24  27
ATOM     27  C   UNL     1      44.593   2.479   9.519  0.00  0.00    +0.000 C 
BRANCH  27  28
ATOM     28  N   UNL     1      45.972   2.663   9.049  0.00  0.00    +0.000 NA
ATOM     29  H   UNL     1      46.614   2.149   9.653  0.00  0.00    +0.000 HD
BRANCH  28  30
ATOM     30  C   UNL     1      46.130   2.233   7.662  0.00  0.00    +0.000 C 
ATOM     31  C   UNL     1      46.650   3.362   6.781  0.00  0.00    +0.000 C 
ATOM     32  C   UNL     1      47.269   2.603   5.625  0.00  0.00    +0.000 C 
ATOM     33  N   UNL     1      47.960   1.471   6.255  0.00  0.00    +0.000 NA
ATOM     34  C   UNL     1      47.142   1.098   7.421  0.00  0.00    +0.000 C 
ATOM     35  H   UNL     1      48.861   1.805   6.604  0.00  0.00    +0.000 HD
ENDBRANCH  28  30
ENDBRANCH  27  28
ENDBRANCH  24  27
ENDBRANCH   4  24
TORSDOF 10
ENDMDL
MODEL 8
REMARK VINA RESULT:    -6.285      3.129      7.459
REMARK INTER + INTRA:         -11.469
REMARK INTER:                 -10.933
REMARK INTRA:                  -0.535
REMARK UNBOUND:                -1.693
REMARK  Name = 
REMARK  11 active torsions:
REMARK  status: ('A' for Active; 'I' for Inactive)
REMARK    1  A    between atoms: C_1  and  C_2
REMARK    2  A    between atoms: C_2  and  C_3
REMARK    3  A    between atoms: C_3  and  N_4
REMARK    4  A    between atoms: C_3  and  C_21
REMARK    5  A    between atoms: N_4  and  C_5
REMARK    6  A    between atoms: C_5  and  C_6
REMARK    7  A    between atoms: C_9  and  C_10
REMARK    8  A    between atoms: C_10  and  O_11
REMARK    9  A    between atoms: C_10  and  C_12
REMARK   10  A    between atoms: C_12  and  N_13
REMARK   11  A    between atoms: N_13  and  C_14
REMARK                            x       y       z     vdW  Elec       q    Type
REMARK                         _______ _______ _______ _____ _____    ______ ____
ROOT
ATOM      1  C   UNL     1      48.062   6.643  13.975  0.00  0.00    +0.000 A 
ATOM      2  C   UNL     1      47.401   5.410  13.886  0.00  0.00    +0.000 A 
ATOM      3  C   UNL     1      47.319   4.567  14.994  0.00  0.00    +0.000 A 
ATOM      4  C   UNL     1      47.893   4.943  16.214  0.00  0.00    +0.000 A 
ATOM      5  C   UNL     1      48.563   6.173  16.296  0.00  0.00    +0.000 A 
ATOM      6  C   UNL     1      48.652   7.012  15.187  0.00  0.00    +0.000 A 
ENDROOT
BRANCH   1   7
ATOM      7  C   UNL     1      48.166   7.540  12.769  0.00  0.00    +0.000 C 
BRANCH   7   8
ATOM      8  N   UNL     1      47.458   6.972  11.623  0.00  0.00    +0.000 NA
ATOM      9  H   UNL     1      47.805   6.024  11.476  0.00  0.00    +0.000 HD
BRANCH   8  10
ATOM     10  C   UNL     1      45.995   6.921  11.803  0.00  0.00    +0.000 C 
BRANCH  10  11
ATOM     11  C   UNL     1      45.507   5.759  10.949  0.00  0.00    +0.000 A 
ATOM     12  C   UNL     1      45.820   5.592   9.608  0.00  0.00    +0.000 A 
ATOM     13  S   UNL     1      45.170   4.171   8.924  0.00  0.00    +0.000 S 
ATOM     14  C   UNL     1      44.451   3.718  10.401  0.00  0.00    +0.000 A 
ATOM     15  N   UNL     1      43.752   2.555  10.512  0.00  0.00    +0.000 NA
ATOM     16  C   UNL     1      43.271   2.337  11.691  0.00  0.00    +0.000 A 
ATOM     17  N   UNL     1      43.420   3.181  12.762  0.00  0.00    +0.000 N 
ATOM     18  C   UNL     1      44.099   4.377  12.695  0.00  0.00    +0.000 A 
ATOM     19  O   UNL     1      44.166   5.127  13.662  0.00  0.00    +0.000 OA
ATOM     20  C   UNL     1      44.683   4.649  11.391  0.00  0.00    +0.000 A 
ATOM     21  H   UNL     1      43.003   2.959  13.655  0.00  0.00    +0.000 HD
ENDBRANCH  10  11
BRANCH  10  23
ATOM     22  C   UNL     1      45.251   9.278  12.549  0.00  0.00    +0.000 C 
ATOM     23  C   UNL     1      45.348   8.269  11.417  0.00  0.00    +0.000 C 
ENDBRANCH  10  23
ENDBRANCH   8  10
ENDBRANCH   7   8
ENDBRANCH   1   7
BRANCH   4  24
ATOM     24  C   UNL     1      47.750   4.045  17.425  0.00  0.00    +0.000 C 
BRANCH  24  25
ATOM     25  O   UNL     1      46.514   3.323  17.365  0.00  0.00    +0.000 OA
ATOM     26  H   UNL     1      45.827   3.883  17.762  0.00  0.00    +0.000 HD
ENDBRANCH  24  25
BRANCH  24  27
ATOM     27  C   UNL     1      48.903   3.021  17.560  0.00  0.00    +0.000 C 
BRANCH  27  28
ATOM     28  N   UNL     1      50.194   3.621  17.923  0.00  0.00    +0.000 NA
ATOM     29  H   UNL     1      50.240   3.757  18.932  0.00  0.00    +0.000 HD
BRANCH  28  30
ATOM     30  C   UNL     1      51.314   2.799  17.471  0.00  0.00    +0.000 C 
ATOM     31  C   UNL     1      52.503   2.903  18.417  0.00  0.00    +0.000 C 
ATOM     32  C   UNL     1      53.254   1.620  18.127  0.00  0.00    +0.000 C 
ATOM     33  N   UNL     1      52.206   0.601  18.001  0.00  0.00    +0.000 NA
ATOM     34  C   UNL     1      51.049   1.283  17.400  0.00  0.00    +0.000 C 
ATOM     35  H   UNL     1      51.936   0.306  18.942  0.00  0.00    +0.000 HD
ENDBRANCH  28  30
ENDBRANCH  27  28
ENDBRANCH  24  27
ENDBRANCH   4  24
TORSDOF 10
ENDMDL
MODEL 9
REMARK VINA RESULT:    -6.054      2.998      7.431
REMARK INTER + INTRA:         -11.109
REMARK INTER:                  -9.300
REMARK INTRA:                  -1.809
REMARK UNBOUND:                -1.693
REMARK  Name = 
REMARK  11 active torsions:
REMARK  status: ('A' for Active; 'I' for Inactive)
REMARK    1  A    between atoms: C_1  and  C_2
REMARK    2  A    between atoms: C_2  and  C_3
REMARK    3  A    between atoms: C_3  and  N_4
REMARK    4  A    between atoms: C_3  and  C_21
REMARK    5  A    between atoms: N_4  and  C_5
REMARK    6  A    between atoms: C_5  and  C_6
REMARK    7  A    between atoms: C_9  and  C_10
REMARK    8  A    between atoms: C_10  and  O_11
REMARK    9  A    between atoms: C_10  and  C_12
REMARK   10  A    between atoms: C_12  and  N_13
REMARK   11  A    between atoms: N_13  and  C_14
REMARK                            x       y       z     vdW  Elec       q    Type
REMARK                         _______ _______ _______ _____ _____    ______ ____
ROOT
ATOM      1  C   UNL     1      48.640   8.022  13.681  0.00  0.00    +0.000 A 
ATOM      2  C   UNL     1      49.389   7.015  14.305  0.00  0.00    +0.000 A 
ATOM      3  C   UNL     1      49.530   6.991  15.693  0.00  0.00    +0.000 A 
ATOM      4  C   UNL     1      48.919   7.973  16.483  0.00  0.00    +0.000 A 
ATOM      5  C   UNL     1      48.179   8.985  15.853  0.00  0.00    +0.000 A 
ATOM      6  C   UNL     1      48.046   9.013  14.466  0.00  0.00    +0.000 A 
ENDROOT
BRANCH   1   7
ATOM      7  C   UNL     1      48.510   8.055  12.180  0.00  0.00    +0.000 C 
BRANCH   7   8
ATOM      8  N   UNL     1      47.791   6.882  11.685  0.00  0.00    +0.000 NA
ATOM      9  H   UNL     1      48.153   6.062  12.171  0.00  0.00    +0.000 HD
BRANCH   8  10
ATOM     10  C   UNL     1      46.333   6.956  11.895  0.00  0.00    +0.000 C 
BRANCH  10  11
ATOM     11  C   UNL     1      45.728   5.859  11.029  0.00  0.00    +0.000 A 
ATOM     12  C   UNL     1      45.952   5.730   9.665  0.00  0.00    +0.000 A 
ATOM     13  S   UNL     1      45.181   4.377   8.970  0.00  0.00    +0.000 S 
ATOM     14  C   UNL     1      44.525   3.905  10.470  0.00  0.00    +0.000 A 
ATOM     15  N   UNL     1      43.766   2.779  10.579  0.00  0.00    +0.000 NA
ATOM     16  C   UNL     1      43.343   2.541  11.777  0.00  0.00    +0.000 A 
ATOM     17  N   UNL     1      43.603   3.330  12.867  0.00  0.00    +0.000 N 
ATOM     18  C   UNL     1      44.347   4.489  12.804  0.00  0.00    +0.000 A 
ATOM     19  O   UNL     1      44.514   5.193  13.792  0.00  0.00    +0.000 OA
ATOM     20  C   UNL     1      44.868   4.780  11.478  0.00  0.00    +0.000 A 
ATOM     21  H   UNL     1      43.228   3.096  13.775  0.00  0.00    +0.000 HD
ENDBRANCH  10  11
BRANCH  10  23
ATOM     22  C   UNL     1      44.988   9.026  12.647  0.00  0.00    +0.000 C 
ATOM     23  C   UNL     1      45.800   8.363  11.548  0.00  0.00    +0.000 C 
ENDBRANCH  10  23
ENDBRANCH   8  10
ENDBRANCH   7   8
ENDBRANCH   1   7
BRANCH   4  24
ATOM     24  C   UNL     1      49.031   7.905  17.992  0.00  0.00    +0.000 C 
BRANCH  24  25
ATOM     25  O   UNL     1      48.137   8.846  18.598  0.00  0.00    +0.000 OA
ATOM     26  H   UNL     1      48.666   9.605  18.892  0.00  0.00    +0.000 HD
ENDBRANCH  24  25
BRANCH  24  27
ATOM     27  C   UNL     1      48.715   6.501  18.561  0.00  0.00    +0.000 C 
BRANCH  27  28
ATOM     28  N   UNL     1      47.421   5.958  18.126  0.00  0.00    +0.000 NA
ATOM     29  H   UNL     1      47.079   6.484  17.322  0.00  0.00    +0.000 HD
BRANCH  28  30
ATOM     30  C   UNL     1      47.516   4.538  17.798  0.00  0.00    +0.000 C 
ATOM     31  C   UNL     1      47.279   4.288  16.314  0.00  0.00    +0.000 C 
ATOM     32  C   UNL     1      47.968   2.956  16.102  0.00  0.00    +0.000 C 
ATOM     33  N   UNL     1      49.210   3.056  16.878  0.00  0.00    +0.000 NA
ATOM     34  C   UNL     1      48.885   3.880  18.055  0.00  0.00    +0.000 C 
ATOM     35  H   UNL     1      49.892   3.573  16.319  0.00  0.00    +0.000 HD
ENDBRANCH  28  30
ENDBRANCH  27  28
ENDBRANCH  24  27
ENDBRANCH   4  24
TORSDOF 10
ENDMDL
