MODEL 1
REMARK VINA RESULT:    -8.680      0.000      0.000
REMARK INTER + INTRA:         -13.855
REMARK INTER:                 -12.739
REMARK INTRA:                  -1.116
REMARK UNBOUND:                -1.116
REMARK  Name = 
REMARK  9 active torsions:
REMARK  status: ('A' for Active; 'I' for Inactive)
REMARK    1  A    between atoms: C_1  and  C_2
REMARK    2  A    between atoms: C_2  and  C_3
REMARK    3  A    between atoms: C_2  and  C_26
REMARK    4  A    between atoms: C_3  and  N_4
REMARK    5  A    between atoms: N_4  and  C_5
REMARK    6  A    between atoms: C_5  and  C_6
REMARK    7  A    between atoms: C_10  and  C_11
REMARK    8  A    between atoms: C_11  and  N_12
REMARK    9  A    between atoms: C_13  and  C_15
REMARK                            x       y       z     vdW  Elec       q    Type
REMARK                         _______ _______ _______ _____ _____    ______ ____
ROOT
ATOM      1  C   UNL     1      44.948   6.210  11.923  0.00  0.00    +0.000 A 
ATOM      2  C   UNL     1      46.023   7.085  11.790  0.00  0.00    +0.000 A 
ATOM      3  N   UNL     1      47.189   6.977  12.469  0.00  0.00    +0.000 NA
ATOM      4  C   UNL     1      47.293   5.946  13.337  0.00  0.00    +0.000 A 
ATOM      5  C   UNL     1      46.294   5.007  13.558  0.00  0.00    +0.000 A 
ATOM      6  C   UNL     1      45.117   5.136  12.810  0.00  0.00    +0.000 A 
ENDROOT
BRANCH   1   7
ATOM      7  C   UNL     1      43.707   6.414  11.084  0.00  0.00    +0.000 C 
BRANCH   7   8
ATOM      8  N   UNL     1      43.384   5.244  10.277  0.00  0.00    +0.000 NA
ATOM      9  H   UNL     1      43.094   4.473  10.893  0.00  0.00    +0.000 HD
BRANCH   8  10
ATOM     10  C   UNL     1      44.531   4.720   9.529  0.00  0.00    +0.000 C 
BRANCH  10  12
ATOM     11  C   UNL     1      44.299   2.391  10.551  0.00  0.00    +0.000 C 
ATOM     12  C   UNL     1      44.389   3.197   9.250  0.00  0.00    +0.000 C 
BRANCH  12  13
ATOM     13  C   UNL     1      45.496   2.653   8.353  0.00  0.00    +0.000 A 
ATOM     14  C   UNL     1      46.053   3.457   7.360  0.00  0.00    +0.000 A 
ATOM     15  C   UNL     1      47.061   2.934   6.552  0.00  0.00    +0.000 A 
ATOM     16  C   UNL     1      47.478   1.623   6.741  0.00  0.00    +0.000 A 
ATOM     17  C   UNL     1      46.865   0.881   7.733  0.00  0.00    +0.000 A 
ATOM     18  N   UNL     1      45.893   1.365   8.536  0.00  0.00    +0.000 NA
ENDBRANCH  12  13
ENDBRANCH  10  12
ENDBRANCH   8  10
ENDBRANCH   7   8
ENDBRANCH   1   7
BRANCH   5  19
ATOM     19  C   UNL     1      46.484   3.891  14.540  0.00  0.00    +0.000 C 
BRANCH  19  20
ATOM     20  N   UNL     1      47.610   4.130  15.408  0.00  0.00    +0.000 N 
ATOM     21  C   UNL     1      47.532   3.882  16.755  0.00  0.00    +0.000 C 
ATOM     22  O   UNL     1      46.527   3.402  17.271  0.00  0.00    +0.000 OA
ATOM     23  H   UNL     1      48.350   4.732  15.054  0.00  0.00    +0.000 HD
BRANCH  21  24
ATOM     24  C   UNL     1      48.739   4.162  17.543  0.00  0.00    +0.000 A 
ATOM     25  C   UNL     1      48.782   5.281  18.364  0.00  0.00    +0.000 A 
ATOM     26  S   UNL     1      50.239   5.435  19.236  0.00  0.00    +0.000 S 
ATOM     27  C   UNL     1      50.887   4.040  18.506  0.00  0.00    +0.000 A 
ATOM     28  N   UNL     1      52.146   3.624  18.789  0.00  0.00    +0.000 NA
ATOM     29  C   UNL     1      52.522   2.572  18.142  0.00  0.00    +0.000 A 
ATOM     30  N   UNL     1      51.747   1.897  17.233  0.00  0.00    +0.000 N 
ATOM     31  C   UNL     1      50.454   2.262  16.941  0.00  0.00    +0.000 A 
ATOM     32  O   UNL     1      49.761   1.604  16.172  0.00  0.00    +0.000 OA
ATOM     33  C   UNL     1      49.993   3.451  17.629  0.00  0.00    +0.000 A 
ATOM     34  H   UNL     1      52.092   1.069  16.769  0.00  0.00    +0.000 HD
ENDBRANCH  21  24
ENDBRANCH  19  20
ENDBRANCH   5  19
TORSDOF 8
ENDMDL
MODEL 2
REMARK VINA RESULT:    -8.200      1.615      2.339
REMARK INTER + INTRA:         -13.150
REMARK INTER:                 -12.152
REMARK INTRA:                  -0.998
REMARK UNBOUND:                -1.116
REMARK  Name = 
REMARK  9 active torsions:
REMARK  status: ('A' for Active; 'I' for Inactive)
REMARK    1  A    between atoms: C_1  and  C_2
REMARK    2  A    between atoms: C_2  and  C_3
REMARK    3  A    between atoms: C_2  and  C_26
REMARK    4  A    between atoms: C_3  and  N_4
REMARK    5  A    between atoms: N_4  and  C_5
REMARK    6  A    between atoms: C_5  and  C_6
REMARK    7  A    between atoms: C_10  and  C_11
REMARK    8  A    between atoms: C_11  and  N_12
REMARK    9  A    between atoms: C_13  and  C_15
REMARK                            x       y       z     vdW  Elec       q    Type
REMARK                         _______ _______ _______ _____ _____    ______ ____
ROOT
ATOM      1  C   UNL     1      46.766   5.603  13.032  0.00  0.00    +0.000 A 
ATOM      2  C   UNL     1      46.272   4.439  13.615  0.00  0.00    +0.000 A 
ATOM      3  N   UNL     1      46.608   3.997  14.849  0.00  0.00    +0.000 NA
ATOM      4  C   UNL     1      47.494   4.746  15.541  0.00  0.00    +0.000 A 
ATOM      5  C   UNL     1      48.057   5.924  15.070  0.00  0.00    +0.000 A 
ATOM      6  C   UNL     1      47.656   6.364  13.803  0.00  0.00    +0.000 A 
ENDROOT
BRANCH   1   7
ATOM      7  C   UNL     1      46.289   6.013  11.657  0.00  0.00    +0.000 C 
BRANCH   7   8
ATOM      8  N   UNL     1      45.347   5.057  11.088  0.00  0.00    +0.000 NA
ATOM      9  H   UNL     1      45.603   4.106  11.386  0.00  0.00    +0.000 HD
BRANCH   8  10
ATOM     10  C   UNL     1      45.376   5.015   9.622  0.00  0.00    +0.000 C 
BRANCH  10  12
ATOM     11  C   UNL     1      44.189   2.828  10.199  0.00  0.00    +0.000 C 
ATOM     12  C   UNL     1      44.762   3.697   9.072  0.00  0.00    +0.000 C 
BRANCH  12  13
ATOM     13  C   UNL     1      45.741   2.898   8.219  0.00  0.00    +0.000 A 
ATOM     14  C   UNL     1      46.401   3.506   7.153  0.00  0.00    +0.000 A 
ATOM     15  C   UNL     1      47.288   2.752   6.387  0.00  0.00    +0.000 A 
ATOM     16  C   UNL     1      47.484   1.411   6.689  0.00  0.00    +0.000 A 
ATOM     17  C   UNL     1      46.779   0.873   7.749  0.00  0.00    +0.000 A 
ATOM     18  N   UNL     1      45.921   1.582   8.513  0.00  0.00    +0.000 NA
ENDBRANCH  12  13
ENDBRANCH  10  12
ENDBRANCH   8  10
ENDBRANCH   7   8
ENDBRANCH   1   7
BRANCH   5  19
ATOM     19  C   UNL     1      49.036   6.701  15.900  0.00  0.00    +0.000 C 
BRANCH  19  20
ATOM     20  N   UNL     1      50.089   5.859  16.409  0.00  0.00    +0.000 N 
ATOM     21  C   UNL     1      50.168   5.551  17.744  0.00  0.00    +0.000 C 
ATOM     22  O   UNL     1      49.325   5.932  18.551  0.00  0.00    +0.000 OA
ATOM     23  H   UNL     1      50.909   5.731  15.819  0.00  0.00    +0.000 HD
BRANCH  21  24
ATOM     24  C   UNL     1      51.282   4.686  18.152  0.00  0.00    +0.000 A 
ATOM     25  C   UNL     1      52.342   5.221  18.872  0.00  0.00    +0.000 A 
ATOM     26  S   UNL     1      53.530   4.073  19.297  0.00  0.00    +0.000 S 
ATOM     27  C   UNL     1      52.696   2.829  18.487  0.00  0.00    +0.000 A 
ATOM     28  N   UNL     1      53.199   1.571  18.430  0.00  0.00    +0.000 NA
ATOM     29  C   UNL     1      52.481   0.736  17.757  0.00  0.00    +0.000 A 
ATOM     30  N   UNL     1      51.300   1.048  17.133  0.00  0.00    +0.000 N 
ATOM     31  C   UNL     1      50.734   2.299  17.194  0.00  0.00    +0.000 A 
ATOM     32  O   UNL     1      49.646   2.535  16.680  0.00  0.00    +0.000 OA
ATOM     33  C   UNL     1      51.515   3.280  17.923  0.00  0.00    +0.000 A 
ATOM     34  H   UNL     1      50.775   0.345  16.634  0.00  0.00    +0.000 HD
ENDBRANCH  21  24
ENDBRANCH  19  20
ENDBRANCH   5  19
TORSDOF 8
ENDMDL
MODEL 3
REMARK VINA RESULT:    -8.134      2.733      3.319
REMARK INTER + INTRA:         -13.055
REMARK INTER:                 -12.094
REMARK INTRA:                  -0.961
REMARK UNBOUND:                -1.116
REMARK  Name = 
REMARK  9 active torsions:
REMARK  status: ('A' for Active; 'I' for Inactive)
REMARK    1  A    between atoms: C_1  and  C_2
REMARK    2  A    between atoms: C_2  and  C_3
REMARK    3  A    between atoms: C_2  and  C_26
REMARK    4  A    between atoms: C_3  and  N_4
REMARK    5  A    between atoms: N_4  and  C_5
REMARK    6  A    between atoms: C_5  and  C_6
REMARK    7  A    between atoms: C_10  and  C_11
REMARK    8  A    between atoms: C_11  and  N_12
REMARK    9  A    between atoms: C_13  and  C_15
REMARK                            x       y       z     vdW  Elec       q    Type
REMARK                         _______ _______ _______ _____ _____    ______ ____
ROOT
ATOM      1  C   UNL     1      44.978   5.743  12.259  0.00  0.00    +0.000 A 
ATOM      2  C   UNL     1      44.803   4.521  12.903  0.00  0.00    +0.000 A 
ATOM      3  N   UNL     1      45.659   4.007  13.816  0.00  0.00    +0.000 NA
ATOM      4  C   UNL     1      46.757   4.741  14.101  0.00  0.00    +0.000 A 
ATOM      5  C   UNL     1      47.043   5.973  13.528  0.00  0.00    +0.000 A 
ATOM      6  C   UNL     1      46.114   6.485  12.614  0.00  0.00    +0.000 A 
ENDROOT
BRANCH   1   7
ATOM      7  C   UNL     1      43.933   6.231  11.279  0.00  0.00    +0.000 C 
BRANCH   7   8
ATOM      8  N   UNL     1      43.559   5.206  10.312  0.00  0.00    +0.000 NA
ATOM      9  H   UNL     1      43.179   4.389  10.809  0.00  0.00    +0.000 HD
BRANCH   8  10
ATOM     10  C   UNL     1      44.696   4.688   9.546  0.00  0.00    +0.000 C 
BRANCH  10  12
ATOM     11  C   UNL     1      44.185   2.293  10.273  0.00  0.00    +0.000 C 
ATOM     12  C   UNL     1      44.459   3.222   9.084  0.00  0.00    +0.000 C 
BRANCH  12  13
ATOM     13  C   UNL     1      45.597   2.680   8.226  0.00  0.00    +0.000 A 
ATOM     14  C   UNL     1      46.197   3.489   7.263  0.00  0.00    +0.000 A 
ATOM     15  C   UNL     1      47.233   2.967   6.490  0.00  0.00    +0.000 A 
ATOM     16  C   UNL     1      47.635   1.652   6.683  0.00  0.00    +0.000 A 
ATOM     17  C   UNL     1      46.979   0.905   7.643  0.00  0.00    +0.000 A 
ATOM     18  N   UNL     1      45.980   1.388   8.412  0.00  0.00    +0.000 NA
ENDBRANCH  12  13
ENDBRANCH  10  12
ENDBRANCH   8  10
ENDBRANCH   7   8
ENDBRANCH   1   7
BRANCH   5  19
ATOM     19  C   UNL     1      48.284   6.729  13.895  0.00  0.00    +0.000 C 
BRANCH  19  20
ATOM     20  N   UNL     1      48.223   7.230  15.245  0.00  0.00    +0.000 N 
ATOM     21  C   UNL     1      49.166   6.876  16.177  0.00  0.00    +0.000 C 
ATOM     22  O   UNL     1      50.126   6.164  15.893  0.00  0.00    +0.000 OA
ATOM     23  H   UNL     1      47.336   7.617  15.558  0.00  0.00    +0.000 HD
BRANCH  21  24
ATOM     24  C   UNL     1      49.006   7.446  17.520  0.00  0.00    +0.000 A 
ATOM     25  C   UNL     1      49.606   8.659  17.830  0.00  0.00    +0.000 A 
ATOM     26  S   UNL     1      49.289   9.194  19.419  0.00  0.00    +0.000 S 
ATOM     27  C   UNL     1      48.383   7.795  19.767  0.00  0.00    +0.000 A 
ATOM     28  N   UNL     1      47.845   7.598  20.996  0.00  0.00    +0.000 NA
ATOM     29  C   UNL     1      47.211   6.482  21.132  0.00  0.00    +0.000 A 
ATOM     30  N   UNL     1      47.067   5.542  20.143  0.00  0.00    +0.000 N 
ATOM     31  C   UNL     1      47.563   5.714  18.873  0.00  0.00    +0.000 A 
ATOM     32  O   UNL     1      47.365   4.886  17.991  0.00  0.00    +0.000 OA
ATOM     33  C   UNL     1      48.302   6.946  18.677  0.00  0.00    +0.000 A 
ATOM     34  H   UNL     1      46.545   4.692  20.307  0.00  0.00    +0.000 HD
ENDBRANCH  21  24
ENDBRANCH  19  20
ENDBRANCH   5  19
TORSDOF 8
ENDMDL
MODEL 4
REMARK VINA RESULT:    -7.998      2.050      2.943
REMARK INTER + INTRA:         -12.855
REMARK INTER:                 -11.712
REMARK INTRA:                  -1.143
REMARK UNBOUND:                -1.116
REMARK  Name = 
REMARK  9 active torsions:
REMARK  status: ('A' for Active; 'I' for Inactive)
REMARK    1  A    between atoms: C_1  and  C_2
REMARK    2  A    between atoms: C_2  and  C_3
REMARK    3  A    between atoms: C_2  and  C_26
REMARK    4  A    between atoms: C_3  and  N_4
REMARK    5  A    between atoms: N_4  and  C_5
REMARK    6  A    between atoms: C_5  and  C_6
REMARK    7  A    between atoms: C_10  and  C_11
REMARK    8  A    between atoms: C_11  and  N_12
REMARK    9  A    between atoms: C_13  and  C_15
REMARK                            x       y       z     vdW  Elec       q    Type
REMARK                         _______ _______ _______ _____ _____    ______ ____
ROOT
ATOM      1  C   UNL     1      45.282   7.314  11.768  0.00  0.00    +0.000 A 
ATOM      2  C   UNL     1      44.956   8.667  11.713  0.00  0.00    +0.000 A 
ATOM      3  N   UNL     1      45.828   9.676  11.943  0.00  0.00    +0.000 NA
ATOM      4  C   UNL     1      47.095   9.324  12.255  0.00  0.00    +0.000 A 
ATOM      5  C   UNL     1      47.543   8.013  12.341  0.00  0.00    +0.000 A 
ATOM      6  C   UNL     1      46.617   7.001  12.062  0.00  0.00    +0.000 A 
ENDROOT
BRANCH   1   7
ATOM      7  C   UNL     1      44.228   6.276  11.458  0.00  0.00    +0.000 C 
BRANCH   7   8
ATOM      8  N   UNL     1      44.805   4.970  11.163  0.00  0.00    +0.000 NA
ATOM      9  H   UNL     1      45.676   4.852  11.698  0.00  0.00    +0.000 HD
BRANCH   8  10
ATOM     10  C   UNL     1      45.199   4.813   9.759  0.00  0.00    +0.000 C 
BRANCH  10  12
ATOM     11  C   UNL     1      44.145   2.539  10.243  0.00  0.00    +0.000 C 
ATOM     12  C   UNL     1      44.658   3.487   9.154  0.00  0.00    +0.000 C 
BRANCH  12  13
ATOM     13  C   UNL     1      45.676   2.785   8.262  0.00  0.00    +0.000 A 
ATOM     14  C   UNL     1      46.278   3.472   7.209  0.00  0.00    +0.000 A 
ATOM     15  C   UNL     1      47.202   2.804   6.406  0.00  0.00    +0.000 A 
ATOM     16  C   UNL     1      47.492   1.470   6.661  0.00  0.00    +0.000 A 
ATOM     17  C   UNL     1      46.840   0.851   7.711  0.00  0.00    +0.000 A 
ATOM     18  N   UNL     1      45.949   1.475   8.509  0.00  0.00    +0.000 NA
ENDBRANCH  12  13
ENDBRANCH  10  12
ENDBRANCH   8  10
ENDBRANCH   7   8
ENDBRANCH   1   7
BRANCH   5  19
ATOM     19  C   UNL     1      48.966   7.702  12.695  0.00  0.00    +0.000 C 
BRANCH  19  20
ATOM     20  N   UNL     1      49.056   6.897  13.887  0.00  0.00    +0.000 N 
ATOM     21  C   UNL     1      48.968   7.462  15.134  0.00  0.00    +0.000 C 
ATOM     22  O   UNL     1      48.760   8.662  15.291  0.00  0.00    +0.000 OA
ATOM     23  H   UNL     1      49.454   5.965  13.789  0.00  0.00    +0.000 HD
BRANCH  21  24
ATOM     24  C   UNL     1      49.073   6.548  16.277  0.00  0.00    +0.000 A 
ATOM     25  C   UNL     1      49.953   6.836  17.312  0.00  0.00    +0.000 A 
ATOM     26  S   UNL     1      49.922   5.691  18.576  0.00  0.00    +0.000 S 
ATOM     27  C   UNL     1      48.769   4.740  17.760  0.00  0.00    +0.000 A 
ATOM     28  N   UNL     1      48.327   3.572  18.288  0.00  0.00    +0.000 NA
ATOM     29  C   UNL     1      47.480   2.937  17.550  0.00  0.00    +0.000 A 
ATOM     30  N   UNL     1      47.034   3.368  16.326  0.00  0.00    +0.000 N 
ATOM     31  C   UNL     1      47.427   4.561  15.769  0.00  0.00    +0.000 A 
ATOM     32  O   UNL     1      46.964   4.953  14.703  0.00  0.00    +0.000 OA
ATOM     33  C   UNL     1      48.395   5.303  16.552  0.00  0.00    +0.000 A 
ATOM     34  H   UNL     1      46.357   2.832  15.802  0.00  0.00    +0.000 HD
ENDBRANCH  21  24
ENDBRANCH  19  20
ENDBRANCH   5  19
TORSDOF 8
ENDMDL
MODEL 5
REMARK VINA RESULT:    -7.708      2.122      2.976
REMARK INTER + INTRA:         -12.429
REMARK INTER:                 -11.052
REMARK INTRA:                  -1.377
REMARK UNBOUND:                -1.116
REMARK  Name = 
REMARK  9 active torsions:
REMARK  status: ('A' for Active; 'I' for Inactive)
REMARK    1  A    between atoms: C_1  and  C_2
REMARK    2  A    between atoms: C_2  and  C_3
REMARK    3  A    between atoms: C_2  and  C_26
REMARK    4  A    between atoms: C_3  and  N_4
REMARK    5  A    between atoms: N_4  and  C_5
REMARK    6  A    between atoms: C_5  and  C_6
REMARK    7  A    between atoms: C_10  and  C_11
REMARK    8  A    between atoms: C_11  and  N_12
REMARK    9  A    between atoms: C_13  and  C_15
REMARK                            x       y       z     vdW  Elec       q    Type
REMARK                         _______ _______ _______ _____ _____    ______ ____
ROOT
ATOM      1  C   UNL     1      45.825   6.382  12.073  0.00  0.00    +0.000 A 
ATOM      2  C   UNL     1      46.933   7.218  11.966  0.00  0.00    +0.000 A 
ATOM      3  N   UNL     1      48.033   7.138  12.751  0.00  0.00    +0.000 NA
ATOM      4  C   UNL     1      48.029   6.181  13.705  0.00  0.00    +0.000 A 
ATOM      5  C   UNL     1      46.987   5.288  13.911  0.00  0.00    +0.000 A 
ATOM      6  C   UNL     1      45.883   5.383  13.055  0.00  0.00    +0.000 A 
ENDROOT
BRANCH   1   7
ATOM      7  C   UNL     1      44.667   6.546  11.114  0.00  0.00    +0.000 C 
BRANCH   7   8
ATOM      8  N   UNL     1      44.017   5.278  10.808  0.00  0.00    +0.000 NA
ATOM      9  H   UNL     1      44.338   4.559  11.470  0.00  0.00    +0.000 HD
BRANCH   8  10
ATOM     10  C   UNL     1      44.364   4.753   9.483  0.00  0.00    +0.000 C 
BRANCH  10  12
ATOM     11  C   UNL     1      44.770   2.665  10.897  0.00  0.00    +0.000 C 
ATOM     12  C   UNL     1      44.478   3.202   9.491  0.00  0.00    +0.000 C 
BRANCH  12  13
ATOM     13  C   UNL     1      45.503   2.679   8.489  0.00  0.00    +0.000 A 
ATOM     14  C   UNL     1      46.011   3.521   7.501  0.00  0.00    +0.000 A 
ATOM     15  C   UNL     1      46.944   3.016   6.597  0.00  0.00    +0.000 A 
ATOM     16  C   UNL     1      47.336   1.687   6.688  0.00  0.00    +0.000 A 
ATOM     17  C   UNL     1      46.773   0.909   7.682  0.00  0.00    +0.000 A 
ATOM     18  N   UNL     1      45.875   1.374   8.576  0.00  0.00    +0.000 NA
ENDBRANCH  12  13
ENDBRANCH  10  12
ENDBRANCH   8  10
ENDBRANCH   7   8
ENDBRANCH   1   7
BRANCH   5  19
ATOM     19  C   UNL     1      47.057   4.252  14.993  0.00  0.00    +0.000 C 
BRANCH  19  20
ATOM     20  N   UNL     1      47.305   4.845  16.284  0.00  0.00    +0.000 N 
ATOM     21  C   UNL     1      48.399   4.489  17.030  0.00  0.00    +0.000 C 
ATOM     22  O   UNL     1      49.239   3.694  16.615  0.00  0.00    +0.000 OA
ATOM     23  H   UNL     1      46.523   5.313  16.738  0.00  0.00    +0.000 HD
BRANCH  21  24
ATOM     24  C   UNL     1      48.553   5.156  18.328  0.00  0.00    +0.000 A 
ATOM     25  C   UNL     1      48.566   4.401  19.494  0.00  0.00    +0.000 A 
ATOM     26  S   UNL     1      48.790   5.327  20.908  0.00  0.00    +0.000 S 
ATOM     27  C   UNL     1      48.823   6.778  20.018  0.00  0.00    +0.000 A 
ATOM     28  N   UNL     1      48.952   7.977  20.639  0.00  0.00    +0.000 NA
ATOM     29  C   UNL     1      48.929   8.996  19.848  0.00  0.00    +0.000 A 
ATOM     30  N   UNL     1      48.788   8.923  18.485  0.00  0.00    +0.000 N 
ATOM     31  C   UNL     1      48.691   7.730  17.809  0.00  0.00    +0.000 A 
ATOM     32  O   UNL     1      48.630   7.690  16.585  0.00  0.00    +0.000 OA
ATOM     33  C   UNL     1      48.691   6.555  18.658  0.00  0.00    +0.000 A 
ATOM     34  H   UNL     1      48.794   9.758  17.916  0.00  0.00    +0.000 HD
ENDBRANCH  21  24
ENDBRANCH  19  20
ENDBRANCH   5  19
TORSDOF 8
ENDMDL
MODEL 6
REMARK VINA RESULT:    -7.100      3.561      8.740
REMARK INTER + INTRA:         -11.537
REMARK INTER:                 -10.028
REMARK INTRA:                  -1.509
REMARK UNBOUND:                -1.116
REMARK  Name = 
REMARK  9 active torsions:
REMARK  status: ('A' for Active; 'I' for Inactive)
REMARK    1  A    between atoms: C_1  and  C_2
REMARK    2  A    between atoms: C_2  and  C_3
REMARK    3  A    between atoms: C_2  and  C_26
REMARK    4  A    between atoms: C_3  and  N_4
REMARK    5  A    between atoms: N_4  and  C_5
REMARK    6  A    between atoms: C_5  and  C_6
REMARK    7  A    between atoms: C_10  and  C_11
REMARK    8  A    between atoms: C_11  and  N_12
REMARK    9  A    between atoms: C_13  and  C_15
REMARK                            x       y       z     vdW  Elec       q    Type
REMARK                         _______ _______ _______ _____ _____    ______ ____
ROOT
ATOM      1  C   UNL     1      49.448   8.065  14.995  0.00  0.00    +0.000 A 
ATOM      2  C   UNL     1      50.681   8.071  14.349  0.00  0.00    +0.000 A 
ATOM      3  N   UNL     1      50.844   8.125  13.007  0.00  0.00    +0.000 NA
ATOM      4  C   UNL     1      49.718   8.166  12.260  0.00  0.00    +0.000 A 
ATOM      5  C   UNL     1      48.432   8.167  12.785  0.00  0.00    +0.000 A 
ATOM      6  C   UNL     1      48.310   8.145  14.179  0.00  0.00    +0.000 A 
ENDROOT
BRANCH   1   7
ATOM      7  C   UNL     1      49.393   8.036  16.506  0.00  0.00    +0.000 C 
BRANCH   7   8
ATOM      8  N   UNL     1      48.262   7.263  17.005  0.00  0.00    +0.000 NA
ATOM      9  H   UNL     1      47.386   7.676  16.659  0.00  0.00    +0.000 HD
BRANCH   8  10
ATOM     10  C   UNL     1      48.141   7.289  18.466  0.00  0.00    +0.000 C 
BRANCH  10  12
ATOM     11  C   UNL     1      47.864   5.772  20.501  0.00  0.00    +0.000 C 
ATOM     12  C   UNL     1      47.534   5.968  19.017  0.00  0.00    +0.000 C 
BRANCH  12  13
ATOM     13  C   UNL     1      47.947   4.744  18.206  0.00  0.00    +0.000 A 
ATOM     14  C   UNL     1      49.102   4.039  18.538  0.00  0.00    +0.000 A 
ATOM     15  C   UNL     1      49.458   2.926  17.777  0.00  0.00    +0.000 A 
ATOM     16  C   UNL     1      48.666   2.553  16.699  0.00  0.00    +0.000 A 
ATOM     17  C   UNL     1      47.547   3.313  16.419  0.00  0.00    +0.000 A 
ATOM     18  N   UNL     1      47.174   4.389  17.144  0.00  0.00    +0.000 NA
ENDBRANCH  12  13
ENDBRANCH  10  12
ENDBRANCH   8  10
ENDBRANCH   7   8
ENDBRANCH   1   7
BRANCH   5  19
ATOM     19  C   UNL     1      47.231   8.213  11.889  0.00  0.00    +0.000 C 
BRANCH  19  20
ATOM     20  N   UNL     1      46.607   6.920  11.766  0.00  0.00    +0.000 N 
ATOM     21  C   UNL     1      45.246   6.797  11.645  0.00  0.00    +0.000 C 
ATOM     22  O   UNL     1      44.507   7.775  11.585  0.00  0.00    +0.000 OA
ATOM     23  H   UNL     1      47.158   6.110  12.043  0.00  0.00    +0.000 HD
BRANCH  21  24
ATOM     24  C   UNL     1      44.720   5.432  11.526  0.00  0.00    +0.000 A 
ATOM     25  C   UNL     1      44.003   4.875  12.577  0.00  0.00    +0.000 A 
ATOM     26  S   UNL     1      43.432   3.300  12.259  0.00  0.00    +0.000 S 
ATOM     27  C   UNL     1      44.169   3.284  10.724  0.00  0.00    +0.000 A 
ATOM     28  N   UNL     1      44.098   2.190   9.925  0.00  0.00    +0.000 NA
ATOM     29  C   UNL     1      44.728   2.302   8.805  0.00  0.00    +0.000 A 
ATOM     30  N   UNL     1      45.426   3.416   8.410  0.00  0.00    +0.000 N 
ATOM     31  C   UNL     1      45.495   4.559   9.170  0.00  0.00    +0.000 A 
ATOM     32  O   UNL     1      46.072   5.563   8.765  0.00  0.00    +0.000 OA
ATOM     33  C   UNL     1      44.819   4.475  10.449  0.00  0.00    +0.000 A 
ATOM     34  H   UNL     1      45.886   3.448   7.512  0.00  0.00    +0.000 HD
ENDBRANCH  21  24
ENDBRANCH  19  20
ENDBRANCH   5  19
TORSDOF 8
ENDMDL
MODEL 7
REMARK VINA RESULT:    -7.064      4.082      5.107
REMARK INTER + INTRA:         -11.484
REMARK INTER:                 -10.216
REMARK INTRA:                  -1.268
REMARK UNBOUND:                -1.116
REMARK  Name = 
REMARK  9 active torsions:
REMARK  status: ('A' for Active; 'I' for Inactive)
REMARK    1  A    between atoms: C_1  and  C_2
REMARK    2  A    between atoms: C_2  and  C_3
REMARK    3  A    between atoms: C_2  and  C_26
REMARK    4  A    between atoms: C_3  and  N_4
REMARK    5  A    between atoms: N_4  and  C_5
REMARK    6  A    between atoms: C_5  and  C_6
REMARK    7  A    between atoms: C_10  and  C_11
REMARK    8  A    between atoms: C_11  and  N_12
REMARK    9  A    between atoms: C_13  and  C_15
REMARK                            x       y       z     vdW  Elec       q    Type
REMARK                         _______ _______ _______ _____ _____    ______ ____
ROOT
ATOM      1  C   UNL     1      44.875   4.006  12.770  0.00  0.00    +0.000 A 
ATOM      2  C   UNL     1      46.066   3.444  13.223  0.00  0.00    +0.000 A 
ATOM      3  N   UNL     1      47.155   4.155  13.597  0.00  0.00    +0.000 NA
ATOM      4  C   UNL     1      47.063   5.500  13.507  0.00  0.00    +0.000 A 
ATOM      5  C   UNL     1      45.932   6.178  13.072  0.00  0.00    +0.000 A 
ATOM      6  C   UNL     1      44.816   5.406  12.728  0.00  0.00    +0.000 A 
ENDROOT
BRANCH   1   7
ATOM      7  C   UNL     1      43.711   3.108  12.413  0.00  0.00    +0.000 C 
BRANCH   7   8
ATOM      8  N   UNL     1      43.298   3.264  11.024  0.00  0.00    +0.000 NA
ATOM      9  H   UNL     1      42.353   2.874  10.902  0.00  0.00    +0.000 HD
BRANCH   8  10
ATOM     10  C   UNL     1      44.138   2.519  10.081  0.00  0.00    +0.000 C 
BRANCH  10  12
ATOM     11  C   UNL     1      44.726   4.806   9.110  0.00  0.00    +0.000 C 
ATOM     12  C   UNL     1      45.255   3.414   9.474  0.00  0.00    +0.000 C 
BRANCH  12  13
ATOM     13  C   UNL     1      45.946   2.769   8.277  0.00  0.00    +0.000 A 
ATOM     14  C   UNL     1      46.155   3.501   7.109  0.00  0.00    +0.000 A 
ATOM     15  C   UNL     1      46.785   2.885   6.029  0.00  0.00    +0.000 A 
ATOM     16  C   UNL     1      47.177   1.557   6.131  0.00  0.00    +0.000 A 
ATOM     17  C   UNL     1      46.917   0.891   7.314  0.00  0.00    +0.000 A 
ATOM     18  N   UNL     1      46.317   1.465   8.378  0.00  0.00    +0.000 NA
ENDBRANCH  12  13
ENDBRANCH  10  12
ENDBRANCH   8  10
ENDBRANCH   7   8
ENDBRANCH   1   7
BRANCH   5  19
ATOM     19  C   UNL     1      45.907   7.675  12.999  0.00  0.00    +0.000 C 
BRANCH  19  20
ATOM     20  N   UNL     1      47.164   8.250  13.409  0.00  0.00    +0.000 N 
ATOM     21  C   UNL     1      47.710   9.313  12.735  0.00  0.00    +0.000 C 
ATOM     22  O   UNL     1      47.136   9.852  11.793  0.00  0.00    +0.000 OA
ATOM     23  H   UNL     1      47.755   7.689  14.017  0.00  0.00    +0.000 HD
BRANCH  21  24
ATOM     24  C   UNL     1      48.993   9.818  13.239  0.00  0.00    +0.000 A 
ATOM     25  C   UNL     1      49.019  10.937  14.062  0.00  0.00    +0.000 A 
ATOM     26  S   UNL     1      50.584  11.365  14.587  0.00  0.00    +0.000 S 
ATOM     27  C   UNL     1      51.290  10.103  13.689  0.00  0.00    +0.000 A 
ATOM     28  N   UNL     1      52.635   9.927  13.668  0.00  0.00    +0.000 NA
ATOM     29  C   UNL     1      53.037   8.954  12.922  0.00  0.00    +0.000 A 
ATOM     30  N   UNL     1      52.210   8.138  12.191  0.00  0.00    +0.000 N 
ATOM     31  C   UNL     1      50.841   8.256  12.209  0.00  0.00    +0.000 A 
ATOM     32  O   UNL     1      50.122   7.473  11.597  0.00  0.00    +0.000 OA
ATOM     33  C   UNL     1      50.341   9.350  13.019  0.00  0.00    +0.000 A 
ATOM     34  H   UNL     1      52.585   7.381  11.637  0.00  0.00    +0.000 HD
ENDBRANCH  21  24
ENDBRANCH  19  20
ENDBRANCH   5  19
TORSDOF 8
ENDMDL
MODEL 8
REMARK VINA RESULT:    -7.030      2.533      3.684
REMARK INTER + INTRA:         -11.433
REMARK INTER:                  -9.763
REMARK INTRA:                  -1.670
REMARK UNBOUND:                -1.116
REMARK  Name = 
REMARK  9 active torsions:
REMARK  status: ('A' for Active; 'I' for Inactive)
REMARK    1  A    between atoms: C_1  and  C_2
REMARK    2  A    between atoms: C_2  and  C_3
REMARK    3  A    between atoms: C_2  and  C_26
REMARK    4  A    between atoms: C_3  and  N_4
REMARK    5  A    between atoms: N_4  and  C_5
REMARK    6  A    between atoms: C_5  and  C_6
REMARK    7  A    between atoms: C_10  and  C_11
REMARK    8  A    between atoms: C_11  and  N_12
REMARK    9  A    between atoms: C_13  and  C_15
REMARK                            x       y       z     vdW  Elec       q    Type
REMARK                         _______ _______ _______ _____ _____    ______ ____
ROOT
ATOM      1  C   UNL     1      47.322   8.191  12.531  0.00  0.00    +0.000 A 
ATOM      2  C   UNL     1      48.204   8.925  11.743  0.00  0.00    +0.000 A 
ATOM      3  N   UNL     1      49.106   9.812  12.223  0.00  0.00    +0.000 NA
ATOM      4  C   UNL     1      49.129   9.989  13.562  0.00  0.00    +0.000 A 
ATOM      5  C   UNL     1      48.303   9.318  14.454  0.00  0.00    +0.000 A 
ATOM      6  C   UNL     1      47.408   8.384  13.918  0.00  0.00    +0.000 A 
ENDROOT
BRANCH   1   7
ATOM      7  C   UNL     1      46.380   7.202  11.882  0.00  0.00    +0.000 C 
BRANCH   7   8
ATOM      8  N   UNL     1      46.558   5.849  12.393  0.00  0.00    +0.000 NA
ATOM      9  H   UNL     1      47.256   5.355  11.821  0.00  0.00    +0.000 HD
BRANCH   8  10
ATOM     10  C   UNL     1      45.345   5.029  12.299  0.00  0.00    +0.000 C 
BRANCH  10  12
ATOM     11  C   UNL     1      43.072   5.189  11.147  0.00  0.00    +0.000 C 
ATOM     12  C   UNL     1      44.592   5.266  10.960  0.00  0.00    +0.000 C 
BRANCH  12  13
ATOM     13  C   UNL     1      45.048   4.326   9.849  0.00  0.00    +0.000 A 
ATOM     14  C   UNL     1      44.835   2.953   9.961  0.00  0.00    +0.000 A 
ATOM     15  C   UNL     1      45.265   2.116   8.932  0.00  0.00    +0.000 A 
ATOM     16  C   UNL     1      45.909   2.662   7.830  0.00  0.00    +0.000 A 
ATOM     17  C   UNL     1      46.103   4.030   7.800  0.00  0.00    +0.000 A 
ATOM     18  N   UNL     1      45.688   4.865   8.777  0.00  0.00    +0.000 NA
ENDBRANCH  12  13
ENDBRANCH  10  12
ENDBRANCH   8  10
ENDBRANCH   7   8
ENDBRANCH   1   7
BRANCH   5  19
ATOM     19  C   UNL     1      48.388   9.570  15.929  0.00  0.00    +0.000 C 
BRANCH  19  20
ATOM     20  N   UNL     1      48.265   8.350  16.687  0.00  0.00    +0.000 N 
ATOM     21  C   UNL     1      49.374   7.644  17.078  0.00  0.00    +0.000 C 
ATOM     22  O   UNL     1      50.513   8.040  16.847  0.00  0.00    +0.000 OA
ATOM     23  H   UNL     1      47.357   7.890  16.684  0.00  0.00    +0.000 HD
BRANCH  21  24
ATOM     24  C   UNL     1      49.132   6.415  17.845  0.00  0.00    +0.000 A 
ATOM     25  C   UNL     1      49.539   6.339  19.170  0.00  0.00    +0.000 A 
ATOM     26  S   UNL     1      49.148   4.860  19.923  0.00  0.00    +0.000 S 
ATOM     27  C   UNL     1      48.468   4.247  18.488  0.00  0.00    +0.000 A 
ATOM     28  N   UNL     1      47.970   2.987  18.432  0.00  0.00    +0.000 NA
ATOM     29  C   UNL     1      47.515   2.640  17.275  0.00  0.00    +0.000 A 
ATOM     30  N   UNL     1      47.514   3.445  16.164  0.00  0.00    +0.000 N 
ATOM     31  C   UNL     1      47.975   4.739  16.182  0.00  0.00    +0.000 A 
ATOM     32  O   UNL     1      47.904   5.458  15.191  0.00  0.00    +0.000 OA
ATOM     33  C   UNL     1      48.516   5.169  17.457  0.00  0.00    +0.000 A 
ATOM     34  H   UNL     1      47.129   3.120  15.288  0.00  0.00    +0.000 HD
ENDBRANCH  21  24
ENDBRANCH  19  20
ENDBRANCH   5  19
TORSDOF 8
ENDMDL
MODEL 9
REMARK VINA RESULT:    -6.932      5.653      7.200
REMARK INTER + INTRA:         -11.290
REMARK INTER:                 -10.225
REMARK INTRA:                  -1.065
REMARK UNBOUND:                -1.116
REMARK  Name = 
REMARK  9 active torsions:
REMARK  status: ('A' for Active; 'I' for Inactive)
REMARK    1  A    between atoms: C_1  and  C_2
REMARK    2  A    between atoms: C_2  and  C_3
REMARK    3  A    between atoms: C_2  and  C_26
REMARK    4  A    between atoms: C_3  and  N_4
REMARK    5  A    between atoms: N_4  and  C_5
REMARK    6  A    between atoms: C_5  and  C_6
REMARK    7  A    between atoms: C_10  and  C_11
REMARK    8  A    between atoms: C_11  and  N_12
REMARK    9  A    between atoms: C_13  and  C_15
REMARK                            x       y       z     vdW  Elec       q    Type
REMARK                         _______ _______ _______ _____ _____    ______ ____
ROOT
ATOM      1  C   UNL     1      47.527   6.900  12.999  0.00  0.00    +0.000 A 
ATOM      2  C   UNL     1      48.131   6.740  14.243  0.00  0.00    +0.000 A 
ATOM      3  N   UNL     1      49.431   7.011  14.506  0.00  0.00    +0.000 NA
ATOM      4  C   UNL     1      50.178   7.458  13.473  0.00  0.00    +0.000 A 
ATOM      5  C   UNL     1      49.694   7.660  12.187  0.00  0.00    +0.000 A 
ATOM      6  C   UNL     1      48.336   7.400  11.967  0.00  0.00    +0.000 A 
ENDROOT
BRANCH   1   7
ATOM      7  C   UNL     1      46.056   6.596  12.835  0.00  0.00    +0.000 C 
BRANCH   7   8
ATOM      8  N   UNL     1      45.647   5.413  13.582  0.00  0.00    +0.000 NA
ATOM      9  H   UNL     1      46.482   4.918  13.923  0.00  0.00    +0.000 HD
BRANCH   8  10
ATOM     10  C   UNL     1      44.930   4.429  12.766  0.00  0.00    +0.000 C 
BRANCH  10  12
ATOM     11  C   UNL     1      42.949   5.267  11.389  0.00  0.00    +0.000 C 
ATOM     12  C   UNL     1      44.464   5.034  11.412  0.00  0.00    +0.000 C 
BRANCH  12  13
ATOM     13  C   UNL     1      44.901   4.201  10.210  0.00  0.00    +0.000 A 
ATOM     14  C   UNL     1      45.558   4.805   9.140  0.00  0.00    +0.000 A 
ATOM     15  C   UNL     1      45.942   4.022   8.053  0.00  0.00    +0.000 A 
ATOM     16  C   UNL     1      45.650   2.664   8.051  0.00  0.00    +0.000 A 
ATOM     17  C   UNL     1      44.978   2.141   9.139  0.00  0.00    +0.000 A 
ATOM     18  N   UNL     1      44.603   2.874  10.209  0.00  0.00    +0.000 NA
ENDBRANCH  12  13
ENDBRANCH  10  12
ENDBRANCH   8  10
ENDBRANCH   7   8
ENDBRANCH   1   7
BRANCH   5  19
ATOM     19  C   UNL     1      50.588   8.158  11.092  0.00  0.00    +0.000 C 
BRANCH  19  20
ATOM     20  N   UNL     1      51.637   7.217  10.790  0.00  0.00    +0.000 N 
ATOM     21  C   UNL     1      52.627   7.523   9.891  0.00  0.00    +0.000 C 
ATOM     22  O   UNL     1      52.694   8.621   9.345  0.00  0.00    +0.000 OA
ATOM     23  H   UNL     1      51.474   6.244  11.040  0.00  0.00    +0.000 HD
BRANCH  21  24
ATOM     24  C   UNL     1      53.644   6.490   9.659  0.00  0.00    +0.000 A 
ATOM     25  C   UNL     1      54.609   6.244  10.626  0.00  0.00    +0.000 A 
ATOM     26  S   UNL     1      55.688   4.989  10.214  0.00  0.00    +0.000 S 
ATOM     27  C   UNL     1      54.935   4.765   8.704  0.00  0.00    +0.000 A 
ATOM     28  N   UNL     1      55.400   3.847   7.820  0.00  0.00    +0.000 NA
ATOM     29  C   UNL     1      54.757   3.804   6.702  0.00  0.00    +0.000 A 
ATOM     30  N   UNL     1      53.686   4.602   6.388  0.00  0.00    +0.000 N 
ATOM     31  C   UNL     1      53.158   5.519   7.264  0.00  0.00    +0.000 A 
ATOM     32  O   UNL     1      52.160   6.174   6.982  0.00  0.00    +0.000 OA
ATOM     33  C   UNL     1      53.860   5.619   8.529  0.00  0.00    +0.000 A 
ATOM     34  H   UNL     1      53.213   4.510   5.500  0.00  0.00    +0.000 HD
ENDBRANCH  21  24
ENDBRANCH  19  20
ENDBRANCH   5  19
TORSDOF 8
ENDMDL
