MODEL 1
REMARK VINA RESULT:    -7.110      0.000      0.000
REMARK INTER + INTRA:         -10.099
REMARK INTER:                  -9.396
REMARK INTRA:                  -0.703
REMARK UNBOUND:                -0.703
REMARK  Name = 
REMARK  6 active torsions:
REMARK  status: ('A' for Active; 'I' for Inactive)
REMARK    1  A    between atoms: N_1  and  C_2
REMARK    2  A    between atoms: C_2  and  C_3
REMARK    3  A    between atoms: C_7  and  O_8
REMARK    4  A    between atoms: O_8  and  C_9
REMARK    5  A    between atoms: C_9  and  C_10
REMARK    6  A    between atoms: C_10  and  C_11
REMARK                            x       y       z     vdW  Elec       q    Type
REMARK                         _______ _______ _______ _____ _____    ______ ____
ROOT
ATOM      1  C   UNL     1      46.437   1.996   7.761  0.00  0.00    +0.000 A 
ATOM      2  C   UNL     1      46.689   3.297   7.304  0.00  0.00    +0.000 A 
ATOM      3  C   UNL     1      45.998   4.382   7.839  0.00  0.00    +0.000 A 
ATOM      4  C   UNL     1      45.038   4.180   8.832  0.00  0.00    +0.000 A 
ATOM      5  C   UNL     1      44.761   2.893   9.296  0.00  0.00    +0.000 A 
ATOM      6  C   UNL     1      45.468   1.808   8.760  0.00  0.00    +0.000 A 
ENDROOT
BRANCH   1   7
ATOM      7  C   UNL     1      47.170   0.824   7.157  0.00  0.00    +0.000 C 
BRANCH   7   8
ATOM      8  N   UNL     1      46.783  -0.438   7.778  0.00  0.00    +0.000 NA
ATOM      9  H   UNL     1      45.929  -0.778   7.339  0.00  0.00    +0.000 HD
ATOM     10  H   UNL     1      46.554  -0.264   8.756  0.00  0.00    +0.000 HD
ENDBRANCH   7   8
ENDBRANCH   1   7
BRANCH   5  11
ATOM     11  O   UNL     1      43.833   2.572  10.253  0.00  0.00    +0.000 OA
BRANCH  11  12
ATOM     12  C   UNL     1      43.483   3.613  11.172  0.00  0.00    +0.000 C 
BRANCH  12  13
ATOM     13  C   UNL     1      44.243   3.402  12.482  0.00  0.00    +0.000 C 
BRANCH  13  14
ATOM     14  C   UNL     1      45.361   4.393  12.643  0.00  0.00    +0.000 A 
ATOM     15  C   UNL     1      45.352   5.625  11.983  0.00  0.00    +0.000 A 
ATOM     16  C   UNL     1      46.425   6.499  12.134  0.00  0.00    +0.000 A 
ATOM     17  C   UNL     1      47.482   6.108  12.940  0.00  0.00    +0.000 A 
ATOM     18  N   UNL     1      47.531   4.925  13.587  0.00  0.00    +0.000 NA
ATOM     19  C   UNL     1      46.475   4.098  13.426  0.00  0.00    +0.000 A 
ENDBRANCH  13  14
ENDBRANCH  12  13
ENDBRANCH  11  12
ENDBRANCH   5  11
TORSDOF 6
ENDMDL
MODEL 2
REMARK VINA RESULT:    -7.027      1.200      5.639
REMARK INTER + INTRA:          -9.989
REMARK INTER:                  -9.420
REMARK INTRA:                  -0.568
REMARK UNBOUND:                -0.703
REMARK  Name = 
REMARK  6 active torsions:
REMARK  status: ('A' for Active; 'I' for Inactive)
REMARK    1  A    between atoms: N_1  and  C_2
REMARK    2  A    between atoms: C_2  and  C_3
REMARK    3  A    between atoms: C_7  and  O_8
REMARK    4  A    between atoms: O_8  and  C_9
REMARK    5  A    between atoms: C_9  and  C_10
REMARK    6  A    between atoms: C_10  and  C_11
REMARK                            x       y       z     vdW  Elec       q    Type
REMARK                         _______ _______ _______ _____ _____    ______ ____
ROOT
ATOM      1  C   UNL     1      46.599   5.040  13.409  0.00  0.00    +0.000 A 
ATOM      2  C   UNL     1      47.207   6.152  12.809  0.00  0.00    +0.000 A 
ATOM      3  C   UNL     1      46.768   6.615  11.570  0.00  0.00    +0.000 A 
ATOM      4  C   UNL     1      45.723   5.967  10.909  0.00  0.00    +0.000 A 
ATOM      5  C   UNL     1      45.110   4.851  11.482  0.00  0.00    +0.000 A 
ATOM      6  C   UNL     1      45.549   4.398  12.732  0.00  0.00    +0.000 A 
ENDROOT
BRANCH   1   7
ATOM      7  C   UNL     1      47.097   4.529  14.738  0.00  0.00    +0.000 C 
BRANCH   7   8
ATOM      8  N   UNL     1      47.526   3.137  14.658  0.00  0.00    +0.000 NA
ATOM      9  H   UNL     1      46.791   2.539  15.031  0.00  0.00    +0.000 HD
ATOM     10  H   UNL     1      48.336   3.009  15.262  0.00  0.00    +0.000 HD
ENDBRANCH   7   8
ENDBRANCH   1   7
BRANCH   5  11
ATOM     11  O   UNL     1      44.088   4.127  10.922  0.00  0.00    +0.000 OA
BRANCH  11  12
ATOM     12  C   UNL     1      44.227   3.802   9.535  0.00  0.00    +0.000 C 
BRANCH  12  13
ATOM     13  C   UNL     1      44.838   2.406   9.406  0.00  0.00    +0.000 C 
BRANCH  13  14
ATOM     14  C   UNL     1      45.820   2.331   8.269  0.00  0.00    +0.000 A 
ATOM     15  C   UNL     1      46.059   3.424   7.432  0.00  0.00    +0.000 A 
ATOM     16  C   UNL     1      46.951   3.300   6.370  0.00  0.00    +0.000 A 
ATOM     17  C   UNL     1      47.574   2.078   6.176  0.00  0.00    +0.000 A 
ATOM     18  N   UNL     1      47.364   0.998   6.957  0.00  0.00    +0.000 NA
ATOM     19  C   UNL     1      46.496   1.148   7.982  0.00  0.00    +0.000 A 
ENDBRANCH  13  14
ENDBRANCH  12  13
ENDBRANCH  11  12
ENDBRANCH   5  11
TORSDOF 6
ENDMDL
MODEL 3
REMARK VINA RESULT:    -6.869      1.489      2.182
REMARK INTER + INTRA:          -9.780
REMARK INTER:                  -9.191
REMARK INTRA:                  -0.589
REMARK UNBOUND:                -0.703
REMARK  Name = 
REMARK  6 active torsions:
REMARK  status: ('A' for Active; 'I' for Inactive)
REMARK    1  A    between atoms: N_1  and  C_2
REMARK    2  A    between atoms: C_2  and  C_3
REMARK    3  A    between atoms: C_7  and  O_8
REMARK    4  A    between atoms: O_8  and  C_9
REMARK    5  A    between atoms: C_9  and  C_10
REMARK    6  A    between atoms: C_10  and  C_11
REMARK                            x       y       z     vdW  Elec       q    Type
REMARK                         _______ _______ _______ _____ _____    ______ ____
ROOT
ATOM      1  C   UNL     1      46.592   2.618   6.900  0.00  0.00    +0.000 A 
ATOM      2  C   UNL     1      46.568   1.357   7.512  0.00  0.00    +0.000 A 
ATOM      3  C   UNL     1      45.713   1.107   8.584  0.00  0.00    +0.000 A 
ATOM      4  C   UNL     1      44.878   2.117   9.065  0.00  0.00    +0.000 A 
ATOM      5  C   UNL     1      44.892   3.383   8.479  0.00  0.00    +0.000 A 
ATOM      6  C   UNL     1      45.746   3.625   7.395  0.00  0.00    +0.000 A 
ENDROOT
BRANCH   1   7
ATOM      7  C   UNL     1      47.539   2.889   5.759  0.00  0.00    +0.000 C 
BRANCH   7   8
ATOM      8  N   UNL     1      48.550   1.845   5.631  0.00  0.00    +0.000 NA
ATOM      9  H   UNL     1      48.089   0.939   5.581  0.00  0.00    +0.000 HD
ATOM     10  H   UNL     1      49.117   1.834   6.478  0.00  0.00    +0.000 HD
ENDBRANCH   7   8
ENDBRANCH   1   7
BRANCH   5  11
ATOM     11  O   UNL     1      44.130   4.454   8.874  0.00  0.00    +0.000 OA
BRANCH  11  12
ATOM     12  C   UNL     1      43.786   4.509  10.262  0.00  0.00    +0.000 C 
BRANCH  12  13
ATOM     13  C   UNL     1      44.602   5.612  10.938  0.00  0.00    +0.000 C 
BRANCH  13  14
ATOM     14  C   UNL     1      45.454   5.070  12.052  0.00  0.00    +0.000 A 
ATOM     15  C   UNL     1      46.316   5.893  12.784  0.00  0.00    +0.000 A 
ATOM     16  C   UNL     1      47.111   5.343  13.785  0.00  0.00    +0.000 A 
ATOM     17  C   UNL     1      47.023   3.981  14.020  0.00  0.00    +0.000 A 
ATOM     18  N   UNL     1      46.209   3.154  13.332  0.00  0.00    +0.000 NA
ATOM     19  C   UNL     1      45.446   3.714  12.368  0.00  0.00    +0.000 A 
ENDBRANCH  13  14
ENDBRANCH  12  13
ENDBRANCH  11  12
ENDBRANCH   5  11
TORSDOF 6
ENDMDL
MODEL 4
REMARK VINA RESULT:    -6.493      1.475      6.259
REMARK INTER + INTRA:          -9.284
REMARK INTER:                  -8.857
REMARK INTRA:                  -0.426
REMARK UNBOUND:                -0.703
REMARK  Name = 
REMARK  6 active torsions:
REMARK  status: ('A' for Active; 'I' for Inactive)
REMARK    1  A    between atoms: N_1  and  C_2
REMARK    2  A    between atoms: C_2  and  C_3
REMARK    3  A    between atoms: C_7  and  O_8
REMARK    4  A    between atoms: O_8  and  C_9
REMARK    5  A    between atoms: C_9  and  C_10
REMARK    6  A    between atoms: C_10  and  C_11
REMARK                            x       y       z     vdW  Elec       q    Type
REMARK                         _______ _______ _______ _____ _____    ______ ____
ROOT
ATOM      1  C   UNL     1      46.081   6.989  12.685  0.00  0.00    +0.000 A 
ATOM      2  C   UNL     1      46.633   6.079  13.597  0.00  0.00    +0.000 A 
ATOM      3  C   UNL     1      46.292   4.729  13.545  0.00  0.00    +0.000 A 
ATOM      4  C   UNL     1      45.385   4.272  12.587  0.00  0.00    +0.000 A 
ATOM      5  C   UNL     1      44.813   5.161  11.675  0.00  0.00    +0.000 A 
ATOM      6  C   UNL     1      45.169   6.515  11.727  0.00  0.00    +0.000 A 
ENDROOT
BRANCH   1   7
ATOM      7  C   UNL     1      46.434   8.453  12.765  0.00  0.00    +0.000 C 
BRANCH   7   8
ATOM      8  N   UNL     1      46.778   8.856  14.124  0.00  0.00    +0.000 NA
ATOM      9  H   UNL     1      47.789   8.950  14.199  0.00  0.00    +0.000 HD
ATOM     10  H   UNL     1      46.510   8.109  14.764  0.00  0.00    +0.000 HD
ENDBRANCH   7   8
ENDBRANCH   1   7
BRANCH   5  11
ATOM     11  O   UNL     1      43.903   4.831  10.703  0.00  0.00    +0.000 OA
BRANCH  11  12
ATOM     12  C   UNL     1      44.158   3.621   9.981  0.00  0.00    +0.000 C 
BRANCH  12  13
ATOM     13  C   UNL     1      44.555   3.968   8.546  0.00  0.00    +0.000 C 
BRANCH  13  14
ATOM     14  C   UNL     1      45.604   3.031   8.017  0.00  0.00    +0.000 A 
ATOM     15  C   UNL     1      46.512   3.427   7.030  0.00  0.00    +0.000 A 
ATOM     16  C   UNL     1      47.446   2.516   6.545  0.00  0.00    +0.000 A 
ATOM     17  C   UNL     1      47.439   1.230   7.060  0.00  0.00    +0.000 A 
ATOM     18  N   UNL     1      46.576   0.809   8.007  0.00  0.00    +0.000 NA
ATOM     19  C   UNL     1      45.682   1.714   8.462  0.00  0.00    +0.000 A 
ENDBRANCH  13  14
ENDBRANCH  12  13
ENDBRANCH  11  12
ENDBRANCH   5  11
TORSDOF 6
ENDMDL
MODEL 5
REMARK VINA RESULT:    -5.909      1.617      5.730
REMARK INTER + INTRA:          -8.512
REMARK INTER:                  -7.989
REMARK INTRA:                  -0.523
REMARK UNBOUND:                -0.703
REMARK  Name = 
REMARK  6 active torsions:
REMARK  status: ('A' for Active; 'I' for Inactive)
REMARK    1  A    between atoms: N_1  and  C_2
REMARK    2  A    between atoms: C_2  and  C_3
REMARK    3  A    between atoms: C_7  and  O_8
REMARK    4  A    between atoms: O_8  and  C_9
REMARK    5  A    between atoms: C_9  and  C_10
REMARK    6  A    between atoms: C_10  and  C_11
REMARK                            x       y       z     vdW  Elec       q    Type
REMARK                         _______ _______ _______ _____ _____    ______ ____
ROOT
ATOM      1  C   UNL     1      45.648   6.239  11.511  0.00  0.00    +0.000 A 
ATOM      2  C   UNL     1      44.612   7.073  11.954  0.00  0.00    +0.000 A 
ATOM      3  C   UNL     1      43.281   6.722  11.740  0.00  0.00    +0.000 A 
ATOM      4  C   UNL     1      42.966   5.538  11.071  0.00  0.00    +0.000 A 
ATOM      5  C   UNL     1      43.980   4.697  10.611  0.00  0.00    +0.000 A 
ATOM      6  C   UNL     1      45.316   5.051  10.838  0.00  0.00    +0.000 A 
ENDROOT
BRANCH   1   7
ATOM      7  C   UNL     1      47.087   6.639  11.721  0.00  0.00    +0.000 C 
BRANCH   7   8
ATOM      8  N   UNL     1      47.248   7.492  12.893  0.00  0.00    +0.000 NA
ATOM      9  H   UNL     1      47.907   7.057  13.535  0.00  0.00    +0.000 HD
ATOM     10  H   UNL     1      46.357   7.543  13.385  0.00  0.00    +0.000 HD
ENDBRANCH   7   8
ENDBRANCH   1   7
BRANCH   5  11
ATOM     11  O   UNL     1      43.794   3.520   9.931  0.00  0.00    +0.000 OA
BRANCH  11  12
ATOM     12  C   UNL     1      44.778   2.502  10.144  0.00  0.00    +0.000 C 
BRANCH  12  13
ATOM     13  C   UNL     1      44.802   1.567   8.935  0.00  0.00    +0.000 C 
BRANCH  13  14
ATOM     14  C   UNL     1      45.911   1.916   7.982  0.00  0.00    +0.000 A 
ATOM     15  C   UNL     1      45.972   3.161   7.350  0.00  0.00    +0.000 A 
ATOM     16  C   UNL     1      46.999   3.429   6.449  0.00  0.00    +0.000 A 
ATOM     17  C   UNL     1      47.933   2.437   6.203  0.00  0.00    +0.000 A 
ATOM     18  N   UNL     1      47.905   1.221   6.788  0.00  0.00    +0.000 NA
ATOM     19  C   UNL     1      46.900   0.989   7.660  0.00  0.00    +0.000 A 
ENDBRANCH  13  14
ENDBRANCH  12  13
ENDBRANCH  11  12
ENDBRANCH   5  11
TORSDOF 6
ENDMDL
MODEL 6
REMARK VINA RESULT:    -5.669      2.098      3.279
REMARK INTER + INTRA:          -8.194
REMARK INTER:                  -7.631
REMARK INTRA:                  -0.563
REMARK UNBOUND:                -0.703
REMARK  Name = 
REMARK  6 active torsions:
REMARK  status: ('A' for Active; 'I' for Inactive)
REMARK    1  A    between atoms: N_1  and  C_2
REMARK    2  A    between atoms: C_2  and  C_3
REMARK    3  A    between atoms: C_7  and  O_8
REMARK    4  A    between atoms: O_8  and  C_9
REMARK    5  A    between atoms: C_9  and  C_10
REMARK    6  A    between atoms: C_10  and  C_11
REMARK                            x       y       z     vdW  Elec       q    Type
REMARK                         _______ _______ _______ _____ _____    ______ ____
ROOT
ATOM      1  C   UNL     1      45.369   3.467   8.407  0.00  0.00    +0.000 A 
ATOM      2  C   UNL     1      44.648   2.537   9.169  0.00  0.00    +0.000 A 
ATOM      3  C   UNL     1      44.184   2.873  10.440  0.00  0.00    +0.000 A 
ATOM      4  C   UNL     1      44.443   4.138  10.970  0.00  0.00    +0.000 A 
ATOM      5  C   UNL     1      45.169   5.076  10.234  0.00  0.00    +0.000 A 
ATOM      6  C   UNL     1      45.623   4.736   8.953  0.00  0.00    +0.000 A 
ENDROOT
BRANCH   1   7
ATOM      7  C   UNL     1      45.892   3.087   7.044  0.00  0.00    +0.000 C 
BRANCH   7   8
ATOM      8  N   UNL     1      46.786   4.104   6.502  0.00  0.00    +0.000 NA
ATOM      9  H   UNL     1      47.359   3.689   5.770  0.00  0.00    +0.000 HD
ATOM     10  H   UNL     1      47.426   4.401   7.236  0.00  0.00    +0.000 HD
ENDBRANCH   7   8
ENDBRANCH   1   7
BRANCH   5  11
ATOM     11  O   UNL     1      45.496   6.340  10.654  0.00  0.00    +0.000 OA
BRANCH  11  12
ATOM     12  C   UNL     1      45.560   6.540  12.071  0.00  0.00    +0.000 C 
BRANCH  12  13
ATOM     13  C   UNL     1      47.012   6.792  12.477  0.00  0.00    +0.000 C 
BRANCH  13  14
ATOM     14  C   UNL     1      47.379   6.041  13.727  0.00  0.00    +0.000 A 
ATOM     15  C   UNL     1      46.732   4.856  14.088  0.00  0.00    +0.000 A 
ATOM     16  C   UNL     1      47.081   4.212  15.272  0.00  0.00    +0.000 A 
ATOM     17  C   UNL     1      48.065   4.780  16.063  0.00  0.00    +0.000 A 
ATOM     18  N   UNL     1      48.707   5.925  15.753  0.00  0.00    +0.000 NA
ATOM     19  C   UNL     1      48.352   6.528  14.597  0.00  0.00    +0.000 A 
ENDBRANCH  13  14
ENDBRANCH  12  13
ENDBRANCH  11  12
ENDBRANCH   5  11
TORSDOF 6
ENDMDL
MODEL 7
REMARK VINA RESULT:    -5.660      2.059      3.119
REMARK INTER + INTRA:          -8.182
REMARK INTER:                  -7.674
REMARK INTRA:                  -0.508
REMARK UNBOUND:                -0.703
REMARK  Name = 
REMARK  6 active torsions:
REMARK  status: ('A' for Active; 'I' for Inactive)
REMARK    1  A    between atoms: N_1  and  C_2
REMARK    2  A    between atoms: C_2  and  C_3
REMARK    3  A    between atoms: C_7  and  O_8
REMARK    4  A    between atoms: O_8  and  C_9
REMARK    5  A    between atoms: C_9  and  C_10
REMARK    6  A    between atoms: C_10  and  C_11
REMARK                            x       y       z     vdW  Elec       q    Type
REMARK                         _______ _______ _______ _____ _____    ______ ____
ROOT
ATOM      1  C   UNL     1      45.377   3.425   8.403  0.00  0.00    +0.000 A 
ATOM      2  C   UNL     1      44.748   2.369   9.075  0.00  0.00    +0.000 A 
ATOM      3  C   UNL     1      44.188   2.565  10.336  0.00  0.00    +0.000 A 
ATOM      4  C   UNL     1      44.260   3.818  10.947  0.00  0.00    +0.000 A 
ATOM      5  C   UNL     1      44.892   4.883  10.302  0.00  0.00    +0.000 A 
ATOM      6  C   UNL     1      45.442   4.681   9.030  0.00  0.00    +0.000 A 
ENDROOT
BRANCH   1   7
ATOM      7  C   UNL     1      46.005   3.198   7.050  0.00  0.00    +0.000 C 
BRANCH   7   8
ATOM      8  N   UNL     1      46.987   4.226   6.726  0.00  0.00    +0.000 NA
ATOM      9  H   UNL     1      46.621   4.814   5.980  0.00  0.00    +0.000 HD
ATOM     10  H   UNL     1      47.822   3.776   6.355  0.00  0.00    +0.000 HD
ENDBRANCH   7   8
ENDBRANCH   1   7
BRANCH   5  11
ATOM     11  O   UNL     1      45.036   6.150  10.808  0.00  0.00    +0.000 OA
BRANCH  11  12
ATOM     12  C   UNL     1      44.630   6.339  12.168  0.00  0.00    +0.000 C 
BRANCH  12  13
ATOM     13  C   UNL     1      45.304   7.595  12.722  0.00  0.00    +0.000 C 
BRANCH  13  14
ATOM     14  C   UNL     1      46.802   7.492  12.670  0.00  0.00    +0.000 A 
ATOM     15  C   UNL     1      47.583   8.456  12.027  0.00  0.00    +0.000 A 
ATOM     16  C   UNL     1      48.966   8.303  11.974  0.00  0.00    +0.000 A 
ATOM     17  C   UNL     1      49.526   7.182  12.563  0.00  0.00    +0.000 A 
ATOM     18  N   UNL     1      48.806   6.227  13.187  0.00  0.00    +0.000 NA
ATOM     19  C   UNL     1      47.467   6.402  13.227  0.00  0.00    +0.000 A 
ENDBRANCH  13  14
ENDBRANCH  12  13
ENDBRANCH  11  12
ENDBRANCH   5  11
TORSDOF 6
ENDMDL
MODEL 8
REMARK VINA RESULT:    -5.618      2.053      5.896
REMARK INTER + INTRA:          -8.127
REMARK INTER:                  -7.371
REMARK INTRA:                  -0.756
REMARK UNBOUND:                -0.703
REMARK  Name = 
REMARK  6 active torsions:
REMARK  status: ('A' for Active; 'I' for Inactive)
REMARK    1  A    between atoms: N_1  and  C_2
REMARK    2  A    between atoms: C_2  and  C_3
REMARK    3  A    between atoms: C_7  and  O_8
REMARK    4  A    between atoms: O_8  and  C_9
REMARK    5  A    between atoms: C_9  and  C_10
REMARK    6  A    between atoms: C_10  and  C_11
REMARK                            x       y       z     vdW  Elec       q    Type
REMARK                         _______ _______ _______ _____ _____    ______ ____
ROOT
ATOM      1  C   UNL     1      45.897   7.910  12.248  0.00  0.00    +0.000 A 
ATOM      2  C   UNL     1      47.238   7.584  12.489  0.00  0.00    +0.000 A 
ATOM      3  C   UNL     1      47.605   6.275  12.795  0.00  0.00    +0.000 A 
ATOM      4  C   UNL     1      46.635   5.275  12.873  0.00  0.00    +0.000 A 
ATOM      5  C   UNL     1      45.290   5.577  12.647  0.00  0.00    +0.000 A 
ATOM      6  C   UNL     1      44.930   6.893  12.330  0.00  0.00    +0.000 A 
ENDROOT
BRANCH   1   7
ATOM      7  C   UNL     1      45.504   9.334  11.945  0.00  0.00    +0.000 C 
BRANCH   7   8
ATOM      8  N   UNL     1      44.062   9.478  11.780  0.00  0.00    +0.000 NA
ATOM      9  H   UNL     1      43.832  10.466  11.694  0.00  0.00    +0.000 HD
ATOM     10  H   UNL     1      43.601   9.147  12.626  0.00  0.00    +0.000 HD
ENDBRANCH   7   8
ENDBRANCH   1   7
BRANCH   5  11
ATOM     11  O   UNL     1      44.250   4.685  12.711  0.00  0.00    +0.000 OA
BRANCH  11  12
ATOM     12  C   UNL     1      44.508   3.374  12.194  0.00  0.00    +0.000 C 
BRANCH  12  13
ATOM     13  C   UNL     1      43.780   3.209  10.860  0.00  0.00    +0.000 C 
BRANCH  13  14
ATOM     14  C   UNL     1      44.735   3.231   9.699  0.00  0.00    +0.000 A 
ATOM     15  C   UNL     1      45.156   4.430   9.116  0.00  0.00    +0.000 A 
ATOM     16  C   UNL     1      46.015   4.402   8.021  0.00  0.00    +0.000 A 
ATOM     17  C   UNL     1      46.423   3.170   7.537  0.00  0.00    +0.000 A 
ATOM     18  N   UNL     1      46.034   1.992   8.067  0.00  0.00    +0.000 NA
ATOM     19  C   UNL     1      45.203   2.048   9.131  0.00  0.00    +0.000 A 
ENDBRANCH  13  14
ENDBRANCH  12  13
ENDBRANCH  11  12
ENDBRANCH   5  11
TORSDOF 6
ENDMDL
MODEL 9
REMARK VINA RESULT:    -5.502      2.813      6.677
REMARK INTER + INTRA:          -7.974
REMARK INTER:                  -7.611
REMARK INTRA:                  -0.363
REMARK UNBOUND:                -0.703
REMARK  Name = 
REMARK  6 active torsions:
REMARK  status: ('A' for Active; 'I' for Inactive)
REMARK    1  A    between atoms: N_1  and  C_2
REMARK    2  A    between atoms: C_2  and  C_3
REMARK    3  A    between atoms: C_7  and  O_8
REMARK    4  A    between atoms: O_8  and  C_9
REMARK    5  A    between atoms: C_9  and  C_10
REMARK    6  A    between atoms: C_10  and  C_11
REMARK                            x       y       z     vdW  Elec       q    Type
REMARK                         _______ _______ _______ _____ _____    ______ ____
ROOT
ATOM      1  C   UNL     1      47.919   4.605  16.396  0.00  0.00    +0.000 A 
ATOM      2  C   UNL     1      48.656   5.797  16.380  0.00  0.00    +0.000 A 
ATOM      3  C   UNL     1      48.639   6.625  15.260  0.00  0.00    +0.000 A 
ATOM      4  C   UNL     1      47.893   6.268  14.135  0.00  0.00    +0.000 A 
ATOM      5  C   UNL     1      47.160   5.080  14.123  0.00  0.00    +0.000 A 
ATOM      6  C   UNL     1      47.174   4.258  15.257  0.00  0.00    +0.000 A 
ENDROOT
BRANCH   1   7
ATOM      7  C   UNL     1      47.965   3.701  17.602  0.00  0.00    +0.000 C 
BRANCH   7   8
ATOM      8  N   UNL     1      46.749   2.906  17.732  0.00  0.00    +0.000 NA
ATOM      9  H   UNL     1      46.874   2.022  17.243  0.00  0.00    +0.000 HD
ATOM     10  H   UNL     1      45.988   3.392  17.259  0.00  0.00    +0.000 HD
ENDBRANCH   7   8
ENDBRANCH   1   7
BRANCH   5  11
ATOM     11  O   UNL     1      46.405   4.619  13.075  0.00  0.00    +0.000 OA
BRANCH  11  12
ATOM     12  C   UNL     1      45.516   5.564  12.470  0.00  0.00    +0.000 C 
BRANCH  12  13
ATOM     13  C   UNL     1      44.351   4.815  11.823  0.00  0.00    +0.000 C 
BRANCH  13  14
ATOM     14  C   UNL     1      44.724   4.265  10.474  0.00  0.00    +0.000 A 
ATOM     15  C   UNL     1      44.467   2.935  10.127  0.00  0.00    +0.000 A 
ATOM     16  C   UNL     1      44.860   2.459   8.879  0.00  0.00    +0.000 A 
ATOM     17  C   UNL     1      45.507   3.329   8.017  0.00  0.00    +0.000 A 
ATOM     18  N   UNL     1      45.779   4.616   8.319  0.00  0.00    +0.000 NA
ATOM     19  C   UNL     1      45.384   5.053   9.534  0.00  0.00    +0.000 A 
ENDBRANCH  13  14
ENDBRANCH  12  13
ENDBRANCH  11  12
ENDBRANCH   5  11
TORSDOF 6
ENDMDL
