MODEL 1
REMARK VINA RESULT:    -9.379      0.000      0.000
REMARK INTER + INTRA:         -13.711
REMARK INTER:                 -12.942
REMARK INTRA:                  -0.769
REMARK UNBOUND:                -0.769
REMARK  Name = 
REMARK  7 active torsions:
REMARK  status: ('A' for Active; 'I' for Inactive)
REMARK    1  A    between atoms: C_2  and  C_4
REMARK    2  A    between atoms: N_8  and  C_9
REMARK    3  A    between atoms: C_9  and  C_10
REMARK    4  A    between atoms: C_10  and  C_13
REMARK    5  A    between atoms: C_17  and  C_18
REMARK    6  A    between atoms: C_19  and  C_20
REMARK    7  A    between atoms: C_22  and  O_23
REMARK                            x       y       z     vdW  Elec       q    Type
REMARK                         _______ _______ _______ _____ _____    ______ ____
ROOT
ATOM      1  C   UNL     1      43.497   5.451  12.201  0.00  0.00    +0.000 C 
ATOM      2  F   UNL     1      42.996   6.691  11.897  0.00  0.00    +0.000 F 
ATOM      3  F   UNL     1      42.710   5.003  13.228  0.00  0.00    +0.000 F 
ENDROOT
BRANCH   1   4
ATOM      4  C   UNL     1      44.950   5.547  12.644  0.00  0.00    +0.000 A 
ATOM      5  C   UNL     1      45.850   6.486  12.126  0.00  0.00    +0.000 A 
ATOM      6  C   UNL     1      47.163   6.467  12.562  0.00  0.00    +0.000 A 
ATOM      7  N   UNL     1      47.635   5.598  13.472  0.00  0.00    +0.000 NA
ATOM      8  C   UNL     1      46.773   4.692  13.988  0.00  0.00    +0.000 A 
ATOM      9  C   UNL     1      45.434   4.640  13.605  0.00  0.00    +0.000 A 
BRANCH   8  10
ATOM     10  C   UNL     1      47.324   3.758  14.983  0.00  0.00    +0.000 C 
ATOM     11  C   UNL     1      47.323   4.009  16.304  0.00  0.00    +0.000 C 
BRANCH  11  12
ATOM     12  C   UNL     1      47.870   3.011  17.260  0.00  0.00    +0.000 C 
ATOM     13  C   UNL     1      49.067   2.174  16.743  0.00  0.00    +0.000 C 
ATOM     14  C   UNL     1      50.024   3.121  17.495  0.00  0.00    +0.000 C 
ATOM     15  C   UNL     1      48.819   3.593  18.335  0.00  0.00    +0.000 C 
BRANCH  14  16
ATOM     16  O   UNL     1      51.102   2.503  18.219  0.00  0.00    +0.000 OA
ATOM     17  H   UNL     1      50.691   2.083  18.993  0.00  0.00    +0.000 HD
ENDBRANCH  14  16
ENDBRANCH  11  12
ENDBRANCH   8  10
ENDBRANCH   1   4
BRANCH   1  18
ATOM     18  C   UNL     1      43.257   4.542  10.964  0.00  0.00    +0.000 C 
BRANCH  18  23
ATOM     19  C   UNL     1      46.298   2.088   7.881  0.00  0.00    +0.000 A 
ATOM     20  C   UNL     1      46.318   3.398   7.412  0.00  0.00    +0.000 A 
ATOM     21  C   UNL     1      45.539   4.363   8.054  0.00  0.00    +0.000 A 
ATOM     22  C   UNL     1      44.765   4.010   9.160  0.00  0.00    +0.000 A 
ATOM     23  N   UNL     1      43.951   4.994   9.741  0.00  0.00    +0.000 N 
ATOM     24  N   UNL     1      44.725   2.736   9.607  0.00  0.00    +0.000 NA
ATOM     25  C   UNL     1      45.476   1.806   8.962  0.00  0.00    +0.000 A 
ATOM     26  H   UNL     1      44.463   5.861   9.883  0.00  0.00    +0.000 HD
BRANCH  19  28
ATOM     27  N   UNL     1      46.790  -0.279   7.668  0.00  0.00    +0.000 N 
ATOM     28  C   UNL     1      47.075   0.996   7.262  0.00  0.00    +0.000 C 
ATOM     29  O   UNL     1      47.912   1.213   6.397  0.00  0.00    +0.000 OA
ATOM     30  H   UNL     1      47.256  -1.027   7.170  0.00  0.00    +0.000 HD
ATOM     31  H   UNL     1      45.955  -0.515   8.186  0.00  0.00    +0.000 HD
ENDBRANCH  19  28
ENDBRANCH  18  23
ENDBRANCH   1  18
TORSDOF 7
ENDMDL
MODEL 2
REMARK VINA RESULT:    -8.863      2.102      8.476
REMARK INTER + INTRA:         -12.999
REMARK INTER:                 -12.384
REMARK INTRA:                  -0.615
REMARK UNBOUND:                -0.769
REMARK  Name = 
REMARK  7 active torsions:
REMARK  status: ('A' for Active; 'I' for Inactive)
REMARK    1  A    between atoms: C_2  and  C_4
REMARK    2  A    between atoms: N_8  and  C_9
REMARK    3  A    between atoms: C_9  and  C_10
REMARK    4  A    between atoms: C_10  and  C_13
REMARK    5  A    between atoms: C_17  and  C_18
REMARK    6  A    between atoms: C_19  and  C_20
REMARK    7  A    between atoms: C_22  and  O_23
REMARK                            x       y       z     vdW  Elec       q    Type
REMARK                         _______ _______ _______ _____ _____    ______ ____
ROOT
ATOM      1  C   UNL     1      46.215   6.731  12.547  0.00  0.00    +0.000 C 
ATOM      2  F   UNL     1      45.679   7.752  13.290  0.00  0.00    +0.000 F 
ATOM      3  F   UNL     1      46.847   7.356  11.506  0.00  0.00    +0.000 F 
ENDROOT
BRANCH   1   4
ATOM      4  C   UNL     1      45.122   5.806  12.029  0.00  0.00    +0.000 A 
ATOM      5  C   UNL     1      43.900   5.619  12.686  0.00  0.00    +0.000 A 
ATOM      6  C   UNL     1      42.986   4.724  12.160  0.00  0.00    +0.000 A 
ATOM      7  N   UNL     1      43.196   4.019  11.035  0.00  0.00    +0.000 NA
ATOM      8  C   UNL     1      44.368   4.198  10.385  0.00  0.00    +0.000 A 
ATOM      9  C   UNL     1      45.344   5.079  10.846  0.00  0.00    +0.000 A 
BRANCH   8  10
ATOM     10  C   UNL     1      44.562   3.411   9.156  0.00  0.00    +0.000 C 
ATOM     11  C   UNL     1      45.707   3.421   8.452  0.00  0.00    +0.000 C 
BRANCH  11  12
ATOM     12  C   UNL     1      45.849   2.582   7.234  0.00  0.00    +0.000 C 
ATOM     13  C   UNL     1      46.704   3.192   6.095  0.00  0.00    +0.000 C 
ATOM     14  C   UNL     1      47.902   2.345   6.575  0.00  0.00    +0.000 C 
ATOM     15  C   UNL     1      46.903   1.454   7.341  0.00  0.00    +0.000 C 
BRANCH  14  16
ATOM     16  O   UNL     1      48.680   1.697   5.552  0.00  0.00    +0.000 OA
ATOM     17  H   UNL     1      49.440   2.282   5.391  0.00  0.00    +0.000 HD
ENDBRANCH  14  16
ENDBRANCH  11  12
ENDBRANCH   8  10
ENDBRANCH   1   4
BRANCH   1  18
ATOM     18  C   UNL     1      47.288   6.035  13.429  0.00  0.00    +0.000 C 
BRANCH  18  23
ATOM     19  C   UNL     1      48.724   4.400  17.905  0.00  0.00    +0.000 A 
ATOM     20  C   UNL     1      47.746   3.495  17.507  0.00  0.00    +0.000 A 
ATOM     21  C   UNL     1      47.108   3.679  16.278  0.00  0.00    +0.000 A 
ATOM     22  C   UNL     1      47.465   4.752  15.462  0.00  0.00    +0.000 A 
ATOM     23  N   UNL     1      46.761   4.935  14.262  0.00  0.00    +0.000 N 
ATOM     24  N   UNL     1      48.400   5.646  15.852  0.00  0.00    +0.000 NA
ATOM     25  C   UNL     1      49.000   5.462  17.057  0.00  0.00    +0.000 A 
ATOM     26  H   UNL     1      46.675   4.063  13.747  0.00  0.00    +0.000 HD
BRANCH  19  28
ATOM     27  N   UNL     1      48.715   3.922  20.284  0.00  0.00    +0.000 N 
ATOM     28  C   UNL     1      49.444   4.299  19.190  0.00  0.00    +0.000 C 
ATOM     29  O   UNL     1      50.647   4.507  19.271  0.00  0.00    +0.000 OA
ATOM     30  H   UNL     1      49.234   3.760  21.139  0.00  0.00    +0.000 HD
ATOM     31  H   UNL     1      47.795   3.512  20.214  0.00  0.00    +0.000 HD
ENDBRANCH  19  28
ENDBRANCH  18  23
ENDBRANCH   1  18
TORSDOF 7
ENDMDL
MODEL 3
REMARK VINA RESULT:    -8.209      3.776      7.605
REMARK INTER + INTRA:         -12.096
REMARK INTER:                 -11.552
REMARK INTRA:                  -0.544
REMARK UNBOUND:                -0.769
REMARK  Name = 
REMARK  7 active torsions:
REMARK  status: ('A' for Active; 'I' for Inactive)
REMARK    1  A    between atoms: C_2  and  C_4
REMARK    2  A    between atoms: N_8  and  C_9
REMARK    3  A    between atoms: C_9  and  C_10
REMARK    4  A    between atoms: C_10  and  C_13
REMARK    5  A    between atoms: C_17  and  C_18
REMARK    6  A    between atoms: C_19  and  C_20
REMARK    7  A    between atoms: C_22  and  O_23
REMARK                            x       y       z     vdW  Elec       q    Type
REMARK                         _______ _______ _______ _____ _____    ______ ____
ROOT
ATOM      1  C   UNL     1      46.524   4.375  13.704  0.00  0.00    +0.000 C 
ATOM      2  F   UNL     1      47.277   3.246  13.904  0.00  0.00    +0.000 F 
ATOM      3  F   UNL     1      46.116   4.745  14.958  0.00  0.00    +0.000 F 
ENDROOT
BRANCH   1   4
ATOM      4  C   UNL     1      45.323   4.076  12.818  0.00  0.00    +0.000 A 
ATOM      5  C   UNL     1      43.998   4.235  13.241  0.00  0.00    +0.000 A 
ATOM      6  C   UNL     1      42.973   3.895  12.377  0.00  0.00    +0.000 A 
ATOM      7  N   UNL     1      43.171   3.425  11.133  0.00  0.00    +0.000 NA
ATOM      8  C   UNL     1      44.446   3.277  10.708  0.00  0.00    +0.000 A 
ATOM      9  C   UNL     1      45.538   3.594  11.514  0.00  0.00    +0.000 A 
BRANCH   8  10
ATOM     10  C   UNL     1      44.625   2.762   9.341  0.00  0.00    +0.000 C 
ATOM     11  C   UNL     1      45.816   2.370   8.854  0.00  0.00    +0.000 C 
BRANCH  11  12
ATOM     12  C   UNL     1      45.924   1.833   7.473  0.00  0.00    +0.000 C 
ATOM     13  C   UNL     1      46.524   2.801   6.422  0.00  0.00    +0.000 C 
ATOM     14  C   UNL     1      47.887   2.098   6.588  0.00  0.00    +0.000 C 
ATOM     15  C   UNL     1      47.141   0.909   7.229  0.00  0.00    +0.000 C 
BRANCH  14  16
ATOM     16  O   UNL     1      48.615   1.816   5.380  0.00  0.00    +0.000 OA
ATOM     17  H   UNL     1      47.944   1.586   4.716  0.00  0.00    +0.000 HD
ENDBRANCH  14  16
ENDBRANCH  11  12
ENDBRANCH   8  10
ENDBRANCH   1   4
BRANCH   1  18
ATOM     18  C   UNL     1      47.478   5.472  13.154  0.00  0.00    +0.000 C 
BRANCH  18  23
ATOM     19  C   UNL     1      44.472   9.038  11.416  0.00  0.00    +0.000 A 
ATOM     20  C   UNL     1      45.133   9.636  12.484  0.00  0.00    +0.000 A 
ATOM     21  C   UNL     1      46.054   8.888  13.220  0.00  0.00    +0.000 A 
ATOM     22  C   UNL     1      46.311   7.562  12.872  0.00  0.00    +0.000 A 
ATOM     23  N   UNL     1      47.199   6.826  13.671  0.00  0.00    +0.000 N 
ATOM     24  N   UNL     1      45.657   6.969  11.849  0.00  0.00    +0.000 NA
ATOM     25  C   UNL     1      44.752   7.705  11.153  0.00  0.00    +0.000 A 
ATOM     26  H   UNL     1      48.048   7.353  13.861  0.00  0.00    +0.000 HD
BRANCH  19  28
ATOM     27  N   UNL     1      42.154   9.538  10.896  0.00  0.00    +0.000 N 
ATOM     28  C   UNL     1      43.472   9.740  10.588  0.00  0.00    +0.000 C 
ATOM     29  O   UNL     1      43.802  10.500   9.687  0.00  0.00    +0.000 OA
ATOM     30  H   UNL     1      41.480  10.098  10.389  0.00  0.00    +0.000 HD
ATOM     31  H   UNL     1      41.853   9.123  11.767  0.00  0.00    +0.000 HD
ENDBRANCH  19  28
ENDBRANCH  18  23
ENDBRANCH   1  18
TORSDOF 7
ENDMDL
MODEL 4
REMARK VINA RESULT:    -8.195      2.393      8.392
REMARK INTER + INTRA:         -12.078
REMARK INTER:                 -11.381
REMARK INTRA:                  -0.697
REMARK UNBOUND:                -0.769
REMARK  Name = 
REMARK  7 active torsions:
REMARK  status: ('A' for Active; 'I' for Inactive)
REMARK    1  A    between atoms: C_2  and  C_4
REMARK    2  A    between atoms: N_8  and  C_9
REMARK    3  A    between atoms: C_9  and  C_10
REMARK    4  A    between atoms: C_10  and  C_13
REMARK    5  A    between atoms: C_17  and  C_18
REMARK    6  A    between atoms: C_19  and  C_20
REMARK    7  A    between atoms: C_22  and  O_23
REMARK                            x       y       z     vdW  Elec       q    Type
REMARK                         _______ _______ _______ _____ _____    ______ ____
ROOT
ATOM      1  C   UNL     1      46.375   4.973  13.592  0.00  0.00    +0.000 C 
ATOM      2  F   UNL     1      46.463   6.325  13.810  0.00  0.00    +0.000 F 
ATOM      3  F   UNL     1      47.569   4.639  13.011  0.00  0.00    +0.000 F 
ENDROOT
BRANCH   1   4
ATOM      4  C   UNL     1      45.218   4.650  12.657  0.00  0.00    +0.000 A 
ATOM      5  C   UNL     1      43.892   5.012  12.923  0.00  0.00    +0.000 A 
ATOM      6  C   UNL     1      42.903   4.635  12.033  0.00  0.00    +0.000 A 
ATOM      7  N   UNL     1      43.138   3.941  10.906  0.00  0.00    +0.000 NA
ATOM      8  C   UNL     1      44.417   3.594  10.632  0.00  0.00    +0.000 A 
ATOM      9  C   UNL     1      45.474   3.933  11.474  0.00  0.00    +0.000 A 
BRANCH   8  10
ATOM     10  C   UNL     1      44.637   2.837   9.389  0.00  0.00    +0.000 C 
ATOM     11  C   UNL     1      45.709   3.021   8.599  0.00  0.00    +0.000 C 
BRANCH  11  12
ATOM     12  C   UNL     1      45.887   2.204   7.370  0.00  0.00    +0.000 C 
ATOM     13  C   UNL     1      46.556   2.928   6.175  0.00  0.00    +0.000 C 
ATOM     14  C   UNL     1      47.899   2.276   6.562  0.00  0.00    +0.000 C 
ATOM     15  C   UNL     1      47.104   1.249   7.396  0.00  0.00    +0.000 C 
BRANCH  14  16
ATOM     16  O   UNL     1      48.690   1.745   5.484  0.00  0.00    +0.000 OA
ATOM     17  H   UNL     1      48.122   1.788   4.696  0.00  0.00    +0.000 HD
ENDBRANCH  14  16
ENDBRANCH  11  12
ENDBRANCH   8  10
ENDBRANCH   1   4
BRANCH   1  18
ATOM     18  C   UNL     1      46.295   4.287  14.983  0.00  0.00    +0.000 C 
BRANCH  18  23
ATOM     19  C   UNL     1      50.300   2.598  17.408  0.00  0.00    +0.000 A 
ATOM     20  C   UNL     1      50.024   3.821  18.011  0.00  0.00    +0.000 A 
ATOM     21  C   UNL     1      48.951   4.583  17.545  0.00  0.00    +0.000 A 
ATOM     22  C   UNL     1      48.163   4.107  16.497  0.00  0.00    +0.000 A 
ATOM     23  N   UNL     1      47.130   4.928  16.019  0.00  0.00    +0.000 N 
ATOM     24  N   UNL     1      48.437   2.930  15.894  0.00  0.00    +0.000 NA
ATOM     25  C   UNL     1      49.495   2.208  16.348  0.00  0.00    +0.000 A 
ATOM     26  H   UNL     1      46.577   5.309  16.783  0.00  0.00    +0.000 HD
BRANCH  19  28
ATOM     27  N   UNL     1      52.547   2.344  18.289  0.00  0.00    +0.000 N 
ATOM     28  C   UNL     1      51.420   1.728  17.819  0.00  0.00    +0.000 C 
ATOM     29  O   UNL     1      51.335   0.508  17.777  0.00  0.00    +0.000 OA
ATOM     30  H   UNL     1      53.271   1.740  18.660  0.00  0.00    +0.000 HD
ATOM     31  H   UNL     1      52.566   3.315  18.565  0.00  0.00    +0.000 HD
ENDBRANCH  19  28
ENDBRANCH  18  23
ENDBRANCH   1  18
TORSDOF 7
ENDMDL
MODEL 5
REMARK VINA RESULT:    -7.813      2.903      4.181
REMARK INTER + INTRA:         -11.550
REMARK INTER:                 -10.801
REMARK INTRA:                  -0.749
REMARK UNBOUND:                -0.769
REMARK  Name = 
REMARK  7 active torsions:
REMARK  status: ('A' for Active; 'I' for Inactive)
REMARK    1  A    between atoms: C_2  and  C_4
REMARK    2  A    between atoms: N_8  and  C_9
REMARK    3  A    between atoms: C_9  and  C_10
REMARK    4  A    between atoms: C_10  and  C_13
REMARK    5  A    between atoms: C_17  and  C_18
REMARK    6  A    between atoms: C_19  and  C_20
REMARK    7  A    between atoms: C_22  and  O_23
REMARK                            x       y       z     vdW  Elec       q    Type
REMARK                         _______ _______ _______ _____ _____    ______ ____
ROOT
ATOM      1  C   UNL     1      43.726   5.807  11.841  0.00  0.00    +0.000 C 
ATOM      2  F   UNL     1      43.534   7.138  11.568  0.00  0.00    +0.000 F 
ATOM      3  F   UNL     1      42.771   5.505  12.774  0.00  0.00    +0.000 F 
ENDROOT
BRANCH   1   4
ATOM      4  C   UNL     1      45.119   5.564  12.404  0.00  0.00    +0.000 A 
ATOM      5  C   UNL     1      45.407   4.559  13.335  0.00  0.00    +0.000 A 
ATOM      6  C   UNL     1      46.697   4.445  13.821  0.00  0.00    +0.000 A 
ATOM      7  N   UNL     1      47.710   5.243  13.443  0.00  0.00    +0.000 NA
ATOM      8  C   UNL     1      47.447   6.212  12.536  0.00  0.00    +0.000 A 
ATOM      9  C   UNL     1      46.177   6.397  11.995  0.00  0.00    +0.000 A 
BRANCH   8  10
ATOM     10  C   UNL     1      48.581   7.065  12.143  0.00  0.00    +0.000 C 
ATOM     11  C   UNL     1      49.483   7.535  13.021  0.00  0.00    +0.000 C 
BRANCH  11  12
ATOM     12  C   UNL     1      50.622   8.370  12.556  0.00  0.00    +0.000 C 
ATOM     13  C   UNL     1      50.332   9.886  12.426  0.00  0.00    +0.000 C 
ATOM     14  C   UNL     1      50.993  10.106  13.802  0.00  0.00    +0.000 C 
ATOM     15  C   UNL     1      51.658   8.723  13.649  0.00  0.00    +0.000 C 
BRANCH  14  16
ATOM     16  O   UNL     1      51.883  11.232  13.914  0.00  0.00    +0.000 OA
ATOM     17  H   UNL     1      52.672  10.897  14.372  0.00  0.00    +0.000 HD
ENDBRANCH  14  16
ENDBRANCH  11  12
ENDBRANCH   8  10
ENDBRANCH   1   4
BRANCH   1  18
ATOM     18  C   UNL     1      43.407   5.020  10.539  0.00  0.00    +0.000 C 
BRANCH  18  23
ATOM     19  C   UNL     1      46.493   2.858   7.288  0.00  0.00    +0.000 A 
ATOM     20  C   UNL     1      46.137   1.832   8.158  0.00  0.00    +0.000 A 
ATOM     21  C   UNL     1      45.279   2.110   9.223  0.00  0.00    +0.000 A 
ATOM     22  C   UNL     1      44.778   3.401   9.395  0.00  0.00    +0.000 A 
ATOM     23  N   UNL     1      43.965   3.653  10.511  0.00  0.00    +0.000 N 
ATOM     24  N   UNL     1      45.136   4.405   8.566  0.00  0.00    +0.000 NA
ATOM     25  C   UNL     1      45.985   4.122   7.544  0.00  0.00    +0.000 A 
ATOM     26  H   UNL     1      43.250   2.939  10.616  0.00  0.00    +0.000 HD
BRANCH  19  28
ATOM     27  N   UNL     1      48.677   2.251   6.422  0.00  0.00    +0.000 N 
ATOM     28  C   UNL     1      47.404   2.666   6.142  0.00  0.00    +0.000 C 
ATOM     29  O   UNL     1      47.031   2.835   4.989  0.00  0.00    +0.000 OA
ATOM     30  H   UNL     1      49.265   2.029   5.627  0.00  0.00    +0.000 HD
ATOM     31  H   UNL     1      48.946   1.872   7.319  0.00  0.00    +0.000 HD
ENDBRANCH  19  28
ENDBRANCH  18  23
ENDBRANCH   1  18
TORSDOF 7
ENDMDL
MODEL 6
REMARK VINA RESULT:    -7.584      2.479      8.463
REMARK INTER + INTRA:         -11.235
REMARK INTER:                 -10.561
REMARK INTRA:                  -0.673
REMARK UNBOUND:                -0.769
REMARK  Name = 
REMARK  7 active torsions:
REMARK  status: ('A' for Active; 'I' for Inactive)
REMARK    1  A    between atoms: C_2  and  C_4
REMARK    2  A    between atoms: N_8  and  C_9
REMARK    3  A    between atoms: C_9  and  C_10
REMARK    4  A    between atoms: C_10  and  C_13
REMARK    5  A    between atoms: C_17  and  C_18
REMARK    6  A    between atoms: C_19  and  C_20
REMARK    7  A    between atoms: C_22  and  O_23
REMARK                            x       y       z     vdW  Elec       q    Type
REMARK                         _______ _______ _______ _____ _____    ______ ____
ROOT
ATOM      1  C   UNL     1      46.949   7.613  12.204  0.00  0.00    +0.000 C 
ATOM      2  F   UNL     1      46.512   8.855  11.816  0.00  0.00    +0.000 F 
ATOM      3  F   UNL     1      48.138   7.445  11.546  0.00  0.00    +0.000 F 
ENDROOT
BRANCH   1   4
ATOM      4  C   UNL     1      45.954   6.537  11.794  0.00  0.00    +0.000 A 
ATOM      5  C   UNL     1      44.900   6.114  12.612  0.00  0.00    +0.000 A 
ATOM      6  C   UNL     1      44.073   5.097  12.169  0.00  0.00    +0.000 A 
ATOM      7  N   UNL     1      44.214   4.487  10.979  0.00  0.00    +0.000 NA
ATOM      8  C   UNL     1      45.222   4.894  10.175  0.00  0.00    +0.000 A 
ATOM      9  C   UNL     1      46.101   5.910  10.543  0.00  0.00    +0.000 A 
BRANCH   8  10
ATOM     10  C   UNL     1      45.344   4.205   8.880  0.00  0.00    +0.000 C 
ATOM     11  C   UNL     1      45.835   2.960   8.754  0.00  0.00    +0.000 C 
BRANCH  11  12
ATOM     12  C   UNL     1      45.905   2.310   7.419  0.00  0.00    +0.000 C 
ATOM     13  C   UNL     1      46.668   3.102   6.327  0.00  0.00    +0.000 C 
ATOM     14  C   UNL     1      47.911   2.229   6.597  0.00  0.00    +0.000 C 
ATOM     15  C   UNL     1      46.984   1.208   7.289  0.00  0.00    +0.000 C 
BRANCH  14  16
ATOM     16  O   UNL     1      48.627   1.757   5.441  0.00  0.00    +0.000 OA
ATOM     17  H   UNL     1      49.337   2.404   5.291  0.00  0.00    +0.000 HD
ENDBRANCH  14  16
ENDBRANCH  11  12
ENDBRANCH   8  10
ENDBRANCH   1   4
BRANCH   1  18
ATOM     18  C   UNL     1      47.236   7.683  13.730  0.00  0.00    +0.000 C 
BRANCH  18  23
ATOM     19  C   UNL     1      49.902   5.295  17.189  0.00  0.00    +0.000 A 
ATOM     20  C   UNL     1      50.793   6.214  16.642  0.00  0.00    +0.000 A 
ATOM     21  C   UNL     1      50.362   7.047  15.608  0.00  0.00    +0.000 A 
ATOM     22  C   UNL     1      49.049   6.962  15.147  0.00  0.00    +0.000 A 
ATOM     23  N   UNL     1      48.671   7.776  14.068  0.00  0.00    +0.000 N 
ATOM     24  N   UNL     1      48.185   6.059  15.659  0.00  0.00    +0.000 NA
ATOM     25  C   UNL     1      48.624   5.244  16.653  0.00  0.00    +0.000 A 
ATOM     26  H   UNL     1      48.976   8.736  14.205  0.00  0.00    +0.000 HD
BRANCH  19  28
ATOM     27  N   UNL     1      49.940   3.046  18.098  0.00  0.00    +0.000 N 
ATOM     28  C   UNL     1      50.267   4.362  18.273  0.00  0.00    +0.000 C 
ATOM     29  O   UNL     1      50.868   4.739  19.270  0.00  0.00    +0.000 OA
ATOM     30  H   UNL     1      50.279   2.399  18.799  0.00  0.00    +0.000 HD
ATOM     31  H   UNL     1      49.671   2.662  17.203  0.00  0.00    +0.000 HD
ENDBRANCH  19  28
ENDBRANCH  18  23
ENDBRANCH   1  18
TORSDOF 7
ENDMDL
MODEL 7
REMARK VINA RESULT:    -7.583      3.414      8.060
REMARK INTER + INTRA:         -11.234
REMARK INTER:                 -10.510
REMARK INTRA:                  -0.723
REMARK UNBOUND:                -0.769
REMARK  Name = 
REMARK  7 active torsions:
REMARK  status: ('A' for Active; 'I' for Inactive)
REMARK    1  A    between atoms: C_2  and  C_4
REMARK    2  A    between atoms: N_8  and  C_9
REMARK    3  A    between atoms: C_9  and  C_10
REMARK    4  A    between atoms: C_10  and  C_13
REMARK    5  A    between atoms: C_17  and  C_18
REMARK    6  A    between atoms: C_19  and  C_20
REMARK    7  A    between atoms: C_22  and  O_23
REMARK                            x       y       z     vdW  Elec       q    Type
REMARK                         _______ _______ _______ _____ _____    ______ ____
ROOT
ATOM      1  C   UNL     1      46.326   4.780  13.670  0.00  0.00    +0.000 C 
ATOM      2  F   UNL     1      47.328   3.878  13.413  0.00  0.00    +0.000 F 
ATOM      3  F   UNL     1      45.905   4.477  14.936  0.00  0.00    +0.000 F 
ENDROOT
BRANCH   1   4
ATOM      4  C   UNL     1      45.185   4.620  12.674  0.00  0.00    +0.000 A 
ATOM      5  C   UNL     1      43.884   5.075  12.918  0.00  0.00    +0.000 A 
ATOM      6  C   UNL     1      42.904   4.845  11.970  0.00  0.00    +0.000 A 
ATOM      7  N   UNL     1      43.127   4.210  10.806  0.00  0.00    +0.000 NA
ATOM      8  C   UNL     1      44.383   3.774  10.554  0.00  0.00    +0.000 A 
ATOM      9  C   UNL     1      45.429   3.964  11.454  0.00  0.00    +0.000 A 
BRANCH   8  10
ATOM     10  C   UNL     1      44.590   3.086   9.269  0.00  0.00    +0.000 C 
ATOM     11  C   UNL     1      45.666   3.296   8.490  0.00  0.00    +0.000 C 
BRANCH  11  12
ATOM     12  C   UNL     1      45.830   2.548   7.217  0.00  0.00    +0.000 C 
ATOM     13  C   UNL     1      46.725   3.228   6.150  0.00  0.00    +0.000 C 
ATOM     14  C   UNL     1      47.897   2.329   6.597  0.00  0.00    +0.000 C 
ATOM     15  C   UNL     1      46.865   1.398   7.267  0.00  0.00    +0.000 C 
BRANCH  14  16
ATOM     16  O   UNL     1      48.695   1.747   5.550  0.00  0.00    +0.000 OA
ATOM     17  H   UNL     1      49.134   0.979   5.952  0.00  0.00    +0.000 HD
ENDBRANCH  14  16
ENDBRANCH  11  12
ENDBRANCH   8  10
ENDBRANCH   1   4
BRANCH   1  18
ATOM     18  C   UNL     1      46.973   6.193  13.691  0.00  0.00    +0.000 C 
BRANCH  18  23
ATOM     19  C   UNL     1      51.280   8.551  12.879  0.00  0.00    +0.000 A 
ATOM     20  C   UNL     1      50.724   8.407  11.611  0.00  0.00    +0.000 A 
ATOM     21  C   UNL     1      49.496   7.755  11.477  0.00  0.00    +0.000 A 
ATOM     22  C   UNL     1      48.838   7.270  12.608  0.00  0.00    +0.000 A 
ATOM     23  N   UNL     1      47.636   6.569  12.426  0.00  0.00    +0.000 N 
ATOM     24  N   UNL     1      49.383   7.388  13.838  0.00  0.00    +0.000 NA
ATOM     25  C   UNL     1      50.586   8.011  13.950  0.00  0.00    +0.000 A 
ATOM     26  H   UNL     1      47.013   7.063  11.792  0.00  0.00    +0.000 HD
BRANCH  19  28
ATOM     27  N   UNL     1      53.647   8.403  13.395  0.00  0.00    +0.000 N 
ATOM     28  C   UNL     1      52.578   9.212  13.121  0.00  0.00    +0.000 C 
ATOM     29  O   UNL     1      52.705  10.427  13.046  0.00  0.00    +0.000 OA
ATOM     30  H   UNL     1      54.550   8.856  13.463  0.00  0.00    +0.000 HD
ATOM     31  H   UNL     1      53.638   7.407  13.228  0.00  0.00    +0.000 HD
ENDBRANCH  19  28
ENDBRANCH  18  23
ENDBRANCH   1  18
TORSDOF 7
ENDMDL
MODEL 8
REMARK VINA RESULT:    -7.397      3.303      8.775
REMARK INTER + INTRA:         -10.977
REMARK INTER:                 -10.238
REMARK INTRA:                  -0.738
REMARK UNBOUND:                -0.769
REMARK  Name = 
REMARK  7 active torsions:
REMARK  status: ('A' for Active; 'I' for Inactive)
REMARK    1  A    between atoms: C_2  and  C_4
REMARK    2  A    between atoms: N_8  and  C_9
REMARK    3  A    between atoms: C_9  and  C_10
REMARK    4  A    between atoms: C_10  and  C_13
REMARK    5  A    between atoms: C_17  and  C_18
REMARK    6  A    between atoms: C_19  and  C_20
REMARK    7  A    between atoms: C_22  and  O_23
REMARK                            x       y       z     vdW  Elec       q    Type
REMARK                         _______ _______ _______ _____ _____    ______ ____
ROOT
ATOM      1  C   UNL     1      46.531   4.550  13.708  0.00  0.00    +0.000 C 
ATOM      2  F   UNL     1      47.236   3.392  13.918  0.00  0.00    +0.000 F 
ATOM      3  F   UNL     1      46.085   4.913  14.950  0.00  0.00    +0.000 F 
ENDROOT
BRANCH   1   4
ATOM      4  C   UNL     1      45.358   4.308  12.769  0.00  0.00    +0.000 A 
ATOM      5  C   UNL     1      44.036   4.640  13.090  0.00  0.00    +0.000 A 
ATOM      6  C   UNL     1      43.032   4.341  12.187  0.00  0.00    +0.000 A 
ATOM      7  N   UNL     1      43.248   3.752  10.999  0.00  0.00    +0.000 NA
ATOM      8  C   UNL     1      44.522   3.435  10.672  0.00  0.00    +0.000 A 
ATOM      9  C   UNL     1      45.594   3.701  11.522  0.00  0.00    +0.000 A 
BRANCH   8  10
ATOM     10  C   UNL     1      44.721   2.794   9.362  0.00  0.00    +0.000 C 
ATOM     11  C   UNL     1      45.624   3.225   8.464  0.00  0.00    +0.000 C 
BRANCH  11  12
ATOM     12  C   UNL     1      45.796   2.515   7.170  0.00  0.00    +0.000 C 
ATOM     13  C   UNL     1      46.721   3.212   6.141  0.00  0.00    +0.000 C 
ATOM     14  C   UNL     1      47.869   2.278   6.577  0.00  0.00    +0.000 C 
ATOM     15  C   UNL     1      46.808   1.346   7.199  0.00  0.00    +0.000 C 
BRANCH  14  16
ATOM     16  O   UNL     1      48.673   1.715   5.524  0.00  0.00    +0.000 OA
ATOM     17  H   UNL     1      49.572   2.052   5.673  0.00  0.00    +0.000 HD
ENDBRANCH  14  16
ENDBRANCH  11  12
ENDBRANCH   8  10
ENDBRANCH   1   4
BRANCH   1  18
ATOM     18  C   UNL     1      47.544   5.621  13.216  0.00  0.00    +0.000 C 
BRANCH  18  23
ATOM     19  C   UNL     1      50.290   8.266  16.414  0.00  0.00    +0.000 A 
ATOM     20  C   UNL     1      49.141   9.029  16.237  0.00  0.00    +0.000 A 
ATOM     21  C   UNL     1      48.150   8.574  15.365  0.00  0.00    +0.000 A 
ATOM     22  C   UNL     1      48.314   7.360  14.697  0.00  0.00    +0.000 A 
ATOM     23  N   UNL     1      47.322   6.965  13.786  0.00  0.00    +0.000 N 
ATOM     24  N   UNL     1      49.436   6.624  14.850  0.00  0.00    +0.000 NA
ATOM     25  C   UNL     1      50.399   7.089  15.689  0.00  0.00    +0.000 A 
ATOM     26  H   UNL     1      46.392   7.071  14.183  0.00  0.00    +0.000 HD
BRANCH  19  28
ATOM     27  N   UNL     1      52.185   7.671  17.809  0.00  0.00    +0.000 N 
ATOM     28  C   UNL     1      51.400   8.670  17.302  0.00  0.00    +0.000 C 
ATOM     29  O   UNL     1      51.632   9.846  17.546  0.00  0.00    +0.000 OA
ATOM     30  H   UNL     1      53.000   7.962  18.336  0.00  0.00    +0.000 HD
ATOM     31  H   UNL     1      52.179   6.730  17.444  0.00  0.00    +0.000 HD
ENDBRANCH  19  28
ENDBRANCH  18  23
ENDBRANCH   1  18
TORSDOF 7
ENDMDL
MODEL 9
REMARK VINA RESULT:    -6.905      4.133      7.924
REMARK INTER + INTRA:         -10.297
REMARK INTER:                  -9.625
REMARK INTRA:                  -0.672
REMARK UNBOUND:                -0.769
REMARK  Name = 
REMARK  7 active torsions:
REMARK  status: ('A' for Active; 'I' for Inactive)
REMARK    1  A    between atoms: C_2  and  C_4
REMARK    2  A    between atoms: N_8  and  C_9
REMARK    3  A    between atoms: C_9  and  C_10
REMARK    4  A    between atoms: C_10  and  C_13
REMARK    5  A    between atoms: C_17  and  C_18
REMARK    6  A    between atoms: C_19  and  C_20
REMARK    7  A    between atoms: C_22  and  O_23
REMARK                            x       y       z     vdW  Elec       q    Type
REMARK                         _______ _______ _______ _____ _____    ______ ____
ROOT
ATOM      1  C   UNL     1      46.463   7.771  12.214  0.00  0.00    +0.000 C 
ATOM      2  F   UNL     1      46.531   8.134  13.535  0.00  0.00    +0.000 F 
ATOM      3  F   UNL     1      45.934   8.864  11.583  0.00  0.00    +0.000 F 
ENDROOT
BRANCH   1   4
ATOM      4  C   UNL     1      45.560   6.559  12.031  0.00  0.00    +0.000 A 
ATOM      5  C   UNL     1      44.667   6.112  13.013  0.00  0.00    +0.000 A 
ATOM      6  C   UNL     1      43.918   4.975  12.770  0.00  0.00    +0.000 A 
ATOM      7  N   UNL     1      43.986   4.266  11.630  0.00  0.00    +0.000 NA
ATOM      8  C   UNL     1      44.837   4.693  10.669  0.00  0.00    +0.000 A 
ATOM      9  C   UNL     1      45.629   5.829  10.831  0.00  0.00    +0.000 A 
BRANCH   8  10
ATOM     10  C   UNL     1      44.884   3.895   9.434  0.00  0.00    +0.000 C 
ATOM     11  C   UNL     1      45.908   3.947   8.564  0.00  0.00    +0.000 C 
BRANCH  11  12
ATOM     12  C   UNL     1      45.907   3.094   7.348  0.00  0.00    +0.000 C 
ATOM     13  C   UNL     1      46.893   3.518   6.230  0.00  0.00    +0.000 C 
ATOM     14  C   UNL     1      47.886   2.451   6.735  0.00  0.00    +0.000 C 
ATOM     15  C   UNL     1      46.712   1.778   7.476  0.00  0.00    +0.000 C 
BRANCH  14  16
ATOM     16  O   UNL     1      48.543   1.658   5.730  0.00  0.00    +0.000 OA
ATOM     17  H   UNL     1      47.898   1.562   5.009  0.00  0.00    +0.000 HD
ENDBRANCH  14  16
ENDBRANCH  11  12
ENDBRANCH   8  10
ENDBRANCH   1   4
BRANCH   1  18
ATOM     18  C   UNL     1      47.921   7.572  11.716  0.00  0.00    +0.000 C 
BRANCH  18  23
ATOM     19  C   UNL     1      52.698   8.299  10.522  0.00  0.00    +0.000 A 
ATOM     20  C   UNL     1      52.290   9.515  11.061  0.00  0.00    +0.000 A 
ATOM     21  C   UNL     1      50.969   9.661  11.488  0.00  0.00    +0.000 A 
ATOM     22  C   UNL     1      50.081   8.591  11.383  0.00  0.00    +0.000 A 
ATOM     23  N   UNL     1      48.747   8.795  11.769  0.00  0.00    +0.000 N 
ATOM     24  N   UNL     1      50.465   7.414  10.842  0.00  0.00    +0.000 NA
ATOM     25  C   UNL     1      51.750   7.293  10.417  0.00  0.00    +0.000 A 
ATOM     26  H   UNL     1      48.690   9.264  12.669  0.00  0.00    +0.000 HD
BRANCH  19  28
ATOM     27  N   UNL     1      54.552   8.906   9.078  0.00  0.00    +0.000 N 
ATOM     28  C   UNL     1      54.068   8.051  10.031  0.00  0.00    +0.000 C 
ATOM     29  O   UNL     1      54.758   7.146  10.479  0.00  0.00    +0.000 OA
ATOM     30  H   UNL     1      55.524   8.790   8.819  0.00  0.00    +0.000 HD
ATOM     31  H   UNL     1      54.117   9.792   8.866  0.00  0.00    +0.000 HD
ENDBRANCH  19  28
ENDBRANCH  18  23
ENDBRANCH   1  18
TORSDOF 7
ENDMDL
