MODEL 1
REMARK VINA RESULT:    -7.416      0.000      0.000
REMARK INTER + INTRA:         -10.940
REMARK INTER:                 -10.234
REMARK INTRA:                  -0.705
REMARK UNBOUND:                -0.705
REMARK  Name = 
REMARK  10 active torsions:
REMARK  status: ('A' for Active; 'I' for Inactive)
REMARK    1  A    between atoms: C_1  and  C_2
REMARK    2  A    between atoms: C_2  and  C_3
REMARK    3  A    between atoms: C_2  and  C_4
REMARK    4  A    between atoms: C_2  and  C_5
REMARK    5  A    between atoms: N_7  and  C_8
REMARK    6  A    between atoms: C_8  and  C_9
REMARK    7  A    between atoms: C_12  and  C_13
REMARK    8  A    between atoms: C_13  and  C_14
REMARK    9  A    between atoms: C_14  and  C_15
REMARK   10  A    between atoms: C_15  and  O_17
REMARK                            x       y       z     vdW  Elec       q    Type
REMARK                         _______ _______ _______ _____ _____    ______ ____
ROOT
ATOM      1  C   UNL     1      47.096   7.614  12.546  0.00  0.00    +0.000 A 
ATOM      2  C   UNL     1      46.025   7.478  11.676  0.00  0.00    +0.000 A 
ATOM      3  N   UNL     1      45.377   6.299  11.924  0.00  0.00    +0.000 N 
ATOM      4  C   UNL     1      45.980   5.656  12.984  0.00  0.00    +0.000 A 
ATOM      5  C   UNL     1      45.657   4.461  13.625  0.00  0.00    +0.000 A 
ATOM      6  N   UNL     1      46.410   4.024  14.656  0.00  0.00    +0.000 NA
ATOM      7  C   UNL     1      47.477   4.755  15.030  0.00  0.00    +0.000 A 
ATOM      8  C   UNL     1      47.859   5.950  14.441  0.00  0.00    +0.000 A 
ATOM      9  C   UNL     1      47.076   6.440  13.376  0.00  0.00    +0.000 A 
ENDROOT
BRANCH   1  11
ATOM     10  C   UNL     1      47.292   9.994  11.813  0.00  0.00    +0.000 C 
ATOM     11  C   UNL     1      48.008   8.843  12.557  0.00  0.00    +0.000 C 
ATOM     12  C   UNL     1      49.333   8.526  11.828  0.00  0.00    +0.000 C 
ATOM     13  C   UNL     1      48.370   9.354  13.962  0.00  0.00    +0.000 C 
ENDBRANCH   1  11
BRANCH   3  14
ATOM     14  C   UNL     1      44.184   5.852  11.206  0.00  0.00    +0.000 C 
BRANCH  14  15
ATOM     15  C   UNL     1      44.524   4.748  10.237  0.00  0.00    +0.000 A 
ATOM     16  N   UNL     1      44.166   3.491  10.573  0.00  0.00    +0.000 NA
ATOM     17  C   UNL     1      44.629   2.497   9.785  0.00  0.00    +0.000 A 
ATOM     18  C   UNL     1      45.392   2.698   8.653  0.00  0.00    +0.000 A 
ATOM     19  C   UNL     1      45.649   4.026   8.372  0.00  0.00    +0.000 A 
ATOM     20  N   UNL     1      45.228   5.060   9.131  0.00  0.00    +0.000 NA
BRANCH  18  21
ATOM     21  C   UNL     1      45.967   1.584   7.826  0.00  0.00    +0.000 C 
BRANCH  21  22
ATOM     22  C   UNL     1      47.422   1.803   7.407  0.00  0.00    +0.000 C 
BRANCH  22  23
ATOM     23  C   UNL     1      47.524   2.182   5.948  0.00  0.00    +0.000 C 
ATOM     24  O   UNL     1      46.693   2.829   5.330  0.00  0.00    +0.000 OA
BRANCH  23  25
ATOM     25  O   UNL     1      48.658   1.718   5.371  0.00  0.00    +0.000 OA
ATOM     26  H   UNL     1      49.049   0.945   5.820  0.00  0.00    +0.000 HD
ENDBRANCH  23  25
ENDBRANCH  22  23
ENDBRANCH  21  22
ENDBRANCH  18  21
ENDBRANCH  14  15
ENDBRANCH   3  14
TORSDOF 7
ENDMDL
MODEL 2
REMARK VINA RESULT:    -7.174      1.602      3.150
REMARK INTER + INTRA:         -10.605
REMARK INTER:                  -9.790
REMARK INTRA:                  -0.815
REMARK UNBOUND:                -0.705
REMARK  Name = 
REMARK  10 active torsions:
REMARK  status: ('A' for Active; 'I' for Inactive)
REMARK    1  A    between atoms: C_1  and  C_2
REMARK    2  A    between atoms: C_2  and  C_3
REMARK    3  A    between atoms: C_2  and  C_4
REMARK    4  A    between atoms: C_2  and  C_5
REMARK    5  A    between atoms: N_7  and  C_8
REMARK    6  A    between atoms: C_8  and  C_9
REMARK    7  A    between atoms: C_12  and  C_13
REMARK    8  A    between atoms: C_13  and  C_14
REMARK    9  A    between atoms: C_14  and  C_15
REMARK   10  A    between atoms: C_15  and  O_17
REMARK                            x       y       z     vdW  Elec       q    Type
REMARK                         _______ _______ _______ _____ _____    ______ ____
ROOT
ATOM      1  C   UNL     1      46.448   7.287  12.984  0.00  0.00    +0.000 A 
ATOM      2  C   UNL     1      45.515   6.272  12.838  0.00  0.00    +0.000 A 
ATOM      3  N   UNL     1      44.431   6.740  12.147  0.00  0.00    +0.000 N 
ATOM      4  C   UNL     1      44.645   8.053  11.789  0.00  0.00    +0.000 A 
ATOM      5  C   UNL     1      43.857   8.933  11.047  0.00  0.00    +0.000 A 
ATOM      6  N   UNL     1      44.281  10.195  10.827  0.00  0.00    +0.000 NA
ATOM      7  C   UNL     1      45.460  10.580  11.350  0.00  0.00    +0.000 A 
ATOM      8  C   UNL     1      46.295   9.763  12.097  0.00  0.00    +0.000 A 
ATOM      9  C   UNL     1      45.886   8.433  12.324  0.00  0.00    +0.000 A 
ENDROOT
BRANCH   1  11
ATOM     10  C   UNL     1      48.903   7.020  12.603  0.00  0.00    +0.000 C 
ATOM     11  C   UNL     1      47.796   7.084  13.681  0.00  0.00    +0.000 C 
ATOM     12  C   UNL     1      47.790   5.754  14.469  0.00  0.00    +0.000 C 
ATOM     13  C   UNL     1      48.175   8.199  14.669  0.00  0.00    +0.000 C 
ENDBRANCH   1  11
BRANCH   3  14
ATOM     14  C   UNL     1      43.271   5.924  11.791  0.00  0.00    +0.000 C 
BRANCH  14  15
ATOM     15  C   UNL     1      43.674   4.782  10.894  0.00  0.00    +0.000 A 
ATOM     16  N   UNL     1      43.624   3.536  11.409  0.00  0.00    +0.000 NA
ATOM     17  C   UNL     1      44.152   2.546  10.658  0.00  0.00    +0.000 A 
ATOM     18  C   UNL     1      44.686   2.730   9.399  0.00  0.00    +0.000 A 
ATOM     19  C   UNL     1      44.632   4.034   8.947  0.00  0.00    +0.000 A 
ATOM     20  N   UNL     1      44.132   5.067   9.658  0.00  0.00    +0.000 NA
BRANCH  18  21
ATOM     21  C   UNL     1      45.340   1.638   8.603  0.00  0.00    +0.000 C 
BRANCH  21  22
ATOM     22  C   UNL     1      46.272   2.141   7.499  0.00  0.00    +0.000 C 
BRANCH  22  23
ATOM     23  C   UNL     1      47.393   1.163   7.236  0.00  0.00    +0.000 C 
ATOM     24  O   UNL     1      48.390   1.398   6.572  0.00  0.00    +0.000 OA
BRANCH  23  25
ATOM     25  O   UNL     1      47.180  -0.039   7.823  0.00  0.00    +0.000 OA
ATOM     26  H   UNL     1      46.808  -0.716   7.227  0.00  0.00    +0.000 HD
ENDBRANCH  23  25
ENDBRANCH  22  23
ENDBRANCH  21  22
ENDBRANCH  18  21
ENDBRANCH  14  15
ENDBRANCH   3  14
TORSDOF 7
ENDMDL
MODEL 3
REMARK VINA RESULT:    -6.094      3.928      6.234
REMARK INTER + INTRA:          -9.114
REMARK INTER:                  -8.585
REMARK INTRA:                  -0.529
REMARK UNBOUND:                -0.705
REMARK  Name = 
REMARK  10 active torsions:
REMARK  status: ('A' for Active; 'I' for Inactive)
REMARK    1  A    between atoms: C_1  and  C_2
REMARK    2  A    between atoms: C_2  and  C_3
REMARK    3  A    between atoms: C_2  and  C_4
REMARK    4  A    between atoms: C_2  and  C_5
REMARK    5  A    between atoms: N_7  and  C_8
REMARK    6  A    between atoms: C_8  and  C_9
REMARK    7  A    between atoms: C_12  and  C_13
REMARK    8  A    between atoms: C_13  and  C_14
REMARK    9  A    between atoms: C_14  and  C_15
REMARK   10  A    between atoms: C_15  and  O_17
REMARK                            x       y       z     vdW  Elec       q    Type
REMARK                         _______ _______ _______ _____ _____    ______ ____
ROOT
ATOM      1  C   UNL     1      50.469   5.412  18.169  0.00  0.00    +0.000 A 
ATOM      2  C   UNL     1      49.146   5.562  17.783  0.00  0.00    +0.000 A 
ATOM      3  N   UNL     1      48.691   4.393  17.235  0.00  0.00    +0.000 N 
ATOM      4  C   UNL     1      49.688   3.442  17.287  0.00  0.00    +0.000 A 
ATOM      5  C   UNL     1      49.687   2.104  16.896  0.00  0.00    +0.000 A 
ATOM      6  N   UNL     1      50.804   1.359  17.043  0.00  0.00    +0.000 NA
ATOM      7  C   UNL     1      51.906   1.941  17.552  0.00  0.00    +0.000 A 
ATOM      8  C   UNL     1      51.980   3.264  17.961  0.00  0.00    +0.000 A 
ATOM      9  C   UNL     1      50.822   4.058  17.839  0.00  0.00    +0.000 A 
ENDROOT
BRANCH   1  11
ATOM     10  C   UNL     1      50.347   7.757  19.022  0.00  0.00    +0.000 C 
ATOM     11  C   UNL     1      51.267   6.526  18.851  0.00  0.00    +0.000 C 
ATOM     12  C   UNL     1      52.476   6.924  17.975  0.00  0.00    +0.000 C 
ATOM     13  C   UNL     1      51.812   6.157  20.241  0.00  0.00    +0.000 C 
ENDBRANCH   1  11
BRANCH   3  14
ATOM     14  C   UNL     1      47.327   4.191  16.748  0.00  0.00    +0.000 C 
BRANCH  14  15
ATOM     15  C   UNL     1      47.205   4.616  15.307  0.00  0.00    +0.000 A 
ATOM     16  N   UNL     1      47.987   5.633  14.888  0.00  0.00    +0.000 NA
ATOM     17  C   UNL     1      47.744   6.117  13.652  0.00  0.00    +0.000 A 
ATOM     18  C   UNL     1      46.790   5.607  12.795  0.00  0.00    +0.000 A 
ATOM     19  C   UNL     1      46.088   4.532  13.304  0.00  0.00    +0.000 A 
ATOM     20  N   UNL     1      46.276   4.016  14.537  0.00  0.00    +0.000 NA
BRANCH  18  21
ATOM     21  C   UNL     1      46.473   6.200  11.452  0.00  0.00    +0.000 C 
BRANCH  21  22
ATOM     22  C   UNL     1      45.117   5.776  10.885  0.00  0.00    +0.000 C 
BRANCH  22  23
ATOM     23  C   UNL     1      45.279   4.836   9.713  0.00  0.00    +0.000 C 
ATOM     24  O   UNL     1      44.892   3.679   9.681  0.00  0.00    +0.000 OA
BRANCH  23  25
ATOM     25  O   UNL     1      45.918   5.417   8.670  0.00  0.00    +0.000 OA
ATOM     26  H   UNL     1      45.670   6.348   8.515  0.00  0.00    +0.000 HD
ENDBRANCH  23  25
ENDBRANCH  22  23
ENDBRANCH  21  22
ENDBRANCH  18  21
ENDBRANCH  14  15
ENDBRANCH   3  14
TORSDOF 7
ENDMDL
MODEL 4
REMARK VINA RESULT:    -6.089      3.706      7.062
REMARK INTER + INTRA:          -9.108
REMARK INTER:                  -8.431
REMARK INTRA:                  -0.677
REMARK UNBOUND:                -0.705
REMARK  Name = 
REMARK  10 active torsions:
REMARK  status: ('A' for Active; 'I' for Inactive)
REMARK    1  A    between atoms: C_1  and  C_2
REMARK    2  A    between atoms: C_2  and  C_3
REMARK    3  A    between atoms: C_2  and  C_4
REMARK    4  A    between atoms: C_2  and  C_5
REMARK    5  A    between atoms: N_7  and  C_8
REMARK    6  A    between atoms: C_8  and  C_9
REMARK    7  A    between atoms: C_12  and  C_13
REMARK    8  A    between atoms: C_13  and  C_14
REMARK    9  A    between atoms: C_14  and  C_15
REMARK   10  A    between atoms: C_15  and  O_17
REMARK                            x       y       z     vdW  Elec       q    Type
REMARK                         _______ _______ _______ _____ _____    ______ ____
ROOT
ATOM      1  C   UNL     1      45.236   4.240   9.474  0.00  0.00    +0.000 A 
ATOM      2  C   UNL     1      45.609   5.567   9.621  0.00  0.00    +0.000 A 
ATOM      3  N   UNL     1      45.193   6.030  10.840  0.00  0.00    +0.000 N 
ATOM      4  C   UNL     1      44.578   5.010  11.533  0.00  0.00    +0.000 A 
ATOM      5  C   UNL     1      44.036   4.984  12.818  0.00  0.00    +0.000 A 
ATOM      6  N   UNL     1      43.472   3.851  13.288  0.00  0.00    +0.000 NA
ATOM      7  C   UNL     1      43.433   2.769  12.487  0.00  0.00    +0.000 A 
ATOM      8  C   UNL     1      43.949   2.722  11.201  0.00  0.00    +0.000 A 
ATOM      9  C   UNL     1      44.563   3.886  10.694  0.00  0.00    +0.000 A 
ENDROOT
BRANCH   1  11
ATOM     10  C   UNL     1      46.735   4.112   7.480  0.00  0.00    +0.000 C 
ATOM     11  C   UNL     1      45.582   3.410   8.235  0.00  0.00    +0.000 C 
ATOM     12  C   UNL     1      44.356   3.319   7.299  0.00  0.00    +0.000 C 
ATOM     13  C   UNL     1      46.034   1.972   8.538  0.00  0.00    +0.000 C 
ENDBRANCH   1  11
BRANCH   3  14
ATOM     14  C   UNL     1      45.446   7.383  11.333  0.00  0.00    +0.000 C 
BRANCH  14  15
ATOM     15  C   UNL     1      46.607   7.394  12.294  0.00  0.00    +0.000 A 
ATOM     16  N   UNL     1      47.517   6.404  12.184  0.00  0.00    +0.000 NA
ATOM     17  C   UNL     1      48.451   6.327  13.156  0.00  0.00    +0.000 A 
ATOM     18  C   UNL     1      48.550   7.216  14.207  0.00  0.00    +0.000 A 
ATOM     19  C   UNL     1      47.604   8.222  14.188  0.00  0.00    +0.000 A 
ATOM     20  N   UNL     1      46.637   8.341  13.253  0.00  0.00    +0.000 NA
BRANCH  18  21
ATOM     21  C   UNL     1      49.542   7.077  15.325  0.00  0.00    +0.000 C 
BRANCH  21  22
ATOM     22  C   UNL     1      48.924   6.664  16.662  0.00  0.00    +0.000 C 
BRANCH  22  23
ATOM     23  C   UNL     1      48.529   5.206  16.660  0.00  0.00    +0.000 C 
ATOM     24  O   UNL     1      49.309   4.266  16.648  0.00  0.00    +0.000 OA
BRANCH  23  25
ATOM     25  O   UNL     1      47.186   5.033  16.668  0.00  0.00    +0.000 OA
ATOM     26  H   UNL     1      46.879   4.246  16.179  0.00  0.00    +0.000 HD
ENDBRANCH  23  25
ENDBRANCH  22  23
ENDBRANCH  21  22
ENDBRANCH  18  21
ENDBRANCH  14  15
ENDBRANCH   3  14
TORSDOF 7
ENDMDL
MODEL 5
REMARK VINA RESULT:    -5.860      3.996      7.432
REMARK INTER + INTRA:          -8.792
REMARK INTER:                  -8.989
REMARK INTRA:                   0.197
REMARK UNBOUND:                -0.705
REMARK  Name = 
REMARK  10 active torsions:
REMARK  status: ('A' for Active; 'I' for Inactive)
REMARK    1  A    between atoms: C_1  and  C_2
REMARK    2  A    between atoms: C_2  and  C_3
REMARK    3  A    between atoms: C_2  and  C_4
REMARK    4  A    between atoms: C_2  and  C_5
REMARK    5  A    between atoms: N_7  and  C_8
REMARK    6  A    between atoms: C_8  and  C_9
REMARK    7  A    between atoms: C_12  and  C_13
REMARK    8  A    between atoms: C_13  and  C_14
REMARK    9  A    between atoms: C_14  and  C_15
REMARK   10  A    between atoms: C_15  and  O_17
REMARK                            x       y       z     vdW  Elec       q    Type
REMARK                         _______ _______ _______ _____ _____    ______ ____
ROOT
ATOM      1  C   UNL     1      45.080   5.953  11.672  0.00  0.00    +0.000 A 
ATOM      2  C   UNL     1      46.320   5.725  12.248  0.00  0.00    +0.000 A 
ATOM      3  N   UNL     1      46.933   6.921  12.510  0.00  0.00    +0.000 N 
ATOM      4  C   UNL     1      46.095   7.955  12.150  0.00  0.00    +0.000 A 
ATOM      5  C   UNL     1      46.256   9.335  12.264  0.00  0.00    +0.000 A 
ATOM      6  N   UNL     1      45.283  10.165  11.831  0.00  0.00    +0.000 NA
ATOM      7  C   UNL     1      44.178   9.630  11.277  0.00  0.00    +0.000 A 
ATOM      8  C   UNL     1      43.950   8.270  11.131  0.00  0.00    +0.000 A 
ATOM      9  C   UNL     1      44.941   7.381  11.595  0.00  0.00    +0.000 A 
ENDROOT
BRANCH   1  11
ATOM     10  C   UNL     1      44.534   3.545  12.057  0.00  0.00    +0.000 C 
ATOM     11  C   UNL     1      44.121   4.823  11.289  0.00  0.00    +0.000 C 
ATOM     12  C   UNL     1      44.210   4.543   9.771  0.00  0.00    +0.000 C 
ATOM     13  C   UNL     1      42.645   5.104  11.616  0.00  0.00    +0.000 C 
ENDBRANCH   1  11
BRANCH   3  14
ATOM     14  C   UNL     1      48.243   7.049  13.146  0.00  0.00    +0.000 C 
BRANCH  14  15
ATOM     15  C   UNL     1      48.285   6.287  14.445  0.00  0.00    +0.000 A 
ATOM     16  N   UNL     1      49.187   6.679  15.369  0.00  0.00    +0.000 NA
ATOM     17  C   UNL     1      49.334   5.883  16.450  0.00  0.00    +0.000 A 
ATOM     18  C   UNL     1      48.592   4.741  16.678  0.00  0.00    +0.000 A 
ATOM     19  C   UNL     1      47.659   4.468  15.697  0.00  0.00    +0.000 A 
ATOM     20  N   UNL     1      47.478   5.216  14.588  0.00  0.00    +0.000 NA
BRANCH  18  21
ATOM     21  C   UNL     1      48.815   3.821  17.843  0.00  0.00    +0.000 C 
BRANCH  21  22
ATOM     22  C   UNL     1      50.221   3.220  17.905  0.00  0.00    +0.000 C 
BRANCH  22  23
ATOM     23  C   UNL     1      50.307   1.938  17.111  0.00  0.00    +0.000 C 
ATOM     24  O   UNL     1      49.784   1.747  16.024  0.00  0.00    +0.000 OA
BRANCH  23  25
ATOM     25  O   UNL     1      51.040   0.988  17.740  0.00  0.00    +0.000 OA
ATOM     26  H   UNL     1      50.816   0.073  17.483  0.00  0.00    +0.000 HD
ENDBRANCH  23  25
ENDBRANCH  22  23
ENDBRANCH  21  22
ENDBRANCH  18  21
ENDBRANCH  14  15
ENDBRANCH   3  14
TORSDOF 7
ENDMDL
MODEL 6
REMARK VINA RESULT:    -5.731      3.844      6.323
REMARK INTER + INTRA:          -8.614
REMARK INTER:                  -7.790
REMARK INTRA:                  -0.824
REMARK UNBOUND:                -0.705
REMARK  Name = 
REMARK  10 active torsions:
REMARK  status: ('A' for Active; 'I' for Inactive)
REMARK    1  A    between atoms: C_1  and  C_2
REMARK    2  A    between atoms: C_2  and  C_3
REMARK    3  A    between atoms: C_2  and  C_4
REMARK    4  A    between atoms: C_2  and  C_5
REMARK    5  A    between atoms: N_7  and  C_8
REMARK    6  A    between atoms: C_8  and  C_9
REMARK    7  A    between atoms: C_12  and  C_13
REMARK    8  A    between atoms: C_13  and  C_14
REMARK    9  A    between atoms: C_14  and  C_15
REMARK   10  A    between atoms: C_15  and  O_17
REMARK                            x       y       z     vdW  Elec       q    Type
REMARK                         _______ _______ _______ _____ _____    ______ ____
ROOT
ATOM      1  C   UNL     1      49.323   6.034  17.690  0.00  0.00    +0.000 A 
ATOM      2  C   UNL     1      49.423   5.808  16.326  0.00  0.00    +0.000 A 
ATOM      3  N   UNL     1      48.999   6.916  15.643  0.00  0.00    +0.000 N 
ATOM      4  C   UNL     1      48.652   7.903  16.540  0.00  0.00    +0.000 A 
ATOM      5  C   UNL     1      48.210   9.209  16.327  0.00  0.00    +0.000 A 
ATOM      6  N   UNL     1      47.923  10.002  17.381  0.00  0.00    +0.000 NA
ATOM      7  C   UNL     1      48.056   9.500  18.623  0.00  0.00    +0.000 A 
ATOM      8  C   UNL     1      48.488   8.214  18.910  0.00  0.00    +0.000 A 
ATOM      9  C   UNL     1      48.816   7.371  17.828  0.00  0.00    +0.000 A 
ENDROOT
BRANCH   1  11
ATOM     10  C   UNL     1      50.972   5.562  19.506  0.00  0.00    +0.000 C 
ATOM     11  C   UNL     1      49.753   5.003  18.737  0.00  0.00    +0.000 C 
ATOM     12  C   UNL     1      50.161   3.683  18.046  0.00  0.00    +0.000 C 
ATOM     13  C   UNL     1      48.669   4.660  19.773  0.00  0.00    +0.000 C 
ENDBRANCH   1  11
BRANCH   3  14
ATOM     14  C   UNL     1      48.999   7.031  14.186  0.00  0.00    +0.000 C 
BRANCH  14  15
ATOM     15  C   UNL     1      47.685   6.565  13.612  0.00  0.00    +0.000 A 
ATOM     16  N   UNL     1      46.797   7.510  13.238  0.00  0.00    +0.000 NA
ATOM     17  C   UNL     1      45.564   7.083  12.893  0.00  0.00    +0.000 A 
ATOM     18  C   UNL     1      45.186   5.756  12.857  0.00  0.00    +0.000 A 
ATOM     19  C   UNL     1      46.190   4.872  13.202  0.00  0.00    +0.000 A 
ATOM     20  N   UNL     1      47.435   5.241  13.572  0.00  0.00    +0.000 NA
BRANCH  18  21
ATOM     21  C   UNL     1      43.792   5.295  12.546  0.00  0.00    +0.000 C 
BRANCH  21  22
ATOM     22  C   UNL     1      43.544   3.813  12.838  0.00  0.00    +0.000 C 
BRANCH  22  23
ATOM     23  C   UNL     1      43.391   3.019  11.562  0.00  0.00    +0.000 C 
ATOM     24  O   UNL     1      43.540   3.463  10.434  0.00  0.00    +0.000 OA
BRANCH  23  25
ATOM     25  O   UNL     1      43.057   1.726  11.794  0.00  0.00    +0.000 OA
ATOM     26  H   UNL     1      43.278   1.409  12.690  0.00  0.00    +0.000 HD
ENDBRANCH  23  25
ENDBRANCH  22  23
ENDBRANCH  21  22
ENDBRANCH  18  21
ENDBRANCH  14  15
ENDBRANCH   3  14
TORSDOF 7
ENDMDL
MODEL 7
REMARK VINA RESULT:    -5.672      3.848      6.357
REMARK INTER + INTRA:          -8.533
REMARK INTER:                  -7.976
REMARK INTRA:                  -0.557
REMARK UNBOUND:                -0.705
REMARK  Name = 
REMARK  10 active torsions:
REMARK  status: ('A' for Active; 'I' for Inactive)
REMARK    1  A    between atoms: C_1  and  C_2
REMARK    2  A    between atoms: C_2  and  C_3
REMARK    3  A    between atoms: C_2  and  C_4
REMARK    4  A    between atoms: C_2  and  C_5
REMARK    5  A    between atoms: N_7  and  C_8
REMARK    6  A    between atoms: C_8  and  C_9
REMARK    7  A    between atoms: C_12  and  C_13
REMARK    8  A    between atoms: C_13  and  C_14
REMARK    9  A    between atoms: C_14  and  C_15
REMARK   10  A    between atoms: C_15  and  O_17
REMARK                            x       y       z     vdW  Elec       q    Type
REMARK                         _______ _______ _______ _____ _____    ______ ____
ROOT
ATOM      1  C   UNL     1      49.253   5.115  17.000  0.00  0.00    +0.000 A 
ATOM      2  C   UNL     1      48.535   5.991  16.202  0.00  0.00    +0.000 A 
ATOM      3  N   UNL     1      49.382   6.925  15.668  0.00  0.00    +0.000 N 
ATOM      4  C   UNL     1      50.673   6.659  16.070  0.00  0.00    +0.000 A 
ATOM      5  C   UNL     1      51.872   7.296  15.754  0.00  0.00    +0.000 A 
ATOM      6  N   UNL     1      53.032   6.849  16.281  0.00  0.00    +0.000 NA
ATOM      7  C   UNL     1      52.995   5.798  17.122  0.00  0.00    +0.000 A 
ATOM      8  C   UNL     1      51.843   5.117  17.482  0.00  0.00    +0.000 A 
ATOM      9  C   UNL     1      50.621   5.550  16.928  0.00  0.00    +0.000 A 
ENDROOT
BRANCH   1  11
ATOM     10  C   UNL     1      47.111   3.872  17.332  0.00  0.00    +0.000 C 
ATOM     11  C   UNL     1      48.608   3.926  17.718  0.00  0.00    +0.000 C 
ATOM     12  C   UNL     1      48.722   4.106  19.249  0.00  0.00    +0.000 C 
ATOM     13  C   UNL     1      49.226   2.562  17.372  0.00  0.00    +0.000 C 
ENDBRANCH   1  11
BRANCH   3  14
ATOM     14  C   UNL     1      48.961   7.986  14.753  0.00  0.00    +0.000 C 
BRANCH  14  15
ATOM     15  C   UNL     1      47.916   7.481  13.792  0.00  0.00    +0.000 A 
ATOM     16  N   UNL     1      46.818   8.243  13.608  0.00  0.00    +0.000 NA
ATOM     17  C   UNL     1      45.816   7.699  12.885  0.00  0.00    +0.000 A 
ATOM     18  C   UNL     1      45.873   6.452  12.297  0.00  0.00    +0.000 A 
ATOM     19  C   UNL     1      47.065   5.785  12.501  0.00  0.00    +0.000 A 
ATOM     20  N   UNL     1      48.095   6.270  13.228  0.00  0.00    +0.000 NA
BRANCH  18  21
ATOM     21  C   UNL     1      44.726   5.824  11.560  0.00  0.00    +0.000 C 
BRANCH  21  22
ATOM     22  C   UNL     1      45.049   4.461  10.945  0.00  0.00    +0.000 C 
BRANCH  22  23
ATOM     23  C   UNL     1      44.215   3.365  11.566  0.00  0.00    +0.000 C 
ATOM     24  O   UNL     1      43.038   3.153  11.323  0.00  0.00    +0.000 OA
BRANCH  23  25
ATOM     25  O   UNL     1      44.919   2.616  12.449  0.00  0.00    +0.000 OA
ATOM     26  H   UNL     1      45.641   3.097  12.896  0.00  0.00    +0.000 HD
ENDBRANCH  23  25
ENDBRANCH  22  23
ENDBRANCH  21  22
ENDBRANCH  18  21
ENDBRANCH  14  15
ENDBRANCH   3  14
TORSDOF 7
ENDMDL
MODEL 8
REMARK VINA RESULT:    -5.581      2.571      4.245
REMARK INTER + INTRA:          -8.407
REMARK INTER:                  -7.947
REMARK INTRA:                  -0.460
REMARK UNBOUND:                -0.705
REMARK  Name = 
REMARK  10 active torsions:
REMARK  status: ('A' for Active; 'I' for Inactive)
REMARK    1  A    between atoms: C_1  and  C_2
REMARK    2  A    between atoms: C_2  and  C_3
REMARK    3  A    between atoms: C_2  and  C_4
REMARK    4  A    between atoms: C_2  and  C_5
REMARK    5  A    between atoms: N_7  and  C_8
REMARK    6  A    between atoms: C_8  and  C_9
REMARK    7  A    between atoms: C_12  and  C_13
REMARK    8  A    between atoms: C_13  and  C_14
REMARK    9  A    between atoms: C_14  and  C_15
REMARK   10  A    between atoms: C_15  and  O_17
REMARK                            x       y       z     vdW  Elec       q    Type
REMARK                         _______ _______ _______ _____ _____    ______ ____
ROOT
ATOM      1  C   UNL     1      49.373   7.571  13.896  0.00  0.00    +0.000 A 
ATOM      2  C   UNL     1      48.357   6.629  13.849  0.00  0.00    +0.000 A 
ATOM      3  N   UNL     1      48.249   6.007  15.064  0.00  0.00    +0.000 N 
ATOM      4  C   UNL     1      49.160   6.553  15.942  0.00  0.00    +0.000 A 
ATOM      5  C   UNL     1      49.396   6.284  17.290  0.00  0.00    +0.000 A 
ATOM      6  N   UNL     1      50.362   6.955  17.951  0.00  0.00    +0.000 NA
ATOM      7  C   UNL     1      51.092   7.865  17.279  0.00  0.00    +0.000 A 
ATOM      8  C   UNL     1      50.916   8.184  15.942  0.00  0.00    +0.000 A 
ATOM      9  C   UNL     1      49.898   7.513  15.232  0.00  0.00    +0.000 A 
ENDROOT
BRANCH   1  11
ATOM     10  C   UNL     1      51.246   8.341  12.433  0.00  0.00    +0.000 C 
ATOM     11  C   UNL     1      49.729   8.469  12.708  0.00  0.00    +0.000 C 
ATOM     12  C   UNL     1      49.406   9.943  13.043  0.00  0.00    +0.000 C 
ATOM     13  C   UNL     1      48.991   8.123  11.405  0.00  0.00    +0.000 C 
ENDBRANCH   1  11
BRANCH   3  14
ATOM     14  C   UNL     1      47.257   4.979  15.374  0.00  0.00    +0.000 C 
BRANCH  14  15
ATOM     15  C   UNL     1      46.535   4.538  14.126  0.00  0.00    +0.000 A 
ATOM     16  N   UNL     1      45.600   5.369  13.620  0.00  0.00    +0.000 NA
ATOM     17  C   UNL     1      44.843   4.888  12.611  0.00  0.00    +0.000 A 
ATOM     18  C   UNL     1      45.002   3.637  12.051  0.00  0.00    +0.000 A 
ATOM     19  C   UNL     1      46.025   2.895  12.607  0.00  0.00    +0.000 A 
ATOM     20  N   UNL     1      46.804   3.315  13.626  0.00  0.00    +0.000 NA
BRANCH  18  21
ATOM     21  C   UNL     1      44.105   3.082  10.982  0.00  0.00    +0.000 C 
BRANCH  21  22
ATOM     22  C   UNL     1      44.808   2.827   9.647  0.00  0.00    +0.000 C 
BRANCH  22  23
ATOM     23  C   UNL     1      44.791   4.058   8.771  0.00  0.00    +0.000 C 
ATOM     24  O   UNL     1      45.697   4.409   8.033  0.00  0.00    +0.000 OA
BRANCH  23  25
ATOM     25  O   UNL     1      43.638   4.760   8.889  0.00  0.00    +0.000 OA
ATOM     26  H   UNL     1      43.030   4.664   8.132  0.00  0.00    +0.000 HD
ENDBRANCH  23  25
ENDBRANCH  22  23
ENDBRANCH  21  22
ENDBRANCH  18  21
ENDBRANCH  14  15
ENDBRANCH   3  14
TORSDOF 7
ENDMDL
MODEL 9
REMARK VINA RESULT:    -5.550      5.162      8.535
REMARK INTER + INTRA:          -8.364
REMARK INTER:                  -7.510
REMARK INTRA:                  -0.855
REMARK UNBOUND:                -0.705
REMARK  Name = 
REMARK  10 active torsions:
REMARK  status: ('A' for Active; 'I' for Inactive)
REMARK    1  A    between atoms: C_1  and  C_2
REMARK    2  A    between atoms: C_2  and  C_3
REMARK    3  A    between atoms: C_2  and  C_4
REMARK    4  A    between atoms: C_2  and  C_5
REMARK    5  A    between atoms: N_7  and  C_8
REMARK    6  A    between atoms: C_8  and  C_9
REMARK    7  A    between atoms: C_12  and  C_13
REMARK    8  A    between atoms: C_13  and  C_14
REMARK    9  A    between atoms: C_14  and  C_15
REMARK   10  A    between atoms: C_15  and  O_17
REMARK                            x       y       z     vdW  Elec       q    Type
REMARK                         _______ _______ _______ _____ _____    ______ ____
ROOT
ATOM      1  C   UNL     1      45.561   6.080  12.154  0.00  0.00    +0.000 A 
ATOM      2  C   UNL     1      46.838   5.847  12.640  0.00  0.00    +0.000 A 
ATOM      3  N   UNL     1      47.524   7.029  12.719  0.00  0.00    +0.000 N 
ATOM      4  C   UNL     1      46.703   8.064  12.327  0.00  0.00    +0.000 A 
ATOM      5  C   UNL     1      46.933   9.438  12.280  0.00  0.00    +0.000 A 
ATOM      6  N   UNL     1      45.961  10.270  11.849  0.00  0.00    +0.000 NA
ATOM      7  C   UNL     1      44.787   9.741  11.455  0.00  0.00    +0.000 A 
ATOM      8  C   UNL     1      44.487   8.388  11.473  0.00  0.00    +0.000 A 
ATOM      9  C   UNL     1      45.478   7.499  11.940  0.00  0.00    +0.000 A 
ENDROOT
BRANCH   1  11
ATOM     10  C   UNL     1      43.340   5.248  12.935  0.00  0.00    +0.000 C 
ATOM     11  C   UNL     1      44.522   4.970  11.979  0.00  0.00    +0.000 C 
ATOM     12  C   UNL     1      45.144   3.601  12.338  0.00  0.00    +0.000 C 
ATOM     13  C   UNL     1      43.951   4.852  10.556  0.00  0.00    +0.000 C 
ENDBRANCH   1  11
BRANCH   3  14
ATOM     14  C   UNL     1      48.893   7.152  13.219  0.00  0.00    +0.000 C 
BRANCH  14  15
ATOM     15  C   UNL     1      48.914   7.153  14.726  0.00  0.00    +0.000 A 
ATOM     16  N   UNL     1      49.137   5.976  15.347  0.00  0.00    +0.000 NA
ATOM     17  C   UNL     1      48.980   5.958  16.688  0.00  0.00    +0.000 A 
ATOM     18  C   UNL     1      48.656   7.066  17.445  0.00  0.00    +0.000 A 
ATOM     19  C   UNL     1      48.509   8.228  16.713  0.00  0.00    +0.000 A 
ATOM     20  N   UNL     1      48.637   8.304  15.371  0.00  0.00    +0.000 NA
BRANCH  18  21
ATOM     21  C   UNL     1      48.408   7.021  18.925  0.00  0.00    +0.000 C 
BRANCH  21  22
ATOM     22  C   UNL     1      47.703   5.749  19.402  0.00  0.00    +0.000 C 
BRANCH  22  23
ATOM     23  C   UNL     1      48.591   4.937  20.315  0.00  0.00    +0.000 C 
ATOM     24  O   UNL     1      49.364   5.400  21.138  0.00  0.00    +0.000 OA
BRANCH  23  25
ATOM     25  O   UNL     1      48.445   3.603  20.126  0.00  0.00    +0.000 OA
ATOM     26  H   UNL     1      48.754   3.056  20.873  0.00  0.00    +0.000 HD
ENDBRANCH  23  25
ENDBRANCH  22  23
ENDBRANCH  21  22
ENDBRANCH  18  21
ENDBRANCH  14  15
ENDBRANCH   3  14
TORSDOF 7
ENDMDL
