MODEL 1
REMARK VINA RESULT:    -9.016      0.000      0.000
REMARK INTER + INTRA:         -13.065
REMARK INTER:                 -12.706
REMARK INTRA:                  -0.359
REMARK UNBOUND:                -0.359
REMARK  Name = 
REMARK  7 active torsions:
REMARK  status: ('A' for Active; 'I' for Inactive)
REMARK    1  A    between atoms: C_2  and  C_4
REMARK    2  A    between atoms: C_7  and  N_8
REMARK    3  A    between atoms: N_8  and  C_9
REMARK    4  A    between atoms: C_9  and  C_10
REMARK    5  A    between atoms: C_14  and  C_15
REMARK    6  A    between atoms: C_19  and  O_20
REMARK    7  A    between atoms: O_20  and  C_21
REMARK                            x       y       z     vdW  Elec       q    Type
REMARK                         _______ _______ _______ _____ _____    ______ ____
ROOT
ATOM      1  C   UNL     1      43.857   5.037  11.207  0.00  0.00    +0.000 C 
ATOM      2  C   UNL     1      43.041   4.057  12.050  0.00  0.00    +0.000 C 
ATOM      3  C   UNL     1      42.638   5.490  12.000  0.00  0.00    +0.000 C 
ENDROOT
BRANCH   1   4
ATOM      4  C   UNL     1      45.219   5.465  11.753  0.00  0.00    +0.000 A 
ATOM      5  C   UNL     1      45.919   6.552  11.208  0.00  0.00    +0.000 A 
ATOM      6  C   UNL     1      47.094   7.021  11.793  0.00  0.00    +0.000 A 
ATOM      7  C   UNL     1      47.588   6.416  12.949  0.00  0.00    +0.000 A 
ATOM      8  C   UNL     1      46.937   5.314  13.526  0.00  0.00    +0.000 A 
ATOM      9  C   UNL     1      45.782   4.835  12.881  0.00  0.00    +0.000 A 
BRANCH   8  10
ATOM     10  C   UNL     1      47.382   4.731  14.807  0.00  0.00    +0.000 A 
ATOM     11  C   UNL     1      47.487   3.346  14.976  0.00  0.00    +0.000 A 
ATOM     12  N   UNL     1      47.913   2.728  16.103  0.00  0.00    +0.000 NA
ATOM     13  C   UNL     1      48.279   3.533  17.121  0.00  0.00    +0.000 A 
ATOM     14  C   UNL     1      48.260   4.920  17.069  0.00  0.00    +0.000 A 
ATOM     15  C   UNL     1      47.779   5.519  15.904  0.00  0.00    +0.000 A 
BRANCH  14  16
ATOM     16  O   UNL     1      48.693   5.569  18.187  0.00  0.00    +0.000 OA
BRANCH  16  17
ATOM     17  C   UNL     1      47.682   5.944  19.108  0.00  0.00    +0.000 C 
ATOM     18  F   UNL     1      46.492   5.477  18.662  0.00  0.00    +0.000 F 
ATOM     19  F   UNL     1      47.944   5.303  20.275  0.00  0.00    +0.000 F 
ENDBRANCH  16  17
ENDBRANCH  14  16
ENDBRANCH   8  10
ENDBRANCH   1   4
BRANCH   1  20
ATOM     20  N   UNL     1      43.807   4.837   9.752  0.00  0.00    +0.000 N 
ATOM     21  H   UNL     1      42.889   4.691   9.330  0.00  0.00    +0.000 HD
BRANCH  20  25
ATOM     22  C   UNL     1      46.425   2.380   7.752  0.00  0.00    +0.000 A 
ATOM     23  C   UNL     1      46.412   3.749   7.548  0.00  0.00    +0.000 A 
ATOM     24  N   UNL     1      45.547   4.575   8.203  0.00  0.00    +0.000 NA
ATOM     25  C   UNL     1      44.694   3.988   9.070  0.00  0.00    +0.000 A 
ATOM     26  C   UNL     1      44.747   2.606   9.280  0.00  0.00    +0.000 A 
ATOM     27  N   UNL     1      45.591   1.764   8.631  0.00  0.00    +0.000 NA
BRANCH  22  29
ATOM     28  N   UNL     1      48.485   2.120   6.525  0.00  0.00    +0.000 N 
ATOM     29  C   UNL     1      47.351   1.504   6.981  0.00  0.00    +0.000 C 
ATOM     30  O   UNL     1      47.117   0.320   6.776  0.00  0.00    +0.000 OA
ATOM     31  H   UNL     1      49.178   1.588   6.019  0.00  0.00    +0.000 HD
ATOM     32  H   UNL     1      48.647   3.102   6.733  0.00  0.00    +0.000 HD
ENDBRANCH  22  29
ENDBRANCH  20  25
ENDBRANCH   1  20
TORSDOF 7
ENDMDL
MODEL 2
REMARK VINA RESULT:    -8.176      4.013      8.749
REMARK INTER + INTRA:         -11.882
REMARK INTER:                 -10.803
REMARK INTRA:                  -1.078
REMARK UNBOUND:                -0.359
REMARK  Name = 
REMARK  7 active torsions:
REMARK  status: ('A' for Active; 'I' for Inactive)
REMARK    1  A    between atoms: C_2  and  C_4
REMARK    2  A    between atoms: C_7  and  N_8
REMARK    3  A    between atoms: N_8  and  C_9
REMARK    4  A    between atoms: C_9  and  C_10
REMARK    5  A    between atoms: C_14  and  C_15
REMARK    6  A    between atoms: C_19  and  O_20
REMARK    7  A    between atoms: O_20  and  C_21
REMARK                            x       y       z     vdW  Elec       q    Type
REMARK                         _______ _______ _______ _____ _____    ______ ____
ROOT
ATOM      1  C   UNL     1      48.674   8.061  12.588  0.00  0.00    +0.000 C 
ATOM      2  C   UNL     1      49.490   8.800  11.529  0.00  0.00    +0.000 C 
ATOM      3  C   UNL     1      49.051   9.527  12.751  0.00  0.00    +0.000 C 
ENDROOT
BRANCH   1   4
ATOM      4  C   UNL     1      47.208   7.769  12.265  0.00  0.00    +0.000 A 
ATOM      5  C   UNL     1      46.207   8.732  12.466  0.00  0.00    +0.000 A 
ATOM      6  C   UNL     1      44.897   8.510  12.046  0.00  0.00    +0.000 A 
ATOM      7  C   UNL     1      44.563   7.317  11.403  0.00  0.00    +0.000 A 
ATOM      8  C   UNL     1      45.521   6.313  11.193  0.00  0.00    +0.000 A 
ATOM      9  C   UNL     1      46.821   6.550  11.674  0.00  0.00    +0.000 A 
BRANCH   8  10
ATOM     10  C   UNL     1      45.213   5.094  10.420  0.00  0.00    +0.000 A 
ATOM     11  C   UNL     1      44.451   4.059  10.971  0.00  0.00    +0.000 A 
ATOM     12  N   UNL     1      44.097   2.922  10.326  0.00  0.00    +0.000 NA
ATOM     13  C   UNL     1      44.506   2.812   9.046  0.00  0.00    +0.000 A 
ATOM     14  C   UNL     1      45.233   3.782   8.370  0.00  0.00    +0.000 A 
ATOM     15  C   UNL     1      45.610   4.923   9.080  0.00  0.00    +0.000 A 
BRANCH  14  16
ATOM     16  O   UNL     1      45.535   3.509   7.069  0.00  0.00    +0.000 OA
BRANCH  16  17
ATOM     17  C   UNL     1      46.907   3.282   6.793  0.00  0.00    +0.000 C 
ATOM     18  F   UNL     1      47.313   2.186   7.476  0.00  0.00    +0.000 F 
ATOM     19  F   UNL     1      47.006   2.983   5.473  0.00  0.00    +0.000 F 
ENDBRANCH  16  17
ENDBRANCH  14  16
ENDBRANCH   8  10
ENDBRANCH   1   4
BRANCH   1  20
ATOM     20  N   UNL     1      49.373   6.993  13.317  0.00  0.00    +0.000 N 
ATOM     21  H   UNL     1      49.548   6.121  12.816  0.00  0.00    +0.000 HD
BRANCH  20  25
ATOM     22  C   UNL     1      48.417   5.904  17.162  0.00  0.00    +0.000 A 
ATOM     23  C   UNL     1      47.977   5.178  16.070  0.00  0.00    +0.000 A 
ATOM     24  N   UNL     1      48.285   5.529  14.789  0.00  0.00    +0.000 NA
ATOM     25  C   UNL     1      49.048   6.633  14.634  0.00  0.00    +0.000 A 
ATOM     26  C   UNL     1      49.504   7.333  15.756  0.00  0.00    +0.000 A 
ATOM     27  N   UNL     1      49.201   7.008  17.038  0.00  0.00    +0.000 NA
BRANCH  22  29
ATOM     28  N   UNL     1      46.669   5.404  18.748  0.00  0.00    +0.000 N 
ATOM     29  C   UNL     1      48.018   5.518  18.545  0.00  0.00    +0.000 C 
ATOM     30  O   UNL     1      48.837   5.313  19.431  0.00  0.00    +0.000 OA
ATOM     31  H   UNL     1      46.319   5.117  19.650  0.00  0.00    +0.000 HD
ATOM     32  H   UNL     1      46.026   5.567  17.978  0.00  0.00    +0.000 HD
ENDBRANCH  22  29
ENDBRANCH  20  25
ENDBRANCH   1  20
TORSDOF 7
ENDMDL
MODEL 3
REMARK VINA RESULT:    -7.797      3.986      8.403
REMARK INTER + INTRA:         -11.347
REMARK INTER:                 -11.427
REMARK INTRA:                   0.080
REMARK UNBOUND:                -0.359
REMARK  Name = 
REMARK  7 active torsions:
REMARK  status: ('A' for Active; 'I' for Inactive)
REMARK    1  A    between atoms: C_2  and  C_4
REMARK    2  A    between atoms: C_7  and  N_8
REMARK    3  A    between atoms: N_8  and  C_9
REMARK    4  A    between atoms: C_9  and  C_10
REMARK    5  A    between atoms: C_14  and  C_15
REMARK    6  A    between atoms: C_19  and  O_20
REMARK    7  A    between atoms: O_20  and  C_21
REMARK                            x       y       z     vdW  Elec       q    Type
REMARK                         _______ _______ _______ _____ _____    ______ ____
ROOT
ATOM      1  C   UNL     1      48.622   7.931  12.778  0.00  0.00    +0.000 C 
ATOM      2  C   UNL     1      49.713   7.376  11.864  0.00  0.00    +0.000 C 
ATOM      3  C   UNL     1      49.407   8.833  11.835  0.00  0.00    +0.000 C 
ENDROOT
BRANCH   1   4
ATOM      4  C   UNL     1      47.171   7.644  12.393  0.00  0.00    +0.000 A 
ATOM      5  C   UNL     1      46.153   8.586  12.613  0.00  0.00    +0.000 A 
ATOM      6  C   UNL     1      44.859   8.374  12.139  0.00  0.00    +0.000 A 
ATOM      7  C   UNL     1      44.560   7.217  11.421  0.00  0.00    +0.000 A 
ATOM      8  C   UNL     1      45.535   6.235  11.187  0.00  0.00    +0.000 A 
ATOM      9  C   UNL     1      46.817   6.457  11.722  0.00  0.00    +0.000 A 
BRANCH   8  10
ATOM     10  C   UNL     1      45.265   5.058  10.337  0.00  0.00    +0.000 A 
ATOM     11  C   UNL     1      44.545   3.962  10.824  0.00  0.00    +0.000 A 
ATOM     12  N   UNL     1      44.228   2.858  10.108  0.00  0.00    +0.000 NA
ATOM     13  C   UNL     1      44.631   2.845   8.822  0.00  0.00    +0.000 A 
ATOM     14  C   UNL     1      45.319   3.883   8.207  0.00  0.00    +0.000 A 
ATOM     15  C   UNL     1      45.659   4.988   8.988  0.00  0.00    +0.000 A 
BRANCH  14  16
ATOM     16  O   UNL     1      45.621   3.705   6.890  0.00  0.00    +0.000 OA
BRANCH  16  17
ATOM     17  C   UNL     1      46.587   2.705   6.612  0.00  0.00    +0.000 C 
ATOM     18  F   UNL     1      46.811   2.675   5.277  0.00  0.00    +0.000 F 
ATOM     19  F   UNL     1      47.748   3.094   7.198  0.00  0.00    +0.000 F 
ENDBRANCH  16  17
ENDBRANCH  14  16
ENDBRANCH   8  10
ENDBRANCH   1   4
BRANCH   1  20
ATOM     20  N   UNL     1      48.900   7.886  14.221  0.00  0.00    +0.000 N 
ATOM     21  H   UNL     1      49.812   8.222  14.532  0.00  0.00    +0.000 HD
BRANCH  20  25
ATOM     22  C   UNL     1      48.010   4.646  16.587  0.00  0.00    +0.000 A 
ATOM     23  C   UNL     1      48.568   5.798  17.112  0.00  0.00    +0.000 A 
ATOM     24  N   UNL     1      48.870   6.879  16.338  0.00  0.00    +0.000 NA
ATOM     25  C   UNL     1      48.597   6.772  15.019  0.00  0.00    +0.000 A 
ATOM     26  C   UNL     1      48.005   5.607  14.518  0.00  0.00    +0.000 A 
ATOM     27  N   UNL     1      47.707   4.516  15.267  0.00  0.00    +0.000 NA
BRANCH  22  29
ATOM     28  N   UNL     1      48.782   3.086  18.257  0.00  0.00    +0.000 N 
ATOM     29  C   UNL     1      47.739   3.466  17.455  0.00  0.00    +0.000 C 
ATOM     30  O   UNL     1      46.663   2.884  17.456  0.00  0.00    +0.000 OA
ATOM     31  H   UNL     1      48.669   2.314  18.897  0.00  0.00    +0.000 HD
ATOM     32  H   UNL     1      49.653   3.610  18.236  0.00  0.00    +0.000 HD
ENDBRANCH  22  29
ENDBRANCH  20  25
ENDBRANCH   1  20
TORSDOF 7
ENDMDL
MODEL 4
REMARK VINA RESULT:    -7.716      1.952      2.528
REMARK INTER + INTRA:         -11.233
REMARK INTER:                 -11.047
REMARK INTRA:                  -0.186
REMARK UNBOUND:                -0.359
REMARK  Name = 
REMARK  7 active torsions:
REMARK  status: ('A' for Active; 'I' for Inactive)
REMARK    1  A    between atoms: C_2  and  C_4
REMARK    2  A    between atoms: C_7  and  N_8
REMARK    3  A    between atoms: N_8  and  C_9
REMARK    4  A    between atoms: C_9  and  C_10
REMARK    5  A    between atoms: C_14  and  C_15
REMARK    6  A    between atoms: C_19  and  O_20
REMARK    7  A    between atoms: O_20  and  C_21
REMARK                            x       y       z     vdW  Elec       q    Type
REMARK                         _______ _______ _______ _____ _____    ______ ____
ROOT
ATOM      1  C   UNL     1      44.043   5.049  11.302  0.00  0.00    +0.000 C 
ATOM      2  C   UNL     1      44.324   3.883  12.248  0.00  0.00    +0.000 C 
ATOM      3  C   UNL     1      43.054   4.647  12.388  0.00  0.00    +0.000 C 
ENDROOT
BRANCH   1   4
ATOM      4  C   UNL     1      44.819   6.345  11.536  0.00  0.00    +0.000 A 
ATOM      5  C   UNL     1      44.264   7.597  11.231  0.00  0.00    +0.000 A 
ATOM      6  C   UNL     1      44.921   8.779  11.570  0.00  0.00    +0.000 A 
ATOM      7  C   UNL     1      46.146   8.731  12.236  0.00  0.00    +0.000 A 
ATOM      8  C   UNL     1      46.753   7.506  12.550  0.00  0.00    +0.000 A 
ATOM      9  C   UNL     1      46.088   6.333  12.149  0.00  0.00    +0.000 A 
BRANCH   8  10
ATOM     10  C   UNL     1      47.992   7.434  13.349  0.00  0.00    +0.000 A 
ATOM     11  C   UNL     1      49.223   7.830  12.815  0.00  0.00    +0.000 A 
ATOM     12  N   UNL     1      50.400   7.825  13.484  0.00  0.00    +0.000 NA
ATOM     13  C   UNL     1      50.354   7.423  14.770  0.00  0.00    +0.000 A 
ATOM     14  C   UNL     1      49.193   7.042  15.429  0.00  0.00    +0.000 A 
ATOM     15  C   UNL     1      48.006   7.025  14.696  0.00  0.00    +0.000 A 
BRANCH  14  16
ATOM     16  O   UNL     1      49.334   6.692  16.739  0.00  0.00    +0.000 OA
BRANCH  16  17
ATOM     17  C   UNL     1      49.565   5.315  16.984  0.00  0.00    +0.000 C 
ATOM     18  F   UNL     1      49.724   5.130  18.316  0.00  0.00    +0.000 F 
ATOM     19  F   UNL     1      48.438   4.649  16.626  0.00  0.00    +0.000 F 
ENDBRANCH  16  17
ENDBRANCH  14  16
ENDBRANCH   8  10
ENDBRANCH   1   4
BRANCH   1  20
ATOM     20  N   UNL     1      43.830   4.700   9.890  0.00  0.00    +0.000 N 
ATOM     21  H   UNL     1      42.922   4.309   9.636  0.00  0.00    +0.000 HD
BRANCH  20  25
ATOM     22  C   UNL     1      46.646   2.718   7.647  0.00  0.00    +0.000 A 
ATOM     23  C   UNL     1      46.544   4.098   7.632  0.00  0.00    +0.000 A 
ATOM     24  N   UNL     1      45.613   4.768   8.369  0.00  0.00    +0.000 NA
ATOM     25  C   UNL     1      44.785   4.013   9.124  0.00  0.00    +0.000 A 
ATOM     26  C   UNL     1      44.928   2.622   9.144  0.00  0.00    +0.000 A 
ATOM     27  N   UNL     1      45.839   1.934   8.411  0.00  0.00    +0.000 NA
BRANCH  22  29
ATOM     28  N   UNL     1      48.248   2.805   5.846  0.00  0.00    +0.000 N 
ATOM     29  C   UNL     1      47.643   2.018   6.790  0.00  0.00    +0.000 C 
ATOM     30  O   UNL     1      47.907   0.831   6.924  0.00  0.00    +0.000 OA
ATOM     31  H   UNL     1      48.957   2.413   5.244  0.00  0.00    +0.000 HD
ATOM     32  H   UNL     1      48.010   3.791   5.781  0.00  0.00    +0.000 HD
ENDBRANCH  22  29
ENDBRANCH  20  25
ENDBRANCH   1  20
TORSDOF 7
ENDMDL
MODEL 5
REMARK VINA RESULT:    -7.222      4.282      8.742
REMARK INTER + INTRA:         -10.536
REMARK INTER:                 -10.326
REMARK INTRA:                  -0.210
REMARK UNBOUND:                -0.359
REMARK  Name = 
REMARK  7 active torsions:
REMARK  status: ('A' for Active; 'I' for Inactive)
REMARK    1  A    between atoms: C_2  and  C_4
REMARK    2  A    between atoms: C_7  and  N_8
REMARK    3  A    between atoms: N_8  and  C_9
REMARK    4  A    between atoms: C_9  and  C_10
REMARK    5  A    between atoms: C_14  and  C_15
REMARK    6  A    between atoms: C_19  and  O_20
REMARK    7  A    between atoms: O_20  and  C_21
REMARK                            x       y       z     vdW  Elec       q    Type
REMARK                         _______ _______ _______ _____ _____    ______ ____
ROOT
ATOM      1  C   UNL     1      48.248   4.573  16.961  0.00  0.00    +0.000 C 
ATOM      2  C   UNL     1      47.202   4.545  18.074  0.00  0.00    +0.000 C 
ATOM      3  C   UNL     1      47.472   3.306  17.294  0.00  0.00    +0.000 C 
ENDROOT
BRANCH   1   4
ATOM      4  C   UNL     1      47.868   5.279  15.659  0.00  0.00    +0.000 A 
ATOM      5  C   UNL     1      48.692   6.263  15.091  0.00  0.00    +0.000 A 
ATOM      6  C   UNL     1      48.409   6.807  13.839  0.00  0.00    +0.000 A 
ATOM      7  C   UNL     1      47.297   6.366  13.122  0.00  0.00    +0.000 A 
ATOM      8  C   UNL     1      46.429   5.397  13.651  0.00  0.00    +0.000 A 
ATOM      9  C   UNL     1      46.717   4.906  14.938  0.00  0.00    +0.000 A 
BRANCH   8  10
ATOM     10  C   UNL     1      45.312   4.840  12.863  0.00  0.00    +0.000 A 
ATOM     11  C   UNL     1      44.039   5.419  12.901  0.00  0.00    +0.000 A 
ATOM     12  N   UNL     1      42.968   4.993  12.192  0.00  0.00    +0.000 NA
ATOM     13  C   UNL     1      43.174   3.940  11.375  0.00  0.00    +0.000 A 
ATOM     14  C   UNL     1      44.396   3.300  11.217  0.00  0.00    +0.000 A 
ATOM     15  C   UNL     1      45.467   3.745  11.993  0.00  0.00    +0.000 A 
BRANCH  14  16
ATOM     16  O   UNL     1      44.423   2.269  10.325  0.00  0.00    +0.000 OA
BRANCH  16  17
ATOM     17  C   UNL     1      45.195   2.490   9.157  0.00  0.00    +0.000 C 
ATOM     18  F   UNL     1      45.670   1.300   8.718  0.00  0.00    +0.000 F 
ATOM     19  F   UNL     1      44.352   2.954   8.200  0.00  0.00    +0.000 F 
ENDBRANCH  16  17
ENDBRANCH  14  16
ENDBRANCH   8  10
ENDBRANCH   1   4
BRANCH   1  20
ATOM     20  N   UNL     1      49.642   4.765  17.386  0.00  0.00    +0.000 N 
ATOM     21  H   UNL     1      50.155   5.545  16.972  0.00  0.00    +0.000 HD
BRANCH  20  25
ATOM     22  C   UNL     1      52.304   1.649  17.679  0.00  0.00    +0.000 A 
ATOM     23  C   UNL     1      51.108   1.521  16.996  0.00  0.00    +0.000 A 
ATOM     24  N   UNL     1      50.215   2.546  16.893  0.00  0.00    +0.000 NA
ATOM     25  C   UNL     1      50.556   3.706  17.496  0.00  0.00    +0.000 A 
ATOM     26  C   UNL     1      51.785   3.817  18.156  0.00  0.00    +0.000 A 
ATOM     27  N   UNL     1      52.683   2.808  18.280  0.00  0.00    +0.000 NA
BRANCH  22  29
ATOM     28  N   UNL     1      53.503  -0.171  16.645  0.00  0.00    +0.000 N 
ATOM     29  C   UNL     1      53.233   0.491  17.812  0.00  0.00    +0.000 C 
ATOM     30  O   UNL     1      53.723   0.161  18.884  0.00  0.00    +0.000 OA
ATOM     31  H   UNL     1      54.147  -0.949  16.645  0.00  0.00    +0.000 HD
ATOM     32  H   UNL     1      53.088   0.148  15.774  0.00  0.00    +0.000 HD
ENDBRANCH  22  29
ENDBRANCH  20  25
ENDBRANCH   1  20
TORSDOF 7
ENDMDL
MODEL 6
REMARK VINA RESULT:    -6.910      4.154      8.142
REMARK INTER + INTRA:         -10.098
REMARK INTER:                  -9.813
REMARK INTRA:                  -0.284
REMARK UNBOUND:                -0.359
REMARK  Name = 
REMARK  7 active torsions:
REMARK  status: ('A' for Active; 'I' for Inactive)
REMARK    1  A    between atoms: C_2  and  C_4
REMARK    2  A    between atoms: C_7  and  N_8
REMARK    3  A    between atoms: N_8  and  C_9
REMARK    4  A    between atoms: C_9  and  C_10
REMARK    5  A    between atoms: C_14  and  C_15
REMARK    6  A    between atoms: C_19  and  O_20
REMARK    7  A    between atoms: O_20  and  C_21
REMARK                            x       y       z     vdW  Elec       q    Type
REMARK                         _______ _______ _______ _____ _____    ______ ____
ROOT
ATOM      1  C   UNL     1      48.692   8.608  16.242  0.00  0.00    +0.000 C 
ATOM      2  C   UNL     1      49.899   9.438  16.678  0.00  0.00    +0.000 C 
ATOM      3  C   UNL     1      48.563  10.088  16.578  0.00  0.00    +0.000 C 
ENDROOT
BRANCH   1   4
ATOM      4  C   UNL     1      48.595   8.238  14.762  0.00  0.00    +0.000 A 
ATOM      5  C   UNL     1      49.520   8.720  13.823  0.00  0.00    +0.000 A 
ATOM      6  C   UNL     1      49.507   8.273  12.502  0.00  0.00    +0.000 A 
ATOM      7  C   UNL     1      48.571   7.322  12.096  0.00  0.00    +0.000 A 
ATOM      8  C   UNL     1      47.612   6.820  12.990  0.00  0.00    +0.000 A 
ATOM      9  C   UNL     1      47.622   7.328  14.301  0.00  0.00    +0.000 A 
BRANCH   8  10
ATOM     10  C   UNL     1      46.687   5.735  12.608  0.00  0.00    +0.000 A 
ATOM     11  C   UNL     1      46.357   4.714  13.506  0.00  0.00    +0.000 A 
ATOM     12  N   UNL     1      45.498   3.700  13.251  0.00  0.00    +0.000 NA
ATOM     13  C   UNL     1      44.910   3.706  12.037  0.00  0.00    +0.000 A 
ATOM     14  C   UNL     1      45.122   4.681  11.071  0.00  0.00    +0.000 A 
ATOM     15  C   UNL     1      46.042   5.690  11.358  0.00  0.00    +0.000 A 
BRANCH  14  16
ATOM     16  O   UNL     1      44.419   4.539   9.912  0.00  0.00    +0.000 OA
BRANCH  16  17
ATOM     17  C   UNL     1      44.900   3.546   9.022  0.00  0.00    +0.000 C 
ATOM     18  F   UNL     1      44.144   2.431   9.165  0.00  0.00    +0.000 F 
ATOM     19  F   UNL     1      44.693   4.002   7.761  0.00  0.00    +0.000 F 
ENDBRANCH  16  17
ENDBRANCH  14  16
ENDBRANCH   8  10
ENDBRANCH   1   4
BRANCH   1  20
ATOM     20  N   UNL     1      48.257   7.558  17.174  0.00  0.00    +0.000 N 
ATOM     21  H   UNL     1      48.189   7.808  18.161  0.00  0.00    +0.000 HD
BRANCH  20  25
ATOM     22  C   UNL     1      49.693   3.711  17.032  0.00  0.00    +0.000 A 
ATOM     23  C   UNL     1      48.337   3.982  16.999  0.00  0.00    +0.000 A 
ATOM     24  N   UNL     1      47.847   5.254  17.047  0.00  0.00    +0.000 NA
ATOM     25  C   UNL     1      48.758   6.248  17.131  0.00  0.00    +0.000 A 
ATOM     26  C   UNL     1      50.124   5.948  17.134  0.00  0.00    +0.000 A 
ATOM     27  N   UNL     1      50.633   4.691  17.098  0.00  0.00    +0.000 NA
BRANCH  22  29
ATOM     28  N   UNL     1      51.038   1.989  18.055  0.00  0.00    +0.000 N 
ATOM     29  C   UNL     1      50.189   2.306  17.028  0.00  0.00    +0.000 C 
ATOM     30  O   UNL     1      49.859   1.495  16.173  0.00  0.00    +0.000 OA
ATOM     31  H   UNL     1      51.395   1.049  18.140  0.00  0.00    +0.000 HD
ATOM     32  H   UNL     1      51.272   2.690  18.753  0.00  0.00    +0.000 HD
ENDBRANCH  22  29
ENDBRANCH  20  25
ENDBRANCH   1  20
TORSDOF 7
ENDMDL
MODEL 7
REMARK VINA RESULT:    -6.588      5.281      7.905
REMARK INTER + INTRA:          -9.643
REMARK INTER:                  -8.807
REMARK INTRA:                  -0.836
REMARK UNBOUND:                -0.359
REMARK  Name = 
REMARK  7 active torsions:
REMARK  status: ('A' for Active; 'I' for Inactive)
REMARK    1  A    between atoms: C_2  and  C_4
REMARK    2  A    between atoms: C_7  and  N_8
REMARK    3  A    between atoms: N_8  and  C_9
REMARK    4  A    between atoms: C_9  and  C_10
REMARK    5  A    between atoms: C_14  and  C_15
REMARK    6  A    between atoms: C_19  and  O_20
REMARK    7  A    between atoms: O_20  and  C_21
REMARK                            x       y       z     vdW  Elec       q    Type
REMARK                         _______ _______ _______ _____ _____    ______ ____
ROOT
ATOM      1  C   UNL     1      48.444   8.028  13.567  0.00  0.00    +0.000 C 
ATOM      2  C   UNL     1      48.494   8.020  15.094  0.00  0.00    +0.000 C 
ATOM      3  C   UNL     1      48.952   6.819  14.342  0.00  0.00    +0.000 C 
ENDROOT
BRANCH   1   4
ATOM      4  C   UNL     1      47.070   7.885  12.911  0.00  0.00    +0.000 A 
ATOM      5  C   UNL     1      46.223   8.990  12.735  0.00  0.00    +0.000 A 
ATOM      6  C   UNL     1      45.032   8.880  12.018  0.00  0.00    +0.000 A 
ATOM      7  C   UNL     1      44.671   7.659  11.449  0.00  0.00    +0.000 A 
ATOM      8  C   UNL     1      45.473   6.518  11.609  0.00  0.00    +0.000 A 
ATOM      9  C   UNL     1      46.641   6.652  12.380  0.00  0.00    +0.000 A 
BRANCH   8  10
ATOM     10  C   UNL     1      45.162   5.247  10.924  0.00  0.00    +0.000 A 
ATOM     11  C   UNL     1      44.601   4.169  11.616  0.00  0.00    +0.000 A 
ATOM     12  N   UNL     1      44.259   2.982  11.063  0.00  0.00    +0.000 NA
ATOM     13  C   UNL     1      44.466   2.860   9.736  0.00  0.00    +0.000 A 
ATOM     14  C   UNL     1      44.980   3.866   8.929  0.00  0.00    +0.000 A 
ATOM     15  C   UNL     1      45.355   5.062   9.542  0.00  0.00    +0.000 A 
BRANCH  14  16
ATOM     16  O   UNL     1      45.094   3.572   7.603  0.00  0.00    +0.000 OA
BRANCH  16  17
ATOM     17  C   UNL     1      46.400   3.248   7.157  0.00  0.00    +0.000 C 
ATOM     18  F   UNL     1      47.207   4.316   7.361  0.00  0.00    +0.000 F 
ATOM     19  F   UNL     1      46.860   2.249   7.953  0.00  0.00    +0.000 F 
ENDBRANCH  16  17
ENDBRANCH  14  16
ENDBRANCH   8  10
ENDBRANCH   1   4
BRANCH   1  20
ATOM     20  N   UNL     1      49.359   8.960  12.894  0.00  0.00    +0.000 N 
ATOM     21  H   UNL     1      48.942   9.681  12.304  0.00  0.00    +0.000 HD
BRANCH  20  25
ATOM     22  C   UNL     1      52.794   7.730  11.003  0.00  0.00    +0.000 A 
ATOM     23  C   UNL     1      52.832   8.488  12.159  0.00  0.00    +0.000 A 
ATOM     24  N   UNL     1      51.700   8.905  12.795  0.00  0.00    +0.000 NA
ATOM     25  C   UNL     1      50.526   8.538  12.237  0.00  0.00    +0.000 A 
ATOM     26  C   UNL     1      50.515   7.747  11.084  0.00  0.00    +0.000 A 
ATOM     27  N   UNL     1      51.627   7.331  10.428  0.00  0.00    +0.000 NA
BRANCH  22  29
ATOM     28  N   UNL     1      55.090   8.216  10.447  0.00  0.00    +0.000 N 
ATOM     29  C   UNL     1      54.051   7.335  10.308  0.00  0.00    +0.000 C 
ATOM     30  O   UNL     1      54.150   6.298   9.666  0.00  0.00    +0.000 OA
ATOM     31  H   UNL     1      55.986   8.007  10.031  0.00  0.00    +0.000 HD
ATOM     32  H   UNL     1      54.969   9.058  11.004  0.00  0.00    +0.000 HD
ENDBRANCH  22  29
ENDBRANCH  20  25
ENDBRANCH   1  20
TORSDOF 7
ENDMDL
MODEL 8
REMARK VINA RESULT:    -6.524      3.998      5.783
REMARK INTER + INTRA:          -9.553
REMARK INTER:                  -9.129
REMARK INTRA:                  -0.424
REMARK UNBOUND:                -0.359
REMARK  Name = 
REMARK  7 active torsions:
REMARK  status: ('A' for Active; 'I' for Inactive)
REMARK    1  A    between atoms: C_2  and  C_4
REMARK    2  A    between atoms: C_7  and  N_8
REMARK    3  A    between atoms: N_8  and  C_9
REMARK    4  A    between atoms: C_9  and  C_10
REMARK    5  A    between atoms: C_14  and  C_15
REMARK    6  A    between atoms: C_19  and  O_20
REMARK    7  A    between atoms: O_20  and  C_21
REMARK                            x       y       z     vdW  Elec       q    Type
REMARK                         _______ _______ _______ _____ _____    ______ ____
ROOT
ATOM      1  C   UNL     1      49.233   8.026  13.108  0.00  0.00    +0.000 C 
ATOM      2  C   UNL     1      48.835   9.111  12.107  0.00  0.00    +0.000 C 
ATOM      3  C   UNL     1      50.278   8.820  12.335  0.00  0.00    +0.000 C 
ENDROOT
BRANCH   1   4
ATOM      4  C   UNL     1      49.091   8.358  14.593  0.00  0.00    +0.000 A 
ATOM      5  C   UNL     1      48.778   9.656  15.028  0.00  0.00    +0.000 A 
ATOM      6  C   UNL     1      48.518   9.924  16.371  0.00  0.00    +0.000 A 
ATOM      7  C   UNL     1      48.554   8.891  17.309  0.00  0.00    +0.000 A 
ATOM      8  C   UNL     1      48.878   7.579  16.931  0.00  0.00    +0.000 A 
ATOM      9  C   UNL     1      49.184   7.353  15.576  0.00  0.00    +0.000 A 
BRANCH   8  10
ATOM     10  C   UNL     1      48.814   6.456  17.887  0.00  0.00    +0.000 A 
ATOM     11  C   UNL     1      48.491   6.666  19.231  0.00  0.00    +0.000 A 
ATOM     12  N   UNL     1      48.381   5.695  20.168  0.00  0.00    +0.000 NA
ATOM     13  C   UNL     1      48.584   4.431  19.743  0.00  0.00    +0.000 A 
ATOM     14  C   UNL     1      48.873   4.084  18.430  0.00  0.00    +0.000 A 
ATOM     15  C   UNL     1      49.014   5.117  17.502  0.00  0.00    +0.000 A 
BRANCH  14  16
ATOM     16  O   UNL     1      49.019   2.752  18.179  0.00  0.00    +0.000 OA
BRANCH  16  17
ATOM     17  C   UNL     1      49.791   2.425  17.036  0.00  0.00    +0.000 C 
ATOM     18  F   UNL     1      50.730   1.516  17.390  0.00  0.00    +0.000 F 
ATOM     19  F   UNL     1      48.963   1.812  16.153  0.00  0.00    +0.000 F 
ENDBRANCH  16  17
ENDBRANCH  14  16
ENDBRANCH   8  10
ENDBRANCH   1   4
BRANCH   1  20
ATOM     20  N   UNL     1      48.878   6.647  12.744  0.00  0.00    +0.000 N 
ATOM     21  H   UNL     1      49.254   6.283  11.868  0.00  0.00    +0.000 HD
BRANCH  20  25
ATOM     22  C   UNL     1      45.065   5.155  13.091  0.00  0.00    +0.000 A 
ATOM     23  C   UNL     1      46.159   4.482  13.606  0.00  0.00    +0.000 A 
ATOM     24  N   UNL     1      47.429   4.965  13.495  0.00  0.00    +0.000 NA
ATOM     25  C   UNL     1      47.572   6.144  12.853  0.00  0.00    +0.000 A 
ATOM     26  C   UNL     1      46.446   6.819  12.368  0.00  0.00    +0.000 A 
ATOM     27  N   UNL     1      45.176   6.352  12.456  0.00  0.00    +0.000 NA
BRANCH  22  29
ATOM     28  N   UNL     1      42.674   5.475  13.074  0.00  0.00    +0.000 N 
ATOM     29  C   UNL     1      43.697   4.572  13.187  0.00  0.00    +0.000 C 
ATOM     30  O   UNL     1      43.502   3.375  13.349  0.00  0.00    +0.000 OA
ATOM     31  H   UNL     1      41.717   5.157  13.099  0.00  0.00    +0.000 HD
ATOM     32  H   UNL     1      42.882   6.459  12.923  0.00  0.00    +0.000 HD
ENDBRANCH  22  29
ENDBRANCH  20  25
ENDBRANCH   1  20
TORSDOF 7
ENDMDL
MODEL 9
REMARK VINA RESULT:    -6.344      5.009      7.827
REMARK INTER + INTRA:          -9.299
REMARK INTER:                  -8.352
REMARK INTRA:                  -0.947
REMARK UNBOUND:                -0.359
REMARK  Name = 
REMARK  7 active torsions:
REMARK  status: ('A' for Active; 'I' for Inactive)
REMARK    1  A    between atoms: C_2  and  C_4
REMARK    2  A    between atoms: C_7  and  N_8
REMARK    3  A    between atoms: N_8  and  C_9
REMARK    4  A    between atoms: C_9  and  C_10
REMARK    5  A    between atoms: C_14  and  C_15
REMARK    6  A    between atoms: C_19  and  O_20
REMARK    7  A    between atoms: O_20  and  C_21
REMARK                            x       y       z     vdW  Elec       q    Type
REMARK                         _______ _______ _______ _____ _____    ______ ____
ROOT
ATOM      1  C   UNL     1      46.134   4.834  13.580  0.00  0.00    +0.000 C 
ATOM      2  C   UNL     1      44.969   4.116  12.900  0.00  0.00    +0.000 C 
ATOM      3  C   UNL     1      46.356   3.611  12.698  0.00  0.00    +0.000 C 
ENDROOT
BRANCH   1   4
ATOM      4  C   UNL     1      46.565   6.179  12.996  0.00  0.00    +0.000 A 
ATOM      5  C   UNL     1      45.646   7.222  12.802  0.00  0.00    +0.000 A 
ATOM      6  C   UNL     1      46.067   8.488  12.396  0.00  0.00    +0.000 A 
ATOM      7  C   UNL     1      47.423   8.739  12.187  0.00  0.00    +0.000 A 
ATOM      8  C   UNL     1      48.382   7.727  12.349  0.00  0.00    +0.000 A 
ATOM      9  C   UNL     1      47.918   6.450  12.711  0.00  0.00    +0.000 A 
BRANCH   8  10
ATOM     10  C   UNL     1      49.828   8.002  12.239  0.00  0.00    +0.000 A 
ATOM     11  C   UNL     1      50.616   8.207  13.377  0.00  0.00    +0.000 A 
ATOM     12  N   UNL     1      51.950   8.434  13.370  0.00  0.00    +0.000 NA
ATOM     13  C   UNL     1      52.548   8.440  12.162  0.00  0.00    +0.000 A 
ATOM     14  C   UNL     1      51.889   8.213  10.961  0.00  0.00    +0.000 A 
ATOM     15  C   UNL     1      50.508   8.018  11.006  0.00  0.00    +0.000 A 
BRANCH  14  16
ATOM     16  O   UNL     1      52.662   8.229   9.839  0.00  0.00    +0.000 OA
BRANCH  16  17
ATOM     17  C   UNL     1      52.934   6.961   9.264  0.00  0.00    +0.000 C 
ATOM     18  F   UNL     1      52.754   6.007  10.208  0.00  0.00    +0.000 F 
ATOM     19  F   UNL     1      52.000   6.747   8.304  0.00  0.00    +0.000 F 
ENDBRANCH  16  17
ENDBRANCH  14  16
ENDBRANCH   8  10
ENDBRANCH   1   4
BRANCH   1  20
ATOM     20  N   UNL     1      46.178   4.752  15.047  0.00  0.00    +0.000 N 
ATOM     21  H   UNL     1      45.753   5.518  15.571  0.00  0.00    +0.000 HD
BRANCH  20  25
ATOM     22  C   UNL     1      49.557   3.636  17.102  0.00  0.00    +0.000 A 
ATOM     23  C   UNL     1      48.625   2.707  16.677  0.00  0.00    +0.000 A 
ATOM     24  N   UNL     1      47.499   3.064  15.996  0.00  0.00    +0.000 NA
ATOM     25  C   UNL     1      47.333   4.382  15.753  0.00  0.00    +0.000 A 
ATOM     26  C   UNL     1      48.305   5.299  16.169  0.00  0.00    +0.000 A 
ATOM     27  N   UNL     1      49.426   4.968  16.857  0.00  0.00    +0.000 NA
BRANCH  22  29
ATOM     28  N   UNL     1      51.060   1.883  17.799  0.00  0.00    +0.000 N 
ATOM     29  C   UNL     1      50.751   3.214  17.887  0.00  0.00    +0.000 C 
ATOM     30  O   UNL     1      51.410   4.000  18.554  0.00  0.00    +0.000 OA
ATOM     31  H   UNL     1      51.872   1.523  18.278  0.00  0.00    +0.000 HD
ATOM     32  H   UNL     1      50.494   1.270  17.218  0.00  0.00    +0.000 HD
ENDBRANCH  22  29
ENDBRANCH  20  25
ENDBRANCH   1  20
TORSDOF 7
ENDMDL
