MODEL 1
REMARK VINA RESULT:    -7.539      0.000      0.000
REMARK INTER + INTRA:         -11.316
REMARK INTER:                 -10.183
REMARK INTRA:                  -1.132
REMARK UNBOUND:                -1.132
REMARK  Name = 
REMARK  7 active torsions:
REMARK  status: ('A' for Active; 'I' for Inactive)
REMARK    1  A    between atoms: C_1  and  C_2
REMARK    2  A    between atoms: C_2  and  N_3
REMARK    3  A    between atoms: C_2  and  C_12
REMARK    4  A    between atoms: C_4  and  C_6
REMARK    5  A    between atoms: C_15  and  C_16
REMARK    6  A    between atoms: C_16  and  N_17
REMARK    7  A    between atoms: C_18  and  C_20
REMARK                            x       y       z     vdW  Elec       q    Type
REMARK                         _______ _______ _______ _____ _____    ______ ____
ROOT
ATOM      1  C   UNL     1      47.749   5.851  14.587  0.00  0.00    +0.000 A 
ATOM      2  C   UNL     1      46.994   4.681  14.653  0.00  0.00    +0.000 A 
ATOM      3  C   UNL     1      47.144   3.827  15.747  0.00  0.00    +0.000 A 
ATOM      4  C   UNL     1      48.050   4.141  16.761  0.00  0.00    +0.000 A 
ATOM      5  C   UNL     1      48.721   5.351  16.644  0.00  0.00    +0.000 A 
ATOM      6  N   UNL     1      48.594   6.200  15.591  0.00  0.00    +0.000 NA
ENDROOT
BRANCH   1   8
ATOM      7  C   UNL     1      49.094   6.842  12.703  0.00  0.00    +0.000 C 
ATOM      8  C   UNL     1      47.711   6.755  13.351  0.00  0.00    +0.000 C 
BRANCH   8   9
ATOM      9  N   UNL     1      46.731   6.295  12.365  0.00  0.00    +0.000 N 
ATOM     10  C   UNL     1      45.504   6.886  12.208  0.00  0.00    +0.000 C 
ATOM     11  O   UNL     1      45.153   7.864  12.859  0.00  0.00    +0.000 OA
ATOM     12  H   UNL     1      47.076   5.683  11.643  0.00  0.00    +0.000 HD
BRANCH  10  13
ATOM     13  C   UNL     1      44.532   6.208  11.188  0.00  0.00    +0.000 C 
ATOM     14  C   UNL     1      44.934   4.850  10.597  0.00  0.00    +0.000 C 
ATOM     15  C   UNL     1      44.826   3.690  11.590  0.00  0.00    +0.000 C 
ATOM     16  C   UNL     1      43.540   3.731  12.412  0.00  0.00    +0.000 C 
ATOM     17  C   UNL     1      43.184   5.132  12.899  0.00  0.00    +0.000 C 
ATOM     18  N   UNL     1      43.185   6.094  11.796  0.00  0.00    +0.000 NA
ATOM     19  H   UNL     1      42.941   7.016  12.170  0.00  0.00    +0.000 HD
ENDBRANCH  10  13
ENDBRANCH   8   9
ENDBRANCH   1   8
BRANCH   4  20
ATOM     20  C   UNL     1      48.302   3.206  17.911  0.00  0.00    +0.000 C 
BRANCH  20  21
ATOM     21  N   UNL     1      49.705   2.962  18.126  0.00  0.00    +0.000 N 
ATOM     22  C   UNL     1      50.429   2.176  17.258  0.00  0.00    +0.000 C 
ATOM     23  O   UNL     1      49.926   1.687  16.250  0.00  0.00    +0.000 OA
ATOM     24  H   UNL     1      50.070   3.127  19.058  0.00  0.00    +0.000 HD
BRANCH  22  25
ATOM     25  C   UNL     1      51.854   2.004  17.568  0.00  0.00    +0.000 A 
ATOM     26  C   UNL     1      52.381   0.725  17.698  0.00  0.00    +0.000 A 
ATOM     27  S   UNL     1      54.056   0.705  18.025  0.00  0.00    +0.000 S 
ATOM     28  C   UNL     1      54.125   2.405  18.056  0.00  0.00    +0.000 A 
ATOM     29  N   UNL     1      55.290   3.053  18.327  0.00  0.00    +0.000 NA
ATOM     30  C   UNL     1      55.192   4.339  18.352  0.00  0.00    +0.000 A 
ATOM     31  N   UNL     1      54.034   5.039  18.120  0.00  0.00    +0.000 N 
ATOM     32  C   UNL     1      52.848   4.428  17.793  0.00  0.00    +0.000 A 
ATOM     33  O   UNL     1      51.848   5.084  17.515  0.00  0.00    +0.000 OA
ATOM     34  C   UNL     1      52.895   2.978  17.788  0.00  0.00    +0.000 A 
ATOM     35  H   UNL     1      54.031   6.048  18.132  0.00  0.00    +0.000 HD
ENDBRANCH  22  25
ENDBRANCH  20  21
ENDBRANCH   4  20
TORSDOF 6
ENDMDL
MODEL 2
REMARK VINA RESULT:    -7.442      3.376      8.926
REMARK INTER + INTRA:         -11.184
REMARK INTER:                 -10.044
REMARK INTRA:                  -1.140
REMARK UNBOUND:                -1.132
REMARK  Name = 
REMARK  7 active torsions:
REMARK  status: ('A' for Active; 'I' for Inactive)
REMARK    1  A    between atoms: C_1  and  C_2
REMARK    2  A    between atoms: C_2  and  N_3
REMARK    3  A    between atoms: C_2  and  C_12
REMARK    4  A    between atoms: C_4  and  C_6
REMARK    5  A    between atoms: C_15  and  C_16
REMARK    6  A    between atoms: C_16  and  N_17
REMARK    7  A    between atoms: C_18  and  C_20
REMARK                            x       y       z     vdW  Elec       q    Type
REMARK                         _______ _______ _______ _____ _____    ______ ____
ROOT
ATOM      1  C   UNL     1      50.042   7.487  15.233  0.00  0.00    +0.000 A 
ATOM      2  C   UNL     1      50.564   8.042  14.066  0.00  0.00    +0.000 A 
ATOM      3  C   UNL     1      49.753   8.153  12.935  0.00  0.00    +0.000 A 
ATOM      4  C   UNL     1      48.433   7.703  12.974  0.00  0.00    +0.000 A 
ATOM      5  C   UNL     1      47.977   7.214  14.192  0.00  0.00    +0.000 A 
ATOM      6  N   UNL     1      48.744   7.096  15.307  0.00  0.00    +0.000 NA
ENDROOT
BRANCH   1   8
ATOM      7  C   UNL     1      51.402   8.553  17.064  0.00  0.00    +0.000 C 
ATOM      8  C   UNL     1      50.926   7.232  16.459  0.00  0.00    +0.000 C 
BRANCH   8   9
ATOM      9  N   UNL     1      50.234   6.440  17.477  0.00  0.00    +0.000 N 
ATOM     10  C   UNL     1      50.500   5.113  17.692  0.00  0.00    +0.000 C 
ATOM     11  O   UNL     1      51.362   4.502  17.069  0.00  0.00    +0.000 OA
ATOM     12  H   UNL     1      49.726   6.957  18.177  0.00  0.00    +0.000 HD
BRANCH  10  13
ATOM     13  C   UNL     1      49.600   4.385  18.743  0.00  0.00    +0.000 C 
ATOM     14  C   UNL     1      48.202   4.955  19.017  0.00  0.00    +0.000 C 
ATOM     15  C   UNL     1      47.205   4.714  17.881  0.00  0.00    +0.000 C 
ATOM     16  C   UNL     1      47.274   3.294  17.322  0.00  0.00    +0.000 C 
ATOM     17  C   UNL     1      48.702   2.788  17.147  0.00  0.00    +0.000 C 
ATOM     18  N   UNL     1      49.479   2.954  18.377  0.00  0.00    +0.000 NA
ATOM     19  H   UNL     1      50.426   2.601  18.212  0.00  0.00    +0.000 HD
ENDBRANCH  10  13
ENDBRANCH   8   9
ENDBRANCH   1   8
BRANCH   4  20
ATOM     20  C   UNL     1      47.555   7.726  11.754  0.00  0.00    +0.000 C 
BRANCH  20  21
ATOM     21  N   UNL     1      46.861   6.480  11.549  0.00  0.00    +0.000 N 
ATOM     22  C   UNL     1      45.487   6.417  11.600  0.00  0.00    +0.000 C 
ATOM     23  O   UNL     1      44.797   7.416  11.782  0.00  0.00    +0.000 OA
ATOM     24  H   UNL     1      47.396   5.625  11.659  0.00  0.00    +0.000 HD
BRANCH  22  25
ATOM     25  C   UNL     1      44.886   5.098  11.365  0.00  0.00    +0.000 A 
ATOM     26  C   UNL     1      44.140   4.492  12.368  0.00  0.00    +0.000 A 
ATOM     27  S   UNL     1      43.486   2.981  11.917  0.00  0.00    +0.000 S 
ATOM     28  C   UNL     1      44.221   3.060  10.385  0.00  0.00    +0.000 A 
ATOM     29  N   UNL     1      44.090   2.042   9.493  0.00  0.00    +0.000 NA
ATOM     30  C   UNL     1      44.726   2.217   8.384  0.00  0.00    +0.000 A 
ATOM     31  N   UNL     1      45.476   3.326   8.082  0.00  0.00    +0.000 N 
ATOM     32  C   UNL     1      45.595   4.399   8.931  0.00  0.00    +0.000 A 
ATOM     33  O   UNL     1      46.208   5.410   8.600  0.00  0.00    +0.000 OA
ATOM     34  C   UNL     1      44.927   4.237  10.209  0.00  0.00    +0.000 A 
ATOM     35  H   UNL     1      45.931   3.411   7.185  0.00  0.00    +0.000 HD
ENDBRANCH  22  25
ENDBRANCH  20  21
ENDBRANCH   4  20
TORSDOF 6
ENDMDL
MODEL 3
REMARK VINA RESULT:    -7.083      3.521      8.715
REMARK INTER + INTRA:         -10.699
REMARK INTER:                  -9.558
REMARK INTRA:                  -1.141
REMARK UNBOUND:                -1.132
REMARK  Name = 
REMARK  7 active torsions:
REMARK  status: ('A' for Active; 'I' for Inactive)
REMARK    1  A    between atoms: C_1  and  C_2
REMARK    2  A    between atoms: C_2  and  N_3
REMARK    3  A    between atoms: C_2  and  C_12
REMARK    4  A    between atoms: C_4  and  C_6
REMARK    5  A    between atoms: C_15  and  C_16
REMARK    6  A    between atoms: C_16  and  N_17
REMARK    7  A    between atoms: C_18  and  C_20
REMARK                            x       y       z     vdW  Elec       q    Type
REMARK                         _______ _______ _______ _____ _____    ______ ____
ROOT
ATOM      1  C   UNL     1      50.232   7.443  15.598  0.00  0.00    +0.000 A 
ATOM      2  C   UNL     1      48.861   7.213  15.505  0.00  0.00    +0.000 A 
ATOM      3  C   UNL     1      48.211   7.412  14.284  0.00  0.00    +0.000 A 
ATOM      4  C   UNL     1      48.932   7.846  13.171  0.00  0.00    +0.000 A 
ATOM      5  C   UNL     1      50.303   7.999  13.337  0.00  0.00    +0.000 A 
ATOM      6  N   UNL     1      50.959   7.812  14.512  0.00  0.00    +0.000 NA
ENDROOT
BRANCH   1   8
ATOM      7  C   UNL     1      51.071   8.742  17.585  0.00  0.00    +0.000 C 
ATOM      8  C   UNL     1      50.964   7.359  16.941  0.00  0.00    +0.000 C 
BRANCH   8   9
ATOM      9  N   UNL     1      50.308   6.432  17.866  0.00  0.00    +0.000 N 
ATOM     10  C   UNL     1      50.524   5.078  17.836  0.00  0.00    +0.000 C 
ATOM     11  O   UNL     1      51.310   4.551  17.055  0.00  0.00    +0.000 OA
ATOM     12  H   UNL     1      49.876   6.841  18.678  0.00  0.00    +0.000 HD
BRANCH  10  13
ATOM     13  C   UNL     1      49.666   4.217  18.818  0.00  0.00    +0.000 C 
ATOM     14  C   UNL     1      48.305   4.767  19.264  0.00  0.00    +0.000 C 
ATOM     15  C   UNL     1      47.235   4.725  18.169  0.00  0.00    +0.000 C 
ATOM     16  C   UNL     1      47.228   3.407  17.397  0.00  0.00    +0.000 C 
ATOM     17  C   UNL     1      48.627   2.904  17.057  0.00  0.00    +0.000 C 
ATOM     18  N   UNL     1      49.480   2.862  18.247  0.00  0.00    +0.000 NA
ATOM     19  H   UNL     1      50.405   2.519  17.970  0.00  0.00    +0.000 HD
ENDBRANCH  10  13
ENDBRANCH   8   9
ENDBRANCH   1   8
BRANCH   4  20
ATOM     20  C   UNL     1      48.256   8.153  11.865  0.00  0.00    +0.000 C 
BRANCH  20  21
ATOM     21  N   UNL     1      47.571   7.011  11.315  0.00  0.00    +0.000 N 
ATOM     22  C   UNL     1      46.200   6.910  11.375  0.00  0.00    +0.000 C 
ATOM     23  O   UNL     1      45.504   7.798  11.859  0.00  0.00    +0.000 OA
ATOM     24  H   UNL     1      48.119   6.172  11.155  0.00  0.00    +0.000 HD
BRANCH  22  25
ATOM     25  C   UNL     1      45.607   5.709  10.773  0.00  0.00    +0.000 A 
ATOM     26  C   UNL     1      45.732   5.490   9.407  0.00  0.00    +0.000 A 
ATOM     27  S   UNL     1      45.016   4.033   8.879  0.00  0.00    +0.000 S 
ATOM     28  C   UNL     1      44.468   3.672  10.448  0.00  0.00    +0.000 A 
ATOM     29  N   UNL     1      43.734   2.553  10.693  0.00  0.00    +0.000 NA
ATOM     30  C   UNL     1      43.355   2.419  11.919  0.00  0.00    +0.000 A 
ATOM     31  N   UNL     1      43.653   3.300  12.928  0.00  0.00    +0.000 N 
ATOM     32  C   UNL     1      44.433   4.415  12.737  0.00  0.00    +0.000 A 
ATOM     33  O   UNL     1      44.747   5.142  13.676  0.00  0.00    +0.000 OA
ATOM     34  C   UNL     1      44.855   4.631  11.367  0.00  0.00    +0.000 A 
ATOM     35  H   UNL     1      43.344   3.125  13.873  0.00  0.00    +0.000 HD
ENDBRANCH  22  25
ENDBRANCH  20  21
ENDBRANCH   4  20
TORSDOF 6
ENDMDL
MODEL 4
REMARK VINA RESULT:    -6.679      1.596      2.484
REMARK INTER + INTRA:         -10.154
REMARK INTER:                  -9.237
REMARK INTRA:                  -0.917
REMARK UNBOUND:                -1.132
REMARK  Name = 
REMARK  7 active torsions:
REMARK  status: ('A' for Active; 'I' for Inactive)
REMARK    1  A    between atoms: C_1  and  C_2
REMARK    2  A    between atoms: C_2  and  N_3
REMARK    3  A    between atoms: C_2  and  C_12
REMARK    4  A    between atoms: C_4  and  C_6
REMARK    5  A    between atoms: C_15  and  C_16
REMARK    6  A    between atoms: C_16  and  N_17
REMARK    7  A    between atoms: C_18  and  C_20
REMARK                            x       y       z     vdW  Elec       q    Type
REMARK                         _______ _______ _______ _____ _____    ______ ____
ROOT
ATOM      1  C   UNL     1      47.883   6.712  13.671  0.00  0.00    +0.000 A 
ATOM      2  C   UNL     1      48.622   7.472  14.576  0.00  0.00    +0.000 A 
ATOM      3  C   UNL     1      48.964   6.926  15.815  0.00  0.00    +0.000 A 
ATOM      4  C   UNL     1      48.559   5.632  16.144  0.00  0.00    +0.000 A 
ATOM      5  C   UNL     1      47.873   4.925  15.165  0.00  0.00    +0.000 A 
ATOM      6  N   UNL     1      47.529   5.432  13.952  0.00  0.00    +0.000 NA
ENDROOT
BRANCH   1   8
ATOM      7  C   UNL     1      48.545   7.872  11.537  0.00  0.00    +0.000 C 
ATOM      8  C   UNL     1      47.380   7.310  12.353  0.00  0.00    +0.000 C 
BRANCH   8   9
ATOM      9  N   UNL     1      46.643   6.330  11.553  0.00  0.00    +0.000 N 
ATOM     10  C   UNL     1      45.367   6.549  11.104  0.00  0.00    +0.000 C 
ATOM     11  O   UNL     1      44.764   7.597  11.311  0.00  0.00    +0.000 OA
ATOM     12  H   UNL     1      47.187   5.589  11.141  0.00  0.00    +0.000 HD
BRANCH  10  13
ATOM     13  C   UNL     1      44.680   5.360  10.355  0.00  0.00    +0.000 C 
ATOM     14  C   UNL     1      45.164   3.937  10.659  0.00  0.00    +0.000 C 
ATOM     15  C   UNL     1      44.734   3.420  12.034  0.00  0.00    +0.000 C 
ATOM     16  C   UNL     1      43.276   3.737  12.357  0.00  0.00    +0.000 C 
ATOM     17  C   UNL     1      42.866   5.151  11.958  0.00  0.00    +0.000 C 
ATOM     18  N   UNL     1      43.215   5.431  10.563  0.00  0.00    +0.000 NA
ATOM     19  H   UNL     1      42.922   6.387  10.343  0.00  0.00    +0.000 HD
ENDBRANCH  10  13
ENDBRANCH   8   9
ENDBRANCH   1   8
BRANCH   4  20
ATOM     20  C   UNL     1      48.832   5.041  17.499  0.00  0.00    +0.000 C 
BRANCH  20  21
ATOM     21  N   UNL     1      50.130   4.421  17.579  0.00  0.00    +0.000 N 
ATOM     22  C   UNL     1      50.838   4.407  18.760  0.00  0.00    +0.000 C 
ATOM     23  O   UNL     1      50.382   4.883  19.796  0.00  0.00    +0.000 OA
ATOM     24  H   UNL     1      50.626   4.262  16.708  0.00  0.00    +0.000 HD
BRANCH  22  25
ATOM     25  C   UNL     1      52.144   3.738  18.730  0.00  0.00    +0.000 A 
ATOM     26  C   UNL     1      53.250   4.358  19.298  0.00  0.00    +0.000 A 
ATOM     27  S   UNL     1      54.678   3.429  19.206  0.00  0.00    +0.000 S 
ATOM     28  C   UNL     1      53.882   2.189  18.357  0.00  0.00    +0.000 A 
ATOM     29  N   UNL     1      54.556   1.087  17.932  0.00  0.00    +0.000 NA
ATOM     30  C   UNL     1      53.838   0.243  17.272  0.00  0.00    +0.000 A 
ATOM     31  N   UNL     1      52.500   0.396  17.006  0.00  0.00    +0.000 N 
ATOM     32  C   UNL     1      51.768   1.467  17.458  0.00  0.00    +0.000 A 
ATOM     33  O   UNL     1      50.557   1.537  17.271  0.00  0.00    +0.000 OA
ATOM     34  C   UNL     1      52.538   2.465  18.176  0.00  0.00    +0.000 A 
ATOM     35  H   UNL     1      51.990  -0.315  16.502  0.00  0.00    +0.000 HD
ENDBRANCH  22  25
ENDBRANCH  20  21
ENDBRANCH   4  20
TORSDOF 6
ENDMDL
MODEL 5
REMARK VINA RESULT:    -6.586      3.141      8.939
REMARK INTER + INTRA:         -10.028
REMARK INTER:                  -8.939
REMARK INTRA:                  -1.090
REMARK UNBOUND:                -1.132
REMARK  Name = 
REMARK  7 active torsions:
REMARK  status: ('A' for Active; 'I' for Inactive)
REMARK    1  A    between atoms: C_1  and  C_2
REMARK    2  A    between atoms: C_2  and  N_3
REMARK    3  A    between atoms: C_2  and  C_12
REMARK    4  A    between atoms: C_4  and  C_6
REMARK    5  A    between atoms: C_15  and  C_16
REMARK    6  A    between atoms: C_16  and  N_17
REMARK    7  A    between atoms: C_18  and  C_20
REMARK                            x       y       z     vdW  Elec       q    Type
REMARK                         _______ _______ _______ _____ _____    ______ ____
ROOT
ATOM      1  C   UNL     1      51.250   3.663  17.960  0.00  0.00    +0.000 A 
ATOM      2  C   UNL     1      50.367   4.645  18.406  0.00  0.00    +0.000 A 
ATOM      3  C   UNL     1      49.009   4.542  18.097  0.00  0.00    +0.000 A 
ATOM      4  C   UNL     1      48.545   3.466  17.339  0.00  0.00    +0.000 A 
ATOM      5  C   UNL     1      49.482   2.505  16.981  0.00  0.00    +0.000 A 
ATOM      6  N   UNL     1      50.807   2.581  17.269  0.00  0.00    +0.000 NA
ENDROOT
BRANCH   1   8
ATOM      7  C   UNL     1      53.469   2.481  17.839  0.00  0.00    +0.000 C 
ATOM      8  C   UNL     1      52.762   3.797  18.167  0.00  0.00    +0.000 C 
BRANCH   8   9
ATOM      9  N   UNL     1      53.332   4.880  17.364  0.00  0.00    +0.000 N 
ATOM     10  C   UNL     1      53.850   6.021  17.918  0.00  0.00    +0.000 C 
ATOM     11  O   UNL     1      53.905   6.201  19.130  0.00  0.00    +0.000 OA
ATOM     12  H   UNL     1      53.549   4.659  16.405  0.00  0.00    +0.000 HD
BRANCH  10  13
ATOM     13  C   UNL     1      54.322   7.127  16.918  0.00  0.00    +0.000 C 
ATOM     14  C   UNL     1      53.754   7.104  15.493  0.00  0.00    +0.000 C 
ATOM     15  C   UNL     1      52.289   7.541  15.407  0.00  0.00    +0.000 C 
ATOM     16  C   UNL     1      51.989   8.778  16.249  0.00  0.00    +0.000 C 
ATOM     17  C   UNL     1      52.650   8.743  17.623  0.00  0.00    +0.000 C 
ATOM     18  N   UNL     1      54.083   8.462  17.516  0.00  0.00    +0.000 NA
ATOM     19  H   UNL     1      54.482   8.448  18.459  0.00  0.00    +0.000 HD
ENDBRANCH  10  13
ENDBRANCH   8   9
ENDBRANCH   1   8
BRANCH   4  20
ATOM     20  C   UNL     1      47.107   3.364  16.913  0.00  0.00    +0.000 C 
BRANCH  20  21
ATOM     21  N   UNL     1      46.747   4.365  15.941  0.00  0.00    +0.000 N 
ATOM     22  C   UNL     1      46.889   4.128  14.593  0.00  0.00    +0.000 C 
ATOM     23  O   UNL     1      47.289   3.050  14.161  0.00  0.00    +0.000 OA
ATOM     24  H   UNL     1      46.669   5.324  16.265  0.00  0.00    +0.000 HD
BRANCH  22  25
ATOM     25  C   UNL     1      46.480   5.213  13.693  0.00  0.00    +0.000 A 
ATOM     26  C   UNL     1      47.342   6.278  13.460  0.00  0.00    +0.000 A 
ATOM     27  S   UNL     1      46.724   7.432  12.364  0.00  0.00    +0.000 S 
ATOM     28  C   UNL     1      45.262   6.577  12.204  0.00  0.00    +0.000 A 
ATOM     29  N   UNL     1      44.257   7.051  11.421  0.00  0.00    +0.000 NA
ATOM     30  C   UNL     1      43.193   6.321  11.417  0.00  0.00    +0.000 A 
ATOM     31  N   UNL     1      43.046   5.151  12.120  0.00  0.00    +0.000 N 
ATOM     32  C   UNL     1      44.052   4.610  12.883  0.00  0.00    +0.000 A 
ATOM     33  O   UNL     1      43.918   3.522  13.437  0.00  0.00    +0.000 OA
ATOM     34  C   UNL     1      45.259   5.411  12.950  0.00  0.00    +0.000 A 
ATOM     35  H   UNL     1      42.193   4.615  12.056  0.00  0.00    +0.000 HD
ENDBRANCH  22  25
ENDBRANCH  20  21
ENDBRANCH   4  20
TORSDOF 6
ENDMDL
MODEL 6
REMARK VINA RESULT:    -6.327      1.944      3.294
REMARK INTER + INTRA:          -9.678
REMARK INTER:                  -8.686
REMARK INTRA:                  -0.992
REMARK UNBOUND:                -1.132
REMARK  Name = 
REMARK  7 active torsions:
REMARK  status: ('A' for Active; 'I' for Inactive)
REMARK    1  A    between atoms: C_1  and  C_2
REMARK    2  A    between atoms: C_2  and  N_3
REMARK    3  A    between atoms: C_2  and  C_12
REMARK    4  A    between atoms: C_4  and  C_6
REMARK    5  A    between atoms: C_15  and  C_16
REMARK    6  A    between atoms: C_16  and  N_17
REMARK    7  A    between atoms: C_18  and  C_20
REMARK                            x       y       z     vdW  Elec       q    Type
REMARK                         _______ _______ _______ _____ _____    ______ ____
ROOT
ATOM      1  C   UNL     1      48.636   7.496  14.082  0.00  0.00    +0.000 A 
ATOM      2  C   UNL     1      48.653   6.738  15.251  0.00  0.00    +0.000 A 
ATOM      3  C   UNL     1      49.779   6.771  16.076  0.00  0.00    +0.000 A 
ATOM      4  C   UNL     1      50.881   7.551  15.724  0.00  0.00    +0.000 A 
ATOM      5  C   UNL     1      50.760   8.317  14.572  0.00  0.00    +0.000 A 
ATOM      6  N   UNL     1      49.676   8.304  13.752  0.00  0.00    +0.000 NA
ENDROOT
BRANCH   1   8
ATOM      7  C   UNL     1      48.004   7.280  11.655  0.00  0.00    +0.000 C 
ATOM      8  C   UNL     1      47.476   7.398  13.085  0.00  0.00    +0.000 C 
BRANCH   8   9
ATOM      9  N   UNL     1      46.594   6.268  13.382  0.00  0.00    +0.000 N 
ATOM     10  C   UNL     1      45.304   6.195  12.924  0.00  0.00    +0.000 C 
ATOM     11  O   UNL     1      44.809   7.055  12.204  0.00  0.00    +0.000 OA
ATOM     12  H   UNL     1      47.037   5.434  13.733  0.00  0.00    +0.000 HD
BRANCH  10  13
ATOM     13  C   UNL     1      44.459   4.975  13.418  0.00  0.00    +0.000 C 
ATOM     14  C   UNL     1      42.983   4.903  13.007  0.00  0.00    +0.000 C 
ATOM     15  C   UNL     1      42.770   4.553  11.532  0.00  0.00    +0.000 C 
ATOM     16  C   UNL     1      43.674   3.419  11.055  0.00  0.00    +0.000 C 
ATOM     17  C   UNL     1      45.106   3.538  11.568  0.00  0.00    +0.000 C 
ATOM     18  N   UNL     1      45.136   3.718  13.021  0.00  0.00    +0.000 NA
ATOM     19  H   UNL     1      46.114   3.792  13.317  0.00  0.00    +0.000 HD
ENDBRANCH  10  13
ENDBRANCH   8   9
ENDBRANCH   1   8
BRANCH   4  20
ATOM     20  C   UNL     1      52.143   7.546  16.540  0.00  0.00    +0.000 C 
BRANCH  20  21
ATOM     21  N   UNL     1      52.577   6.215  16.878  0.00  0.00    +0.000 N 
ATOM     22  C   UNL     1      52.766   5.843  18.190  0.00  0.00    +0.000 C 
ATOM     23  O   UNL     1      52.538   6.608  19.122  0.00  0.00    +0.000 OA
ATOM     24  H   UNL     1      53.014   5.665  16.145  0.00  0.00    +0.000 HD
BRANCH  22  25
ATOM     25  C   UNL     1      53.198   4.458  18.420  0.00  0.00    +0.000 A 
ATOM     26  C   UNL     1      54.425   4.210  19.022  0.00  0.00    +0.000 A 
ATOM     27  S   UNL     1      54.756   2.550  19.245  0.00  0.00    +0.000 S 
ATOM     28  C   UNL     1      53.295   2.104  18.495  0.00  0.00    +0.000 A 
ATOM     29  N   UNL     1      52.968   0.795  18.324  0.00  0.00    +0.000 NA
ATOM     30  C   UNL     1      51.849   0.600  17.711  0.00  0.00    +0.000 A 
ATOM     31  N   UNL     1      51.020   1.597  17.263  0.00  0.00    +0.000 N 
ATOM     32  C   UNL     1      51.285   2.931  17.460  0.00  0.00    +0.000 A 
ATOM     33  O   UNL     1      50.486   3.797  17.116  0.00  0.00    +0.000 OA
ATOM     34  C   UNL     1      52.551   3.206  18.112  0.00  0.00    +0.000 A 
ATOM     35  H   UNL     1      50.145   1.376  16.811  0.00  0.00    +0.000 HD
ENDBRANCH  22  25
ENDBRANCH  20  21
ENDBRANCH   4  20
TORSDOF 6
ENDMDL
MODEL 7
REMARK VINA RESULT:    -6.298      3.117      8.528
REMARK INTER + INTRA:          -9.639
REMARK INTER:                  -8.101
REMARK INTRA:                  -1.538
REMARK UNBOUND:                -1.132
REMARK  Name = 
REMARK  7 active torsions:
REMARK  status: ('A' for Active; 'I' for Inactive)
REMARK    1  A    between atoms: C_1  and  C_2
REMARK    2  A    between atoms: C_2  and  N_3
REMARK    3  A    between atoms: C_2  and  C_12
REMARK    4  A    between atoms: C_4  and  C_6
REMARK    5  A    between atoms: C_15  and  C_16
REMARK    6  A    between atoms: C_16  and  N_17
REMARK    7  A    between atoms: C_18  and  C_20
REMARK                            x       y       z     vdW  Elec       q    Type
REMARK                         _______ _______ _______ _____ _____    ______ ____
ROOT
ATOM      1  C   UNL     1      51.251   2.774  17.800  0.00  0.00    +0.000 A 
ATOM      2  C   UNL     1      50.665   3.950  18.266  0.00  0.00    +0.000 A 
ATOM      3  C   UNL     1      49.332   4.225  17.953  0.00  0.00    +0.000 A 
ATOM      4  C   UNL     1      48.599   3.332  17.172  0.00  0.00    +0.000 A 
ATOM      5  C   UNL     1      49.242   2.160  16.794  0.00  0.00    +0.000 A 
ATOM      6  N   UNL     1      50.537   1.867  17.085  0.00  0.00    +0.000 NA
ENDROOT
BRANCH   1   8
ATOM      7  C   UNL     1      53.123   1.138  17.403  0.00  0.00    +0.000 C 
ATOM      8  C   UNL     1      52.741   2.488  18.012  0.00  0.00    +0.000 C 
BRANCH   8   9
ATOM      9  N   UNL     1      53.587   3.542  17.449  0.00  0.00    +0.000 N 
ATOM     10  C   UNL     1      54.413   4.320  18.219  0.00  0.00    +0.000 C 
ATOM     11  O   UNL     1      54.528   4.165  19.430  0.00  0.00    +0.000 OA
ATOM     12  H   UNL     1      53.724   3.521  16.452  0.00  0.00    +0.000 HD
BRANCH  10  13
ATOM     13  C   UNL     1      55.169   5.472  17.480  0.00  0.00    +0.000 C 
ATOM     14  C   UNL     1      54.709   5.850  16.066  0.00  0.00    +0.000 C 
ATOM     15  C   UNL     1      53.375   6.598  16.031  0.00  0.00    +0.000 C 
ATOM     16  C   UNL     1      53.275   7.683  17.102  0.00  0.00    +0.000 C 
ATOM     17  C   UNL     1      53.818   7.240  18.456  0.00  0.00    +0.000 C 
ATOM     18  N   UNL     1      55.167   6.685  18.332  0.00  0.00    +0.000 NA
ATOM     19  H   UNL     1      55.488   6.403  19.263  0.00  0.00    +0.000 HD
ENDBRANCH  10  13
ENDBRANCH   8   9
ENDBRANCH   1   8
BRANCH   4  20
ATOM     20  C   UNL     1      47.190   3.632  16.742  0.00  0.00    +0.000 C 
BRANCH  20  21
ATOM     21  N   UNL     1      47.130   4.643  15.716  0.00  0.00    +0.000 N 
ATOM     22  C   UNL     1      47.156   4.302  14.383  0.00  0.00    +0.000 C 
ATOM     23  O   UNL     1      47.191   3.132  14.012  0.00  0.00    +0.000 OA
ATOM     24  H   UNL     1      47.360   5.594  15.984  0.00  0.00    +0.000 HD
BRANCH  22  25
ATOM     25  C   UNL     1      47.076   5.411  13.424  0.00  0.00    +0.000 A 
ATOM     26  C   UNL     1      46.084   5.413  12.453  0.00  0.00    +0.000 A 
ATOM     27  S   UNL     1      46.115   6.790  11.444  0.00  0.00    +0.000 S 
ATOM     28  C   UNL     1      47.489   7.406  12.237  0.00  0.00    +0.000 A 
ATOM     29  N   UNL     1      48.067   8.569  11.834  0.00  0.00    +0.000 NA
ATOM     30  C   UNL     1      49.120   8.901  12.500  0.00  0.00    +0.000 A 
ATOM     31  N   UNL     1      49.644   8.179  13.543  0.00  0.00    +0.000 N 
ATOM     32  C   UNL     1      49.065   7.027  14.017  0.00  0.00    +0.000 A 
ATOM     33  O   UNL     1      49.513   6.446  15.001  0.00  0.00    +0.000 OA
ATOM     34  C   UNL     1      47.897   6.589  13.277  0.00  0.00    +0.000 A 
ATOM     35  H   UNL     1      50.460   8.508  14.039  0.00  0.00    +0.000 HD
ENDBRANCH  22  25
ENDBRANCH  20  21
ENDBRANCH   4  20
TORSDOF 6
ENDMDL
MODEL 8
REMARK VINA RESULT:    -6.133      4.187      8.943
REMARK INTER + INTRA:          -9.417
REMARK INTER:                  -8.963
REMARK INTRA:                  -0.454
REMARK UNBOUND:                -1.132
REMARK  Name = 
REMARK  7 active torsions:
REMARK  status: ('A' for Active; 'I' for Inactive)
REMARK    1  A    between atoms: C_1  and  C_2
REMARK    2  A    between atoms: C_2  and  N_3
REMARK    3  A    between atoms: C_2  and  C_12
REMARK    4  A    between atoms: C_4  and  C_6
REMARK    5  A    between atoms: C_15  and  C_16
REMARK    6  A    between atoms: C_16  and  N_17
REMARK    7  A    between atoms: C_18  and  C_20
REMARK                            x       y       z     vdW  Elec       q    Type
REMARK                         _______ _______ _______ _____ _____    ______ ____
ROOT
ATOM      1  C   UNL     1      49.093   5.530  19.957  0.00  0.00    +0.000 A 
ATOM      2  C   UNL     1      47.766   5.791  19.622  0.00  0.00    +0.000 A 
ATOM      3  C   UNL     1      47.190   5.133  18.532  0.00  0.00    +0.000 A 
ATOM      4  C   UNL     1      47.943   4.230  17.782  0.00  0.00    +0.000 A 
ATOM      5  C   UNL     1      49.241   3.989  18.217  0.00  0.00    +0.000 A 
ATOM      6  N   UNL     1      49.825   4.613  19.273  0.00  0.00    +0.000 NA
ENDROOT
BRANCH   1   8
ATOM      7  C   UNL     1      51.306   6.024  21.052  0.00  0.00    +0.000 C 
ATOM      8  C   UNL     1      49.805   6.315  21.064  0.00  0.00    +0.000 C 
BRANCH   8   9
ATOM      9  N   UNL     1      49.579   7.757  20.945  0.00  0.00    +0.000 N 
ATOM     10  C   UNL     1      50.025   8.491  19.877  0.00  0.00    +0.000 C 
ATOM     11  O   UNL     1      50.615   7.987  18.928  0.00  0.00    +0.000 OA
ATOM     12  H   UNL     1      48.880   8.152  21.554  0.00  0.00    +0.000 HD
BRANCH  10  13
ATOM     13  C   UNL     1      49.796  10.036  19.953  0.00  0.00    +0.000 C 
ATOM     14  C   UNL     1      50.188  10.887  18.737  0.00  0.00    +0.000 C 
ATOM     15  C   UNL     1      49.243  10.727  17.544  0.00  0.00    +0.000 C 
ATOM     16  C   UNL     1      47.771  10.737  17.947  0.00  0.00    +0.000 C 
ATOM     17  C   UNL     1      47.487   9.921  19.204  0.00  0.00    +0.000 C 
ATOM     18  N   UNL     1      48.380  10.305  20.299  0.00  0.00    +0.000 NA
ATOM     19  H   UNL     1      48.153   9.733  21.118  0.00  0.00    +0.000 HD
ENDBRANCH  10  13
ENDBRANCH   8   9
ENDBRANCH   1   8
BRANCH   4  20
ATOM     20  C   UNL     1      47.387   3.569  16.553  0.00  0.00    +0.000 C 
BRANCH  20  21
ATOM     21  N   UNL     1      46.786   4.511  15.643  0.00  0.00    +0.000 N 
ATOM     22  C   UNL     1      46.742   4.260  14.290  0.00  0.00    +0.000 C 
ATOM     23  O   UNL     1      47.172   3.216  13.808  0.00  0.00    +0.000 OA
ATOM     24  H   UNL     1      46.667   5.464  15.969  0.00  0.00    +0.000 HD
BRANCH  22  25
ATOM     25  C   UNL     1      46.096   5.282  13.458  0.00  0.00    +0.000 A 
ATOM     26  C   UNL     1      46.738   6.493  13.231  0.00  0.00    +0.000 A 
ATOM     27  S   UNL     1      45.865   7.552  12.216  0.00  0.00    +0.000 S 
ATOM     28  C   UNL     1      44.574   6.451  12.088  0.00  0.00    +0.000 A 
ATOM     29  N   UNL     1      43.459   6.760  11.374  0.00  0.00    +0.000 NA
ATOM     30  C   UNL     1      42.545   5.850  11.389  0.00  0.00    +0.000 A 
ATOM     31  N   UNL     1      42.649   4.650  12.046  0.00  0.00    +0.000 N 
ATOM     32  C   UNL     1      43.776   4.275  12.737  0.00  0.00    +0.000 A 
ATOM     33  O   UNL     1      43.870   3.162  13.249  0.00  0.00    +0.000 OA
ATOM     34  C   UNL     1      44.821   5.280  12.782  0.00  0.00    +0.000 A 
ATOM     35  H   UNL     1      41.905   3.970  11.999  0.00  0.00    +0.000 HD
ENDBRANCH  22  25
ENDBRANCH  20  21
ENDBRANCH   4  20
TORSDOF 6
ENDMDL
MODEL 9
REMARK VINA RESULT:    -6.094      4.295      9.253
REMARK INTER + INTRA:          -9.364
REMARK INTER:                  -8.234
REMARK INTRA:                  -1.130
REMARK UNBOUND:                -1.132
REMARK  Name = 
REMARK  7 active torsions:
REMARK  status: ('A' for Active; 'I' for Inactive)
REMARK    1  A    between atoms: C_1  and  C_2
REMARK    2  A    between atoms: C_2  and  N_3
REMARK    3  A    between atoms: C_2  and  C_12
REMARK    4  A    between atoms: C_4  and  C_6
REMARK    5  A    between atoms: C_15  and  C_16
REMARK    6  A    between atoms: C_16  and  N_17
REMARK    7  A    between atoms: C_18  and  C_20
REMARK                            x       y       z     vdW  Elec       q    Type
REMARK                         _______ _______ _______ _____ _____    ______ ____
ROOT
ATOM      1  C   UNL     1      50.618   7.731  14.719  0.00  0.00    +0.000 A 
ATOM      2  C   UNL     1      49.444   7.020  14.960  0.00  0.00    +0.000 A 
ATOM      3  C   UNL     1      48.433   7.016  13.997  0.00  0.00    +0.000 A 
ATOM      4  C   UNL     1      48.596   7.728  12.808  0.00  0.00    +0.000 A 
ATOM      5  C   UNL     1      49.817   8.364  12.625  0.00  0.00    +0.000 A 
ATOM      6  N   UNL     1      50.818   8.383  13.545  0.00  0.00    +0.000 NA
ENDROOT
BRANCH   1   8
ATOM      7  C   UNL     1      52.790   8.841  15.341  0.00  0.00    +0.000 C 
ATOM      8  C   UNL     1      51.703   7.866  15.793  0.00  0.00    +0.000 C 
BRANCH   8   9
ATOM      9  N   UNL     1      51.150   8.301  17.077  0.00  0.00    +0.000 N 
ATOM     10  C   UNL     1      51.002   7.455  18.145  0.00  0.00    +0.000 C 
ATOM     11  O   UNL     1      51.354   6.280  18.112  0.00  0.00    +0.000 OA
ATOM     12  H   UNL     1      51.103   9.296  17.230  0.00  0.00    +0.000 HD
BRANCH  10  13
ATOM     13  C   UNL     1      50.297   8.048  19.409  0.00  0.00    +0.000 C 
ATOM     14  C   UNL     1      49.563   9.387  19.266  0.00  0.00    +0.000 C 
ATOM     15  C   UNL     1      48.250   9.290  18.484  0.00  0.00    +0.000 C 
ATOM     16  C   UNL     1      47.409   8.081  18.886  0.00  0.00    +0.000 C 
ATOM     17  C   UNL     1      48.233   6.811  19.070  0.00  0.00    +0.000 C 
ATOM     18  N   UNL     1      49.366   7.039  19.969  0.00  0.00    +0.000 NA
ATOM     19  H   UNL     1      49.888   6.163  20.062  0.00  0.00    +0.000 HD
ENDBRANCH  10  13
ENDBRANCH   8   9
ENDBRANCH   1   8
BRANCH   4  20
ATOM     20  C   UNL     1      47.498   7.819  11.786  0.00  0.00    +0.000 C 
BRANCH  20  21
ATOM     21  N   UNL     1      46.802   6.570  11.610  0.00  0.00    +0.000 N 
ATOM     22  C   UNL     1      45.427   6.521  11.590  0.00  0.00    +0.000 C 
ATOM     23  O   UNL     1      44.739   7.535  11.680  0.00  0.00    +0.000 OA
ATOM     24  H   UNL     1      47.320   5.717  11.794  0.00  0.00    +0.000 HD
BRANCH  22  25
ATOM     25  C   UNL     1      44.823   5.197  11.393  0.00  0.00    +0.000 A 
ATOM     26  C   UNL     1      44.061   4.629  12.406  0.00  0.00    +0.000 A 
ATOM     27  S   UNL     1      43.408   3.106  12.000  0.00  0.00    +0.000 S 
ATOM     28  C   UNL     1      44.164   3.128  10.476  0.00  0.00    +0.000 A 
ATOM     29  N   UNL     1      44.040   2.080   9.618  0.00  0.00    +0.000 NA
ATOM     30  C   UNL     1      44.692   2.214   8.513  0.00  0.00    +0.000 A 
ATOM     31  N   UNL     1      45.450   3.309   8.182  0.00  0.00    +0.000 N 
ATOM     32  C   UNL     1      45.562   4.411   8.995  0.00  0.00    +0.000 A 
ATOM     33  O   UNL     1      46.184   5.408   8.636  0.00  0.00    +0.000 OA
ATOM     34  C   UNL     1      44.876   4.296  10.268  0.00  0.00    +0.000 A 
ATOM     35  H   UNL     1      45.918   3.361   7.289  0.00  0.00    +0.000 HD
ENDBRANCH  22  25
ENDBRANCH  20  21
ENDBRANCH   4  20
TORSDOF 6
ENDMDL
