MODEL 1
REMARK VINA RESULT:    -8.438      0.000      0.000
REMARK INTER + INTRA:         -13.018
REMARK INTER:                 -12.384
REMARK INTRA:                  -0.634
REMARK UNBOUND:                -0.634
REMARK  Name = 
REMARK  10 active torsions:
REMARK  status: ('A' for Active; 'I' for Inactive)
REMARK    1  A    between atoms: C_1  and  N_2
REMARK    2  A    between atoms: N_2  and  C_3
REMARK    3  A    between atoms: N_2  and  C_4
REMARK    4  A    between atoms: C_4  and  C_5
REMARK    5  A    between atoms: C_5  and  O_6
REMARK    6  A    between atoms: O_6  and  C_7
REMARK    7  A    between atoms: C_11  and  C_12
REMARK    8  A    between atoms: C_12  and  O_13
REMARK    9  A    between atoms: O_13  and  C_14
REMARK   10  A    between atoms: C_17  and  C_18
REMARK                            x       y       z     vdW  Elec       q    Type
REMARK                         _______ _______ _______ _____ _____    ______ ____
ROOT
ATOM      1  C   UNL     1      43.645   3.889  11.687  0.00  0.00    +0.000 C 
ENDROOT
BRANCH   1   6
ATOM      2  C   UNL     1      46.704   4.033  13.738  0.00  0.00    +0.000 A 
ATOM      3  C   UNL     1      47.096   5.360  13.711  0.00  0.00    +0.000 A 
ATOM      4  C   UNL     1      46.332   6.249  12.963  0.00  0.00    +0.000 A 
ATOM      5  C   UNL     1      45.204   5.788  12.285  0.00  0.00    +0.000 A 
ATOM      6  C   UNL     1      44.859   4.445  12.396  0.00  0.00    +0.000 A 
ATOM      7  N   UNL     1      45.598   3.569  13.116  0.00  0.00    +0.000 NA
BRANCH   2   8
ATOM      8  O   UNL     1      47.488   3.150  14.458  0.00  0.00    +0.000 OA
BRANCH   8   9
ATOM      9  C   UNL     1      47.533   3.518  15.844  0.00  0.00    +0.000 C 
BRANCH   9  10
ATOM     10  C   UNL     1      48.421   2.536  16.624  0.00  0.00    +0.000 C 
BRANCH  10  12
ATOM     11  C   UNL     1      49.796   4.040  17.917  0.00  0.00    +0.000 C 
ATOM     12  N   UNL     1      49.795   3.025  16.862  0.00  0.00    +0.000 NA
ATOM     13  C   UNL     1      50.721   1.944  17.215  0.00  0.00    +0.000 C 
ENDBRANCH  10  12
ENDBRANCH   9  10
ENDBRANCH   8   9
ENDBRANCH   2   8
ENDBRANCH   1   6
BRANCH   1  14
ATOM     14  O   UNL     1      43.641   4.365  10.341  0.00  0.00    +0.000 OA
BRANCH  14  15
ATOM     15  C   UNL     1      44.558   3.823   9.484  0.00  0.00    +0.000 A 
ATOM     16  C   UNL     1      45.398   4.529   8.622  0.00  0.00    +0.000 A 
ATOM     17  C   UNL     1      46.304   3.841   7.807  0.00  0.00    +0.000 A 
ATOM     18  C   UNL     1      46.381   2.443   7.849  0.00  0.00    +0.000 A 
ATOM     19  C   UNL     1      45.530   1.734   8.701  0.00  0.00    +0.000 A 
ATOM     20  C   UNL     1      44.625   2.427   9.511  0.00  0.00    +0.000 A 
BRANCH  18  21
ATOM     21  C   UNL     1      47.349   1.762   6.950  0.00  0.00    +0.000 C 
ATOM     22  N   UNL     1      48.409   2.491   6.488  0.00  0.00    +0.000 N 
ATOM     23  O   UNL     1      47.191   0.596   6.605  0.00  0.00    +0.000 OA
ATOM     24  H   UNL     1      48.460   3.496   6.564  0.00  0.00    +0.000 HD
ATOM     25  H   UNL     1      49.003   2.035   5.807  0.00  0.00    +0.000 HD
ENDBRANCH  18  21
ENDBRANCH  14  15
ENDBRANCH   1  14
TORSDOF 8
ENDMDL
MODEL 2
REMARK VINA RESULT:    -7.433      1.064      1.666
REMARK INTER + INTRA:         -11.542
REMARK INTER:                 -10.960
REMARK INTRA:                  -0.583
REMARK UNBOUND:                -0.634
REMARK  Name = 
REMARK  10 active torsions:
REMARK  status: ('A' for Active; 'I' for Inactive)
REMARK    1  A    between atoms: C_1  and  N_2
REMARK    2  A    between atoms: N_2  and  C_3
REMARK    3  A    between atoms: N_2  and  C_4
REMARK    4  A    between atoms: C_4  and  C_5
REMARK    5  A    between atoms: C_5  and  O_6
REMARK    6  A    between atoms: O_6  and  C_7
REMARK    7  A    between atoms: C_11  and  C_12
REMARK    8  A    between atoms: C_12  and  O_13
REMARK    9  A    between atoms: O_13  and  C_14
REMARK   10  A    between atoms: C_17  and  C_18
REMARK                            x       y       z     vdW  Elec       q    Type
REMARK                         _______ _______ _______ _____ _____    ______ ____
ROOT
ATOM      1  C   UNL     1      44.297   3.637  11.842  0.00  0.00    +0.000 C 
ENDROOT
BRANCH   1   6
ATOM      2  C   UNL     1      46.938   5.347  13.760  0.00  0.00    +0.000 A 
ATOM      3  C   UNL     1      46.913   6.659  13.320  0.00  0.00    +0.000 A 
ATOM      4  C   UNL     1      46.001   6.995  12.326  0.00  0.00    +0.000 A 
ATOM      5  C   UNL     1      45.141   6.020  11.821  0.00  0.00    +0.000 A 
ATOM      6  C   UNL     1      45.206   4.733  12.347  0.00  0.00    +0.000 A 
ATOM      7  N   UNL     1      46.094   4.393  13.310  0.00  0.00    +0.000 NA
BRANCH   2   8
ATOM      8  O   UNL     1      47.871   5.015  14.725  0.00  0.00    +0.000 OA
BRANCH   8   9
ATOM      9  C   UNL     1      47.378   3.969  15.575  0.00  0.00    +0.000 C 
BRANCH   9  10
ATOM     10  C   UNL     1      47.452   4.405  17.047  0.00  0.00    +0.000 C 
BRANCH  10  12
ATOM     11  C   UNL     1      49.046   2.596  17.154  0.00  0.00    +0.000 C 
ATOM     12  N   UNL     1      48.129   3.432  17.930  0.00  0.00    +0.000 NA
ATOM     13  C   UNL     1      48.857   4.081  19.025  0.00  0.00    +0.000 C 
ENDBRANCH  10  12
ENDBRANCH   9  10
ENDBRANCH   8   9
ENDBRANCH   2   8
ENDBRANCH   1   6
BRANCH   1  14
ATOM     14  O   UNL     1      43.955   3.913  10.483  0.00  0.00    +0.000 OA
BRANCH  14  15
ATOM     15  C   UNL     1      44.800   3.441   9.518  0.00  0.00    +0.000 A 
ATOM     16  C   UNL     1      45.136   2.105   9.299  0.00  0.00    +0.000 A 
ATOM     17  C   UNL     1      46.008   1.763   8.259  0.00  0.00    +0.000 A 
ATOM     18  C   UNL     1      46.546   2.752   7.425  0.00  0.00    +0.000 A 
ATOM     19  C   UNL     1      46.221   4.092   7.652  0.00  0.00    +0.000 A 
ATOM     20  C   UNL     1      45.352   4.428   8.696  0.00  0.00    +0.000 A 
BRANCH  18  21
ATOM     21  C   UNL     1      47.479   2.335   6.346  0.00  0.00    +0.000 C 
ATOM     22  N   UNL     1      47.372   2.961   5.136  0.00  0.00    +0.000 N 
ATOM     23  O   UNL     1      48.298   1.439   6.520  0.00  0.00    +0.000 OA
ATOM     24  H   UNL     1      46.583   3.537   4.882  0.00  0.00    +0.000 HD
ATOM     25  H   UNL     1      47.955   2.598   4.392  0.00  0.00    +0.000 HD
ENDBRANCH  18  21
ENDBRANCH  14  15
ENDBRANCH   1  14
TORSDOF 8
ENDMDL
MODEL 3
REMARK VINA RESULT:    -6.834      3.032      5.404
REMARK INTER + INTRA:         -10.664
REMARK INTER:                  -9.833
REMARK INTRA:                  -0.831
REMARK UNBOUND:                -0.634
REMARK  Name = 
REMARK  10 active torsions:
REMARK  status: ('A' for Active; 'I' for Inactive)
REMARK    1  A    between atoms: C_1  and  N_2
REMARK    2  A    between atoms: N_2  and  C_3
REMARK    3  A    between atoms: N_2  and  C_4
REMARK    4  A    between atoms: C_4  and  C_5
REMARK    5  A    between atoms: C_5  and  O_6
REMARK    6  A    between atoms: O_6  and  C_7
REMARK    7  A    between atoms: C_11  and  C_12
REMARK    8  A    between atoms: C_12  and  O_13
REMARK    9  A    between atoms: O_13  and  C_14
REMARK   10  A    between atoms: C_17  and  C_18
REMARK                            x       y       z     vdW  Elec       q    Type
REMARK                         _______ _______ _______ _____ _____    ______ ____
ROOT
ATOM      1  C   UNL     1      43.563   4.450  11.555  0.00  0.00    +0.000 C 
ENDROOT
BRANCH   1   6
ATOM      2  C   UNL     1      46.041   6.980  12.575  0.00  0.00    +0.000 A 
ATOM      3  C   UNL     1      46.979   6.288  13.319  0.00  0.00    +0.000 A 
ATOM      4  C   UNL     1      46.777   4.926  13.520  0.00  0.00    +0.000 A 
ATOM      5  C   UNL     1      45.661   4.306  12.959  0.00  0.00    +0.000 A 
ATOM      6  C   UNL     1      44.786   5.068  12.190  0.00  0.00    +0.000 A 
ATOM      7  N   UNL     1      44.970   6.395  11.995  0.00  0.00    +0.000 NA
BRANCH   2   8
ATOM      8  O   UNL     1      46.233   8.339  12.409  0.00  0.00    +0.000 OA
BRANCH   8   9
ATOM      9  C   UNL     1      44.995   9.000  12.112  0.00  0.00    +0.000 C 
BRANCH   9  10
ATOM     10  C   UNL     1      45.262  10.439  11.645  0.00  0.00    +0.000 C 
BRANCH  10  12
ATOM     11  C   UNL     1      44.617  11.495   9.573  0.00  0.00    +0.000 C 
ATOM     12  N   UNL     1      44.148  11.042  10.883  0.00  0.00    +0.000 NA
ATOM     13  C   UNL     1      43.021  10.119  10.714  0.00  0.00    +0.000 C 
ENDBRANCH  10  12
ENDBRANCH   9  10
ENDBRANCH   8   9
ENDBRANCH   2   8
ENDBRANCH   1   6
BRANCH   1  14
ATOM     14  O   UNL     1      43.596   4.704  10.150  0.00  0.00    +0.000 OA
BRANCH  14  15
ATOM     15  C   UNL     1      44.492   3.989   9.406  0.00  0.00    +0.000 A 
ATOM     16  C   UNL     1      45.448   4.517   8.538  0.00  0.00    +0.000 A 
ATOM     17  C   UNL     1      46.316   3.662   7.848  0.00  0.00    +0.000 A 
ATOM     18  C   UNL     1      46.239   2.274   8.025  0.00  0.00    +0.000 A 
ATOM     19  C   UNL     1      45.273   1.744   8.883  0.00  0.00    +0.000 A 
ATOM     20  C   UNL     1      44.406   2.603   9.567  0.00  0.00    +0.000 A 
BRANCH  18  21
ATOM     21  C   UNL     1      47.174   1.413   7.255  0.00  0.00    +0.000 C 
ATOM     22  N   UNL     1      46.913   0.072   7.212  0.00  0.00    +0.000 N 
ATOM     23  O   UNL     1      48.165   1.878   6.702  0.00  0.00    +0.000 OA
ATOM     24  H   UNL     1      46.248  -0.379   7.822  0.00  0.00    +0.000 HD
ATOM     25  H   UNL     1      47.611  -0.505   6.759  0.00  0.00    +0.000 HD
ENDBRANCH  18  21
ENDBRANCH  14  15
ENDBRANCH   1  14
TORSDOF 8
ENDMDL
MODEL 4
REMARK VINA RESULT:    -6.830      2.570      3.025
REMARK INTER + INTRA:         -10.658
REMARK INTER:                  -9.958
REMARK INTRA:                  -0.699
REMARK UNBOUND:                -0.634
REMARK  Name = 
REMARK  10 active torsions:
REMARK  status: ('A' for Active; 'I' for Inactive)
REMARK    1  A    between atoms: C_1  and  N_2
REMARK    2  A    between atoms: N_2  and  C_3
REMARK    3  A    between atoms: N_2  and  C_4
REMARK    4  A    between atoms: C_4  and  C_5
REMARK    5  A    between atoms: C_5  and  O_6
REMARK    6  A    between atoms: O_6  and  C_7
REMARK    7  A    between atoms: C_11  and  C_12
REMARK    8  A    between atoms: C_12  and  O_13
REMARK    9  A    between atoms: O_13  and  C_14
REMARK   10  A    between atoms: C_17  and  C_18
REMARK                            x       y       z     vdW  Elec       q    Type
REMARK                         _______ _______ _______ _____ _____    ______ ____
ROOT
ATOM      1  C   UNL     1      43.955   4.381  11.695  0.00  0.00    +0.000 C 
ENDROOT
BRANCH   1   6
ATOM      2  C   UNL     1      46.518   6.563  13.196  0.00  0.00    +0.000 A 
ATOM      3  C   UNL     1      46.260   7.825  12.691  0.00  0.00    +0.000 A 
ATOM      4  C   UNL     1      45.207   7.964  11.792  0.00  0.00    +0.000 A 
ATOM      5  C   UNL     1      44.445   6.849  11.445  0.00  0.00    +0.000 A 
ATOM      6  C   UNL     1      44.748   5.623  12.029  0.00  0.00    +0.000 A 
ATOM      7  N   UNL     1      45.774   5.474  12.900  0.00  0.00    +0.000 NA
BRANCH   2   8
ATOM      8  O   UNL     1      47.587   6.428  14.063  0.00  0.00    +0.000 OA
BRANCH   8   9
ATOM      9  C   UNL     1      48.332   7.651  14.152  0.00  0.00    +0.000 C 
BRANCH   9  10
ATOM     10  C   UNL     1      49.793   7.354  14.522  0.00  0.00    +0.000 C 
BRANCH  10  12
ATOM     11  C   UNL     1      50.632   9.351  15.585  0.00  0.00    +0.000 C 
ATOM     12  N   UNL     1      50.227   7.961  15.798  0.00  0.00    +0.000 NA
ATOM     13  C   UNL     1      49.187   7.900  16.829  0.00  0.00    +0.000 C 
ENDBRANCH  10  12
ENDBRANCH   9  10
ENDBRANCH   8   9
ENDBRANCH   2   8
ENDBRANCH   1   6
BRANCH   1  14
ATOM     14  O   UNL     1      43.708   4.359  10.288  0.00  0.00    +0.000 OA
BRANCH  14  15
ATOM     15  C   UNL     1      44.585   3.655   9.512  0.00  0.00    +0.000 A 
ATOM     16  C   UNL     1      44.763   2.271   9.517  0.00  0.00    +0.000 A 
ATOM     17  C   UNL     1      45.693   1.681   8.652  0.00  0.00    +0.000 A 
ATOM     18  C   UNL     1      46.447   2.467   7.772  0.00  0.00    +0.000 A 
ATOM     19  C   UNL     1      46.280   3.854   7.776  0.00  0.00    +0.000 A 
ATOM     20  C   UNL     1      45.353   4.439   8.645  0.00  0.00    +0.000 A 
BRANCH  18  21
ATOM     21  C   UNL     1      47.431   1.790   6.887  0.00  0.00    +0.000 C 
ATOM     22  N   UNL     1      48.456   2.541   6.385  0.00  0.00    +0.000 N 
ATOM     23  O   UNL     1      47.314   0.606   6.590  0.00  0.00    +0.000 OA
ATOM     24  H   UNL     1      48.469   3.549   6.421  0.00  0.00    +0.000 HD
ATOM     25  H   UNL     1      49.060   2.082   5.715  0.00  0.00    +0.000 HD
ENDBRANCH  18  21
ENDBRANCH  14  15
ENDBRANCH   1  14
TORSDOF 8
ENDMDL
MODEL 5
REMARK VINA RESULT:    -6.486      3.470      4.138
REMARK INTER + INTRA:         -10.152
REMARK INTER:                  -9.297
REMARK INTRA:                  -0.855
REMARK UNBOUND:                -0.634
REMARK  Name = 
REMARK  10 active torsions:
REMARK  status: ('A' for Active; 'I' for Inactive)
REMARK    1  A    between atoms: C_1  and  N_2
REMARK    2  A    between atoms: N_2  and  C_3
REMARK    3  A    between atoms: N_2  and  C_4
REMARK    4  A    between atoms: C_4  and  C_5
REMARK    5  A    between atoms: C_5  and  O_6
REMARK    6  A    between atoms: O_6  and  C_7
REMARK    7  A    between atoms: C_11  and  C_12
REMARK    8  A    between atoms: C_12  and  O_13
REMARK    9  A    between atoms: O_13  and  C_14
REMARK   10  A    between atoms: C_17  and  C_18
REMARK                            x       y       z     vdW  Elec       q    Type
REMARK                         _______ _______ _______ _____ _____    ______ ____
ROOT
ATOM      1  C   UNL     1      44.682   4.758  11.780  0.00  0.00    +0.000 C 
ENDROOT
BRANCH   1   6
ATOM      2  C   UNL     1      46.339   7.791  13.061  0.00  0.00    +0.000 A 
ATOM      3  C   UNL     1      45.738   8.842  12.390  0.00  0.00    +0.000 A 
ATOM      4  C   UNL     1      44.757   8.540  11.452  0.00  0.00    +0.000 A 
ATOM      5  C   UNL     1      44.402   7.210  11.229  0.00  0.00    +0.000 A 
ATOM      6  C   UNL     1      45.029   6.216  11.975  0.00  0.00    +0.000 A 
ATOM      7  N   UNL     1      45.990   6.498  12.886  0.00  0.00    +0.000 NA
BRANCH   2   8
ATOM      8  O   UNL     1      47.336   8.099  13.968  0.00  0.00    +0.000 OA
BRANCH   8   9
ATOM      9  C   UNL     1      48.006   9.313  13.601  0.00  0.00    +0.000 C 
BRANCH   9  10
ATOM     10  C   UNL     1      49.521   9.074  13.507  0.00  0.00    +0.000 C 
BRANCH  10  12
ATOM     11  C   UNL     1      49.772   7.755  11.501  0.00  0.00    +0.000 C 
ATOM     12  N   UNL     1      50.042   9.052  12.124  0.00  0.00    +0.000 NA
ATOM     13  C   UNL     1      49.481  10.124  11.297  0.00  0.00    +0.000 C 
ENDBRANCH  10  12
ENDBRANCH   9  10
ENDBRANCH   8   9
ENDBRANCH   2   8
ENDBRANCH   1   6
BRANCH   1  14
ATOM     14  O   UNL     1      44.111   4.591  10.482  0.00  0.00    +0.000 OA
BRANCH  14  15
ATOM     15  C   UNL     1      44.888   3.997   9.528  0.00  0.00    +0.000 A 
ATOM     16  C   UNL     1      45.658   4.653   8.566  0.00  0.00    +0.000 A 
ATOM     17  C   UNL     1      46.421   3.913   7.656  0.00  0.00    +0.000 A 
ATOM     18  C   UNL     1      46.428   2.513   7.703  0.00  0.00    +0.000 A 
ATOM     19  C   UNL     1      45.647   1.855   8.656  0.00  0.00    +0.000 A 
ATOM     20  C   UNL     1      44.883   2.599   9.561  0.00  0.00    +0.000 A 
BRANCH  18  21
ATOM     21  C   UNL     1      47.244   1.778   6.702  0.00  0.00    +0.000 C 
ATOM     22  N   UNL     1      48.106   2.503   5.928  0.00  0.00    +0.000 N 
ATOM     23  O   UNL     1      47.131   0.566   6.550  0.00  0.00    +0.000 OA
ATOM     24  H   UNL     1      48.075   3.510   5.865  0.00  0.00    +0.000 HD
ATOM     25  H   UNL     1      48.584   1.995   5.194  0.00  0.00    +0.000 HD
ENDBRANCH  18  21
ENDBRANCH  14  15
ENDBRANCH   1  14
TORSDOF 8
ENDMDL
MODEL 6
REMARK VINA RESULT:    -6.450      2.001      8.528
REMARK INTER + INTRA:         -10.101
REMARK INTER:                  -9.611
REMARK INTRA:                  -0.490
REMARK UNBOUND:                -0.634
REMARK  Name = 
REMARK  10 active torsions:
REMARK  status: ('A' for Active; 'I' for Inactive)
REMARK    1  A    between atoms: C_1  and  N_2
REMARK    2  A    between atoms: N_2  and  C_3
REMARK    3  A    between atoms: N_2  and  C_4
REMARK    4  A    between atoms: C_4  and  C_5
REMARK    5  A    between atoms: C_5  and  O_6
REMARK    6  A    between atoms: O_6  and  C_7
REMARK    7  A    between atoms: C_11  and  C_12
REMARK    8  A    between atoms: C_12  and  O_13
REMARK    9  A    between atoms: O_13  and  C_14
REMARK   10  A    between atoms: C_17  and  C_18
REMARK                            x       y       z     vdW  Elec       q    Type
REMARK                         _______ _______ _______ _____ _____    ______ ____
ROOT
ATOM      1  C   UNL     1      46.811   4.227  13.852  0.00  0.00    +0.000 C 
ENDROOT
BRANCH   1   6
ATOM      2  C   UNL     1      44.163   3.549  11.380  0.00  0.00    +0.000 A 
ATOM      3  C   UNL     1      43.271   4.599  11.508  0.00  0.00    +0.000 A 
ATOM      4  C   UNL     1      43.538   5.567  12.470  0.00  0.00    +0.000 A 
ATOM      5  C   UNL     1      44.686   5.460  13.255  0.00  0.00    +0.000 A 
ATOM      6  C   UNL     1      45.550   4.392  13.036  0.00  0.00    +0.000 A 
ATOM      7  N   UNL     1      45.297   3.441  12.106  0.00  0.00    +0.000 NA
BRANCH   2   8
ATOM      8  O   UNL     1      43.872   2.575  10.443  0.00  0.00    +0.000 OA
BRANCH   8   9
ATOM      9  C   UNL     1      44.462   2.891   9.174  0.00  0.00    +0.000 C 
BRANCH   9  10
ATOM     10  C   UNL     1      45.407   1.763   8.733  0.00  0.00    +0.000 C 
BRANCH  10  12
ATOM     11  C   UNL     1      47.152   1.110   7.199  0.00  0.00    +0.000 C 
ATOM     12  N   UNL     1      46.574   2.224   7.953  0.00  0.00    +0.000 NA
ATOM     13  C   UNL     1      46.240   3.320   7.039  0.00  0.00    +0.000 C 
ENDBRANCH  10  12
ENDBRANCH   9  10
ENDBRANCH   8   9
ENDBRANCH   2   8
ENDBRANCH   1   6
BRANCH   1  14
ATOM     14  O   UNL     1      46.449   4.001  15.215  0.00  0.00    +0.000 OA
BRANCH  14  15
ATOM     15  C   UNL     1      47.401   4.251  16.164  0.00  0.00    +0.000 A 
ATOM     16  C   UNL     1      48.245   5.361  16.212  0.00  0.00    +0.000 A 
ATOM     17  C   UNL     1      49.168   5.494  17.256  0.00  0.00    +0.000 A 
ATOM     18  C   UNL     1      49.251   4.524  18.262  0.00  0.00    +0.000 A 
ATOM     19  C   UNL     1      48.417   3.404  18.207  0.00  0.00    +0.000 A 
ATOM     20  C   UNL     1      47.499   3.275  17.160  0.00  0.00    +0.000 A 
BRANCH  18  21
ATOM     21  C   UNL     1      50.260   4.708  19.338  0.00  0.00    +0.000 C 
ATOM     22  N   UNL     1      49.880   4.431  20.620  0.00  0.00    +0.000 N 
ATOM     23  O   UNL     1      51.388   5.124  19.093  0.00  0.00    +0.000 OA
ATOM     24  H   UNL     1      48.917   4.301  20.893  0.00  0.00    +0.000 HD
ATOM     25  H   UNL     1      50.553   4.649  21.344  0.00  0.00    +0.000 HD
ENDBRANCH  18  21
ENDBRANCH  14  15
ENDBRANCH   1  14
TORSDOF 8
ENDMDL
MODEL 7
REMARK VINA RESULT:    -6.056      3.277      7.244
REMARK INTER + INTRA:          -9.522
REMARK INTER:                  -8.854
REMARK INTRA:                  -0.668
REMARK UNBOUND:                -0.634
REMARK  Name = 
REMARK  10 active torsions:
REMARK  status: ('A' for Active; 'I' for Inactive)
REMARK    1  A    between atoms: C_1  and  N_2
REMARK    2  A    between atoms: N_2  and  C_3
REMARK    3  A    between atoms: N_2  and  C_4
REMARK    4  A    between atoms: C_4  and  C_5
REMARK    5  A    between atoms: C_5  and  O_6
REMARK    6  A    between atoms: O_6  and  C_7
REMARK    7  A    between atoms: C_11  and  C_12
REMARK    8  A    between atoms: C_12  and  O_13
REMARK    9  A    between atoms: O_13  and  C_14
REMARK   10  A    between atoms: C_17  and  C_18
REMARK                            x       y       z     vdW  Elec       q    Type
REMARK                         _______ _______ _______ _____ _____    ______ ____
ROOT
ATOM      1  C   UNL     1      46.792   4.710  13.292  0.00  0.00    +0.000 C 
ENDROOT
BRANCH   1   6
ATOM      2  C   UNL     1      44.027   3.526  11.162  0.00  0.00    +0.000 A 
ATOM      3  C   UNL     1      42.930   4.278  11.542  0.00  0.00    +0.000 A 
ATOM      4  C   UNL     1      43.098   5.204  12.567  0.00  0.00    +0.000 A 
ATOM      5  C   UNL     1      44.351   5.356  13.160  0.00  0.00    +0.000 A 
ATOM      6  C   UNL     1      45.411   4.586  12.691  0.00  0.00    +0.000 A 
ATOM      7  N   UNL     1      45.257   3.677  11.699  0.00  0.00    +0.000 NA
BRANCH   2   8
ATOM      8  O   UNL     1      43.842   2.586  10.165  0.00  0.00    +0.000 OA
BRANCH   8   9
ATOM      9  C   UNL     1      44.574   2.941   8.983  0.00  0.00    +0.000 C 
BRANCH   9  10
ATOM     10  C   UNL     1      45.603   1.850   8.650  0.00  0.00    +0.000 C 
BRANCH  10  12
ATOM     11  C   UNL     1      47.287   1.180   7.056  0.00  0.00    +0.000 C 
ATOM     12  N   UNL     1      46.712   2.310   7.789  0.00  0.00    +0.000 NA
ATOM     13  C   UNL     1      46.294   3.351   6.845  0.00  0.00    +0.000 C 
ENDBRANCH  10  12
ENDBRANCH   9  10
ENDBRANCH   8   9
ENDBRANCH   2   8
ENDBRANCH   1   6
BRANCH   1  14
ATOM     14  O   UNL     1      46.875   5.947  14.001  0.00  0.00    +0.000 OA
BRANCH  14  15
ATOM     15  C   UNL     1      47.383   7.021  13.326  0.00  0.00    +0.000 A 
ATOM     16  C   UNL     1      46.804   8.288  13.239  0.00  0.00    +0.000 A 
ATOM     17  C   UNL     1      47.447   9.304  12.522  0.00  0.00    +0.000 A 
ATOM     18  C   UNL     1      48.674   9.064  11.892  0.00  0.00    +0.000 A 
ATOM     19  C   UNL     1      49.248   7.793  11.966  0.00  0.00    +0.000 A 
ATOM     20  C   UNL     1      48.600   6.780  12.681  0.00  0.00    +0.000 A 
BRANCH  18  21
ATOM     21  C   UNL     1      49.304  10.174  11.130  0.00  0.00    +0.000 C 
ATOM     22  N   UNL     1      50.668  10.268  11.154  0.00  0.00    +0.000 N 
ATOM     23  O   UNL     1      48.629  11.000  10.525  0.00  0.00    +0.000 OA
ATOM     24  H   UNL     1      51.243   9.755  11.805  0.00  0.00    +0.000 HD
ATOM     25  H   UNL     1      51.068  11.082  10.705  0.00  0.00    +0.000 HD
ENDBRANCH  18  21
ENDBRANCH  14  15
ENDBRANCH   1  14
TORSDOF 8
ENDMDL
MODEL 8
REMARK VINA RESULT:    -5.958      2.759      8.605
REMARK INTER + INTRA:          -9.377
REMARK INTER:                  -8.750
REMARK INTRA:                  -0.628
REMARK UNBOUND:                -0.634
REMARK  Name = 
REMARK  10 active torsions:
REMARK  status: ('A' for Active; 'I' for Inactive)
REMARK    1  A    between atoms: C_1  and  N_2
REMARK    2  A    between atoms: N_2  and  C_3
REMARK    3  A    between atoms: N_2  and  C_4
REMARK    4  A    between atoms: C_4  and  C_5
REMARK    5  A    between atoms: C_5  and  O_6
REMARK    6  A    between atoms: O_6  and  C_7
REMARK    7  A    between atoms: C_11  and  C_12
REMARK    8  A    between atoms: C_12  and  O_13
REMARK    9  A    between atoms: O_13  and  C_14
REMARK   10  A    between atoms: C_17  and  C_18
REMARK                            x       y       z     vdW  Elec       q    Type
REMARK                         _______ _______ _______ _____ _____    ______ ____
ROOT
ATOM      1  C   UNL     1      47.779   4.467  16.991  0.00  0.00    +0.000 C 
ENDROOT
BRANCH   1   6
ATOM      2  C   UNL     1      46.397   4.140  13.590  0.00  0.00    +0.000 A 
ATOM      3  C   UNL     1      46.850   5.254  12.907  0.00  0.00    +0.000 A 
ATOM      4  C   UNL     1      47.628   6.174  13.603  0.00  0.00    +0.000 A 
ATOM      5  C   UNL     1      47.936   5.941  14.943  0.00  0.00    +0.000 A 
ATOM      6  C   UNL     1      47.472   4.775  15.544  0.00  0.00    +0.000 A 
ATOM      7  N   UNL     1      46.710   3.876  14.878  0.00  0.00    +0.000 NA
BRANCH   2   8
ATOM      8  O   UNL     1      45.598   3.248  12.899  0.00  0.00    +0.000 OA
BRANCH   8   9
ATOM      9  C   UNL     1      44.262   3.754  12.766  0.00  0.00    +0.000 C 
BRANCH   9  10
ATOM     10  C   UNL     1      43.461   2.880  11.788  0.00  0.00    +0.000 C 
BRANCH  10  12
ATOM     11  C   UNL     1      43.808   4.725  10.271  0.00  0.00    +0.000 C 
ATOM     12  N   UNL     1      43.600   3.279  10.372  0.00  0.00    +0.000 NA
ATOM     13  C   UNL     1      44.692   2.573   9.695  0.00  0.00    +0.000 C 
ENDBRANCH  10  12
ENDBRANCH   9  10
ENDBRANCH   8   9
ENDBRANCH   2   8
ENDBRANCH   1   6
BRANCH   1  14
ATOM     14  O   UNL     1      49.113   4.888  17.278  0.00  0.00    +0.000 OA
BRANCH  14  15
ATOM     15  C   UNL     1      50.058   3.912  17.427  0.00  0.00    +0.000 A 
ATOM     16  C   UNL     1      49.880   2.550  17.183  0.00  0.00    +0.000 A 
ATOM     17  C   UNL     1      50.946   1.661  17.364  0.00  0.00    +0.000 A 
ATOM     18  C   UNL     1      52.199   2.126  17.784  0.00  0.00    +0.000 A 
ATOM     19  C   UNL     1      52.374   3.488  18.043  0.00  0.00    +0.000 A 
ATOM     20  C   UNL     1      51.304   4.371  17.863  0.00  0.00    +0.000 A 
BRANCH  18  21
ATOM     21  C   UNL     1      53.291   1.137  17.976  0.00  0.00    +0.000 C 
ATOM     22  N   UNL     1      54.024   1.214  19.127  0.00  0.00    +0.000 N 
ATOM     23  O   UNL     1      53.551   0.297  17.121  0.00  0.00    +0.000 OA
ATOM     24  H   UNL     1      53.993   2.010  19.747  0.00  0.00    +0.000 HD
ATOM     25  H   UNL     1      54.818   0.590  19.194  0.00  0.00    +0.000 HD
ENDBRANCH  18  21
ENDBRANCH  14  15
ENDBRANCH   1  14
TORSDOF 8
ENDMDL
MODEL 9
REMARK VINA RESULT:    -5.829      1.956      8.022
REMARK INTER + INTRA:          -9.189
REMARK INTER:                  -8.619
REMARK INTRA:                  -0.571
REMARK UNBOUND:                -0.634
REMARK  Name = 
REMARK  10 active torsions:
REMARK  status: ('A' for Active; 'I' for Inactive)
REMARK    1  A    between atoms: C_1  and  N_2
REMARK    2  A    between atoms: N_2  and  C_3
REMARK    3  A    between atoms: N_2  and  C_4
REMARK    4  A    between atoms: C_4  and  C_5
REMARK    5  A    between atoms: C_5  and  O_6
REMARK    6  A    between atoms: O_6  and  C_7
REMARK    7  A    between atoms: C_11  and  C_12
REMARK    8  A    between atoms: C_12  and  O_13
REMARK    9  A    between atoms: O_13  and  C_14
REMARK   10  A    between atoms: C_17  and  C_18
REMARK                            x       y       z     vdW  Elec       q    Type
REMARK                         _______ _______ _______ _____ _____    ______ ____
ROOT
ATOM      1  C   UNL     1      45.787   6.572  12.330  0.00  0.00    +0.000 C 
ENDROOT
BRANCH   1   6
ATOM      2  C   UNL     1      44.591   3.560  10.575  0.00  0.00    +0.000 A 
ATOM      3  C   UNL     1      43.469   3.155  11.275  0.00  0.00    +0.000 A 
ATOM      4  C   UNL     1      43.098   3.892  12.395  0.00  0.00    +0.000 A 
ATOM      5  C   UNL     1      43.847   5.008  12.764  0.00  0.00    +0.000 A 
ATOM      6  C   UNL     1      44.941   5.370  11.982  0.00  0.00    +0.000 A 
ATOM      7  N   UNL     1      45.314   4.656  10.894  0.00  0.00    +0.000 NA
BRANCH   2   8
ATOM      8  O   UNL     1      44.971   2.802   9.483  0.00  0.00    +0.000 OA
BRANCH   8   9
ATOM      9  C   UNL     1      44.858   3.559   8.269  0.00  0.00    +0.000 C 
BRANCH   9  10
ATOM     10  C   UNL     1      46.212   3.601   7.544  0.00  0.00    +0.000 C 
BRANCH  10  12
ATOM     11  C   UNL     1      47.085   2.924   5.399  0.00  0.00    +0.000 C 
ATOM     12  N   UNL     1      46.441   2.463   6.630  0.00  0.00    +0.000 NA
ATOM     13  C   UNL     1      47.247   1.404   7.244  0.00  0.00    +0.000 C 
ENDBRANCH  10  12
ENDBRANCH   9  10
ENDBRANCH   8   9
ENDBRANCH   2   8
ENDBRANCH   1   6
BRANCH   1  14
ATOM     14  O   UNL     1      47.128   6.139  12.561  0.00  0.00    +0.000 OA
BRANCH  14  15
ATOM     15  C   UNL     1      47.464   5.803  13.842  0.00  0.00    +0.000 A 
ATOM     16  C   UNL     1      47.033   4.672  14.537  0.00  0.00    +0.000 A 
ATOM     17  C   UNL     1      47.472   4.445  15.847  0.00  0.00    +0.000 A 
ATOM     18  C   UNL     1      48.350   5.341  16.470  0.00  0.00    +0.000 A 
ATOM     19  C   UNL     1      48.771   6.481  15.780  0.00  0.00    +0.000 A 
ATOM     20  C   UNL     1      48.327   6.704  14.473  0.00  0.00    +0.000 A 
BRANCH  18  21
ATOM     21  C   UNL     1      48.771   5.060  17.867  0.00  0.00    +0.000 C 
ATOM     22  N   UNL     1      50.101   4.844  18.098  0.00  0.00    +0.000 N 
ATOM     23  O   UNL     1      47.956   4.991  18.780  0.00  0.00    +0.000 OA
ATOM     24  H   UNL     1      50.768   4.675  17.360  0.00  0.00    +0.000 HD
ATOM     25  H   UNL     1      50.352   4.566  19.039  0.00  0.00    +0.000 HD
ENDBRANCH  18  21
ENDBRANCH  14  15
ENDBRANCH   1  14
TORSDOF 8
ENDMDL
