MODEL 1
REMARK VINA RESULT:    -7.480      0.000      0.000
REMARK INTER + INTRA:         -10.646
REMARK INTER:                 -10.103
REMARK INTRA:                  -0.542
REMARK UNBOUND:                -0.542
REMARK  Name = 
REMARK  8 active torsions:
REMARK  status: ('A' for Active; 'I' for Inactive)
REMARK    1  A    between atoms: C_1  and  O_2
REMARK    2  A    between atoms: O_2  and  C_3
REMARK    3  A    between atoms: C_7  and  N_8
REMARK    4  A    between atoms: N_8  and  C_9
REMARK    5  A    between atoms: C_9  and  C_10
REMARK    6  A    between atoms: C_14  and  C_15
REMARK    7  A    between atoms: C_19  and  O_20
REMARK    8  A    between atoms: O_20  and  C_21
REMARK                            x       y       z     vdW  Elec       q    Type
REMARK                         _______ _______ _______ _____ _____    ______ ____
ROOT
ATOM      1  C   UNL     1      44.790   4.079  12.162  0.00  0.00    +0.000 A 
ATOM      2  C   UNL     1      45.705   3.331  12.908  0.00  0.00    +0.000 A 
ATOM      3  C   UNL     1      46.799   3.955  13.506  0.00  0.00    +0.000 A 
ATOM      4  C   UNL     1      46.986   5.333  13.368  0.00  0.00    +0.000 A 
ATOM      5  C   UNL     1      46.088   6.123  12.631  0.00  0.00    +0.000 A 
ATOM      6  C   UNL     1      44.982   5.468  12.049  0.00  0.00    +0.000 A 
ENDROOT
BRANCH   5   7
ATOM      7  C   UNL     1      46.306   7.574  12.438  0.00  0.00    +0.000 A 
ATOM      8  C   UNL     1      47.581   8.116  12.248  0.00  0.00    +0.000 A 
ATOM      9  N   UNL     1      47.847   9.427  12.030  0.00  0.00    +0.000 NA
ATOM     10  C   UNL     1      46.780  10.254  11.982  0.00  0.00    +0.000 A 
ATOM     11  C   UNL     1      45.464   9.845  12.152  0.00  0.00    +0.000 A 
ATOM     12  C   UNL     1      45.239   8.489  12.395  0.00  0.00    +0.000 A 
BRANCH  11  13
ATOM     13  O   UNL     1      44.511  10.819  12.056  0.00  0.00    +0.000 OA
ATOM     14  C   UNL     1      43.649  10.759  10.925  0.00  0.00    +0.000 C 
ENDBRANCH  11  13
ENDBRANCH   5   7
BRANCH   1  15
ATOM     15  C   UNL     1      43.627   3.410  11.465  0.00  0.00    +0.000 C 
BRANCH  15  16
ATOM     16  N   UNL     1      44.100   2.354  10.585  0.00  0.00    +0.000 N 
ATOM     17  H   UNL     1      44.491   1.555  11.080  0.00  0.00    +0.000 HD
BRANCH  16  22
ATOM     18  C   UNL     1      46.402   2.199   7.643  0.00  0.00    +0.000 A 
ATOM     19  C   UNL     1      46.273   3.520   7.238  0.00  0.00    +0.000 A 
ATOM     20  N   UNL     1      45.456   4.417   7.832  0.00  0.00    +0.000 NA
ATOM     21  C   UNL     1      44.754   3.967   8.899  0.00  0.00    +0.000 A 
ATOM     22  C   UNL     1      44.792   2.663   9.410  0.00  0.00    +0.000 A 
ATOM     23  C   UNL     1      45.670   1.785   8.760  0.00  0.00    +0.000 A 
BRANCH  18  25
ATOM     24  C   UNL     1      48.091   2.128   6.002  0.00  0.00    +0.000 C 
ATOM     25  O   UNL     1      47.289   1.429   6.949  0.00  0.00    +0.000 OA
ENDBRANCH  18  25
ENDBRANCH  16  22
ENDBRANCH  15  16
ENDBRANCH   1  15
TORSDOF 6
ENDMDL
MODEL 2
REMARK VINA RESULT:    -7.301      1.955      2.640
REMARK INTER + INTRA:         -10.404
REMARK INTER:                  -9.580
REMARK INTRA:                  -0.824
REMARK UNBOUND:                -0.542
REMARK  Name = 
REMARK  8 active torsions:
REMARK  status: ('A' for Active; 'I' for Inactive)
REMARK    1  A    between atoms: C_1  and  O_2
REMARK    2  A    between atoms: O_2  and  C_3
REMARK    3  A    between atoms: C_7  and  N_8
REMARK    4  A    between atoms: N_8  and  C_9
REMARK    5  A    between atoms: C_9  and  C_10
REMARK    6  A    between atoms: C_14  and  C_15
REMARK    7  A    between atoms: C_19  and  O_20
REMARK    8  A    between atoms: O_20  and  C_21
REMARK                            x       y       z     vdW  Elec       q    Type
REMARK                         _______ _______ _______ _____ _____    ______ ____
ROOT
ATOM      1  C   UNL     1      44.659   4.965  11.720  0.00  0.00    +0.000 A 
ATOM      2  C   UNL     1      45.177   4.019  12.609  0.00  0.00    +0.000 A 
ATOM      3  C   UNL     1      46.338   4.294  13.329  0.00  0.00    +0.000 A 
ATOM      4  C   UNL     1      46.991   5.520  13.170  0.00  0.00    +0.000 A 
ATOM      5  C   UNL     1      46.503   6.501  12.291  0.00  0.00    +0.000 A 
ATOM      6  C   UNL     1      45.317   6.202  11.587  0.00  0.00    +0.000 A 
ENDROOT
BRANCH   5   7
ATOM      7  C   UNL     1      47.215   7.781  12.080  0.00  0.00    +0.000 A 
ATOM      8  C   UNL     1      46.576   9.018  12.210  0.00  0.00    +0.000 A 
ATOM      9  N   UNL     1      47.175  10.225  12.067  0.00  0.00    +0.000 NA
ATOM     10  C   UNL     1      48.497  10.207  11.790  0.00  0.00    +0.000 A 
ATOM     11  C   UNL     1      49.250   9.050  11.638  0.00  0.00    +0.000 A 
ATOM     12  C   UNL     1      48.586   7.830  11.773  0.00  0.00    +0.000 A 
BRANCH  11  13
ATOM     13  O   UNL     1      50.579   9.225  11.376  0.00  0.00    +0.000 OA
ATOM     14  C   UNL     1      50.945  10.425  10.705  0.00  0.00    +0.000 C 
ENDBRANCH  11  13
ENDBRANCH   5   7
BRANCH   1  15
ATOM     15  C   UNL     1      43.430   4.663  10.894  0.00  0.00    +0.000 C 
BRANCH  15  16
ATOM     16  N   UNL     1      43.766   4.612   9.481  0.00  0.00    +0.000 N 
ATOM     17  H   UNL     1      42.961   4.714   8.866  0.00  0.00    +0.000 HD
BRANCH  16  22
ATOM     18  C   UNL     1      46.579   3.021   7.601  0.00  0.00    +0.000 A 
ATOM     19  C   UNL     1      46.326   1.706   7.968  0.00  0.00    +0.000 A 
ATOM     20  N   UNL     1      45.341   1.334   8.814  0.00  0.00    +0.000 NA
ATOM     21  C   UNL     1      44.561   2.331   9.295  0.00  0.00    +0.000 A 
ATOM     22  C   UNL     1      44.706   3.694   9.005  0.00  0.00    +0.000 A 
ATOM     23  C   UNL     1      45.736   4.014   8.109  0.00  0.00    +0.000 A 
BRANCH  18  25
ATOM     24  C   UNL     1      47.932   2.105   5.904  0.00  0.00    +0.000 C 
ATOM     25  O   UNL     1      47.598   3.225   6.718  0.00  0.00    +0.000 OA
ENDBRANCH  18  25
ENDBRANCH  16  22
ENDBRANCH  15  16
ENDBRANCH   1  15
TORSDOF 6
ENDMDL
MODEL 3
REMARK VINA RESULT:    -7.282      3.038      4.678
REMARK INTER + INTRA:         -10.378
REMARK INTER:                  -9.552
REMARK INTRA:                  -0.826
REMARK UNBOUND:                -0.542
REMARK  Name = 
REMARK  8 active torsions:
REMARK  status: ('A' for Active; 'I' for Inactive)
REMARK    1  A    between atoms: C_1  and  O_2
REMARK    2  A    between atoms: O_2  and  C_3
REMARK    3  A    between atoms: C_7  and  N_8
REMARK    4  A    between atoms: N_8  and  C_9
REMARK    5  A    between atoms: C_9  and  C_10
REMARK    6  A    between atoms: C_14  and  C_15
REMARK    7  A    between atoms: C_19  and  O_20
REMARK    8  A    between atoms: O_20  and  C_21
REMARK                            x       y       z     vdW  Elec       q    Type
REMARK                         _______ _______ _______ _____ _____    ______ ____
ROOT
ATOM      1  C   UNL     1      44.796   5.459  11.823  0.00  0.00    +0.000 A 
ATOM      2  C   UNL     1      45.341   6.685  11.431  0.00  0.00    +0.000 A 
ATOM      3  C   UNL     1      46.449   7.206  12.098  0.00  0.00    +0.000 A 
ATOM      4  C   UNL     1      47.025   6.505  13.160  0.00  0.00    +0.000 A 
ATOM      5  C   UNL     1      46.512   5.268  13.584  0.00  0.00    +0.000 A 
ATOM      6  C   UNL     1      45.400   4.757  12.882  0.00  0.00    +0.000 A 
ENDROOT
BRANCH   5   7
ATOM      7  C   UNL     1      47.085   4.543  14.740  0.00  0.00    +0.000 A 
ATOM      8  C   UNL     1      47.496   3.209  14.652  0.00  0.00    +0.000 A 
ATOM      9  N   UNL     1      48.061   2.498  15.658  0.00  0.00    +0.000 NA
ATOM     10  C   UNL     1      48.244   3.154  16.825  0.00  0.00    +0.000 A 
ATOM     11  C   UNL     1      47.884   4.477  17.044  0.00  0.00    +0.000 A 
ATOM     12  C   UNL     1      47.286   5.163  15.986  0.00  0.00    +0.000 A 
BRANCH  11  13
ATOM     13  O   UNL     1      48.159   4.981  18.283  0.00  0.00    +0.000 OA
ATOM     14  C   UNL     1      47.167   5.816  18.868  0.00  0.00    +0.000 C 
ENDBRANCH  11  13
ENDBRANCH   5   7
BRANCH   1  15
ATOM     15  C   UNL     1      43.564   4.905  11.145  0.00  0.00    +0.000 C 
BRANCH  15  16
ATOM     16  N   UNL     1      43.771   4.818   9.709  0.00  0.00    +0.000 N 
ATOM     17  H   UNL     1      42.916   4.920   9.167  0.00  0.00    +0.000 HD
BRANCH  16  22
ATOM     18  C   UNL     1      46.359   3.129   7.605  0.00  0.00    +0.000 A 
ATOM     19  C   UNL     1      46.138   1.831   8.046  0.00  0.00    +0.000 A 
ATOM     20  N   UNL     1      45.247   1.501   9.005  0.00  0.00    +0.000 NA
ATOM     21  C   UNL     1      44.527   2.523   9.527  0.00  0.00    +0.000 A 
ATOM     22  C   UNL     1      44.650   3.873   9.171  0.00  0.00    +0.000 A 
ATOM     23  C   UNL     1      45.581   4.148   8.161  0.00  0.00    +0.000 A 
BRANCH  18  25
ATOM     24  C   UNL     1      47.933   2.097   6.188  0.00  0.00    +0.000 C 
ATOM     25  O   UNL     1      47.281   3.289   6.611  0.00  0.00    +0.000 OA
ENDBRANCH  18  25
ENDBRANCH  16  22
ENDBRANCH  15  16
ENDBRANCH   1  15
TORSDOF 6
ENDMDL
MODEL 4
REMARK VINA RESULT:    -7.018      2.865      4.448
REMARK INTER + INTRA:         -10.022
REMARK INTER:                  -9.707
REMARK INTRA:                  -0.314
REMARK UNBOUND:                -0.542
REMARK  Name = 
REMARK  8 active torsions:
REMARK  status: ('A' for Active; 'I' for Inactive)
REMARK    1  A    between atoms: C_1  and  O_2
REMARK    2  A    between atoms: O_2  and  C_3
REMARK    3  A    between atoms: C_7  and  N_8
REMARK    4  A    between atoms: N_8  and  C_9
REMARK    5  A    between atoms: C_9  and  C_10
REMARK    6  A    between atoms: C_14  and  C_15
REMARK    7  A    between atoms: C_19  and  O_20
REMARK    8  A    between atoms: O_20  and  C_21
REMARK                            x       y       z     vdW  Elec       q    Type
REMARK                         _______ _______ _______ _____ _____    ______ ____
ROOT
ATOM      1  C   UNL     1      44.156   5.711  11.916  0.00  0.00    +0.000 A 
ATOM      2  C   UNL     1      44.363   6.965  11.334  0.00  0.00    +0.000 A 
ATOM      3  C   UNL     1      45.436   7.758  11.739  0.00  0.00    +0.000 A 
ATOM      4  C   UNL     1      46.315   7.303  12.726  0.00  0.00    +0.000 A 
ATOM      5  C   UNL     1      46.146   6.047  13.333  0.00  0.00    +0.000 A 
ATOM      6  C   UNL     1      45.062   5.259  12.894  0.00  0.00    +0.000 A 
ENDROOT
BRANCH   5   7
ATOM      7  C   UNL     1      47.043   5.579  14.414  0.00  0.00    +0.000 A 
ATOM      8  C   UNL     1      48.179   6.296  14.801  0.00  0.00    +0.000 A 
ATOM      9  N   UNL     1      49.020   5.945  15.804  0.00  0.00    +0.000 NA
ATOM     10  C   UNL     1      48.709   4.816  16.477  0.00  0.00    +0.000 A 
ATOM     11  C   UNL     1      47.611   4.013  16.196  0.00  0.00    +0.000 A 
ATOM     12  C   UNL     1      46.785   4.404  15.141  0.00  0.00    +0.000 A 
BRANCH  11  13
ATOM     13  O   UNL     1      47.445   2.916  16.991  0.00  0.00    +0.000 OA
ATOM     14  C   UNL     1      48.123   2.926  18.242  0.00  0.00    +0.000 C 
ENDBRANCH  11  13
ENDBRANCH   5   7
BRANCH   1  15
ATOM     15  C   UNL     1      42.969   4.861  11.525  0.00  0.00    +0.000 C 
BRANCH  15  16
ATOM     16  N   UNL     1      43.398   3.516  11.179  0.00  0.00    +0.000 N 
ATOM     17  H   UNL     1      43.728   2.976  11.976  0.00  0.00    +0.000 HD
BRANCH  16  22
ATOM     18  C   UNL     1      45.587   1.947   8.586  0.00  0.00    +0.000 A 
ATOM     19  C   UNL     1      45.759   3.068   7.786  0.00  0.00    +0.000 A 
ATOM     20  N   UNL     1      45.171   4.260   8.020  0.00  0.00    +0.000 NA
ATOM     21  C   UNL     1      44.391   4.333   9.125  0.00  0.00    +0.000 A 
ATOM     22  C   UNL     1      44.136   3.281  10.015  0.00  0.00    +0.000 A 
ATOM     23  C   UNL     1      44.787   2.075   9.725  0.00  0.00    +0.000 A 
BRANCH  18  25
ATOM     24  C   UNL     1      47.289   1.021   7.246  0.00  0.00    +0.000 C 
ATOM     25  O   UNL     1      46.272   0.824   8.222  0.00  0.00    +0.000 OA
ENDBRANCH  18  25
ENDBRANCH  16  22
ENDBRANCH  15  16
ENDBRANCH   1  15
TORSDOF 6
ENDMDL
MODEL 5
REMARK VINA RESULT:    -6.860      3.775      7.509
REMARK INTER + INTRA:          -9.809
REMARK INTER:                  -9.165
REMARK INTRA:                  -0.644
REMARK UNBOUND:                -0.542
REMARK  Name = 
REMARK  8 active torsions:
REMARK  status: ('A' for Active; 'I' for Inactive)
REMARK    1  A    between atoms: C_1  and  O_2
REMARK    2  A    between atoms: O_2  and  C_3
REMARK    3  A    between atoms: C_7  and  N_8
REMARK    4  A    between atoms: N_8  and  C_9
REMARK    5  A    between atoms: C_9  and  C_10
REMARK    6  A    between atoms: C_14  and  C_15
REMARK    7  A    between atoms: C_19  and  O_20
REMARK    8  A    between atoms: O_20  and  C_21
REMARK                            x       y       z     vdW  Elec       q    Type
REMARK                         _______ _______ _______ _____ _____    ______ ____
ROOT
ATOM      1  C   UNL     1      47.373   7.268  13.398  0.00  0.00    +0.000 A 
ATOM      2  C   UNL     1      46.720   8.504  13.402  0.00  0.00    +0.000 A 
ATOM      3  C   UNL     1      45.622   8.722  12.571  0.00  0.00    +0.000 A 
ATOM      4  C   UNL     1      45.162   7.703  11.732  0.00  0.00    +0.000 A 
ATOM      5  C   UNL     1      45.785   6.445  11.699  0.00  0.00    +0.000 A 
ATOM      6  C   UNL     1      46.884   6.247  12.561  0.00  0.00    +0.000 A 
ENDROOT
BRANCH   5   7
ATOM      7  C   UNL     1      45.335   5.378  10.777  0.00  0.00    +0.000 A 
ATOM      8  C   UNL     1      44.339   4.461  11.129  0.00  0.00    +0.000 A 
ATOM      9  N   UNL     1      43.856   3.486  10.323  0.00  0.00    +0.000 NA
ATOM     10  C   UNL     1      44.384   3.420   9.081  0.00  0.00    +0.000 A 
ATOM     11  C   UNL     1      45.375   4.269   8.605  0.00  0.00    +0.000 A 
ATOM     12  C   UNL     1      45.857   5.245   9.478  0.00  0.00    +0.000 A 
BRANCH  11  13
ATOM     13  O   UNL     1      45.777   4.065   7.316  0.00  0.00    +0.000 OA
ATOM     14  C   UNL     1      46.718   3.021   7.099  0.00  0.00    +0.000 C 
ENDBRANCH  11  13
ENDBRANCH   5   7
BRANCH   1  15
ATOM     15  C   UNL     1      48.595   7.033  14.255  0.00  0.00    +0.000 C 
BRANCH  15  16
ATOM     16  N   UNL     1      48.211   6.800  15.637  0.00  0.00    +0.000 N 
ATOM     17  H   UNL     1      48.518   7.531  16.274  0.00  0.00    +0.000 HD
BRANCH  16  22
ATOM     18  C   UNL     1      49.425   3.734  17.398  0.00  0.00    +0.000 A 
ATOM     19  C   UNL     1      48.405   2.878  17.004  0.00  0.00    +0.000 A 
ATOM     20  N   UNL     1      47.347   3.258  16.256  0.00  0.00    +0.000 NA
ATOM     21  C   UNL     1      47.328   4.555  15.866  0.00  0.00    +0.000 A 
ATOM     22  C   UNL     1      48.291   5.519  16.192  0.00  0.00    +0.000 A 
ATOM     23  C   UNL     1      49.370   5.059  16.958  0.00  0.00    +0.000 A 
BRANCH  18  25
ATOM     24  C   UNL     1      51.728   3.726  17.892  0.00  0.00    +0.000 C 
ATOM     25  O   UNL     1      50.434   3.185  18.135  0.00  0.00    +0.000 OA
ENDBRANCH  18  25
ENDBRANCH  16  22
ENDBRANCH  15  16
ENDBRANCH   1  15
TORSDOF 6
ENDMDL
MODEL 6
REMARK VINA RESULT:    -6.456      4.355      7.763
REMARK INTER + INTRA:          -9.263
REMARK INTER:                  -8.540
REMARK INTRA:                  -0.723
REMARK UNBOUND:                -0.542
REMARK  Name = 
REMARK  8 active torsions:
REMARK  status: ('A' for Active; 'I' for Inactive)
REMARK    1  A    between atoms: C_1  and  O_2
REMARK    2  A    between atoms: O_2  and  C_3
REMARK    3  A    between atoms: C_7  and  N_8
REMARK    4  A    between atoms: N_8  and  C_9
REMARK    5  A    between atoms: C_9  and  C_10
REMARK    6  A    between atoms: C_14  and  C_15
REMARK    7  A    between atoms: C_19  and  O_20
REMARK    8  A    between atoms: O_20  and  C_21
REMARK                            x       y       z     vdW  Elec       q    Type
REMARK                         _______ _______ _______ _____ _____    ______ ____
ROOT
ATOM      1  C   UNL     1      48.194   6.898  14.056  0.00  0.00    +0.000 A 
ATOM      2  C   UNL     1      48.682   7.680  13.005  0.00  0.00    +0.000 A 
ATOM      3  C   UNL     1      48.124   7.572  11.733  0.00  0.00    +0.000 A 
ATOM      4  C   UNL     1      47.071   6.684  11.498  0.00  0.00    +0.000 A 
ATOM      5  C   UNL     1      46.547   5.882  12.526  0.00  0.00    +0.000 A 
ATOM      6  C   UNL     1      47.120   6.023  13.808  0.00  0.00    +0.000 A 
ENDROOT
BRANCH   5   7
ATOM      7  C   UNL     1      45.466   4.903  12.276  0.00  0.00    +0.000 A 
ATOM      8  C   UNL     1      44.501   4.597  13.241  0.00  0.00    +0.000 A 
ATOM      9  N   UNL     1      43.466   3.741  13.066  0.00  0.00    +0.000 NA
ATOM     10  C   UNL     1      43.370   3.159  11.851  0.00  0.00    +0.000 A 
ATOM     11  C   UNL     1      44.258   3.377  10.806  0.00  0.00    +0.000 A 
ATOM     12  C   UNL     1      45.321   4.251  11.039  0.00  0.00    +0.000 A 
BRANCH  11  13
ATOM     13  O   UNL     1      43.996   2.714   9.641  0.00  0.00    +0.000 OA
ATOM     14  C   UNL     1      44.619   3.218   8.466  0.00  0.00    +0.000 C 
ENDBRANCH  11  13
ENDBRANCH   5   7
BRANCH   1  15
ATOM     15  C   UNL     1      48.820   6.966  15.430  0.00  0.00    +0.000 C 
BRANCH  15  16
ATOM     16  N   UNL     1      48.124   6.084  16.351  0.00  0.00    +0.000 N 
ATOM     17  H   UNL     1      47.615   6.577  17.082  0.00  0.00    +0.000 HD
BRANCH  16  22
ATOM     18  C   UNL     1      50.587   3.609  17.688  0.00  0.00    +0.000 A 
ATOM     19  C   UNL     1      49.862   2.458  17.411  0.00  0.00    +0.000 A 
ATOM     20  N   UNL     1      48.624   2.457  16.871  0.00  0.00    +0.000 NA
ATOM     21  C   UNL     1      48.101   3.671  16.575  0.00  0.00    +0.000 A 
ATOM     22  C   UNL     1      48.725   4.905  16.802  0.00  0.00    +0.000 A 
ATOM     23  C   UNL     1      50.014   4.839  17.350  0.00  0.00    +0.000 A 
BRANCH  18  25
ATOM     24  C   UNL     1      52.803   4.399  17.812  0.00  0.00    +0.000 C 
ATOM     25  O   UNL     1      51.834   3.436  18.213  0.00  0.00    +0.000 OA
ENDBRANCH  18  25
ENDBRANCH  16  22
ENDBRANCH  15  16
ENDBRANCH   1  15
TORSDOF 6
ENDMDL
MODEL 7
REMARK VINA RESULT:    -6.155      3.272      7.988
REMARK INTER + INTRA:          -8.856
REMARK INTER:                  -8.001
REMARK INTRA:                  -0.856
REMARK UNBOUND:                -0.542
REMARK  Name = 
REMARK  8 active torsions:
REMARK  status: ('A' for Active; 'I' for Inactive)
REMARK    1  A    between atoms: C_1  and  O_2
REMARK    2  A    between atoms: O_2  and  C_3
REMARK    3  A    between atoms: C_7  and  N_8
REMARK    4  A    between atoms: N_8  and  C_9
REMARK    5  A    between atoms: C_9  and  C_10
REMARK    6  A    between atoms: C_14  and  C_15
REMARK    7  A    between atoms: C_19  and  O_20
REMARK    8  A    between atoms: O_20  and  C_21
REMARK                            x       y       z     vdW  Elec       q    Type
REMARK                         _______ _______ _______ _____ _____    ______ ____
ROOT
ATOM      1  C   UNL     1      47.734   7.947  12.188  0.00  0.00    +0.000 A 
ATOM      2  C   UNL     1      46.972   9.116  12.113  0.00  0.00    +0.000 A 
ATOM      3  C   UNL     1      45.587   9.042  11.975  0.00  0.00    +0.000 A 
ATOM      4  C   UNL     1      44.950   7.800  11.915  0.00  0.00    +0.000 A 
ATOM      5  C   UNL     1      45.677   6.600  11.991  0.00  0.00    +0.000 A 
ATOM      6  C   UNL     1      47.076   6.704  12.146  0.00  0.00    +0.000 A 
ENDROOT
BRANCH   5   7
ATOM      7  C   UNL     1      45.016   5.281  11.878  0.00  0.00    +0.000 A 
ATOM      8  C   UNL     1      44.371   4.677  12.962  0.00  0.00    +0.000 A 
ATOM      9  N   UNL     1      43.716   3.492  12.919  0.00  0.00    +0.000 NA
ATOM     10  C   UNL     1      43.687   2.868  11.721  0.00  0.00    +0.000 A 
ATOM     11  C   UNL     1      44.285   3.358  10.567  0.00  0.00    +0.000 A 
ATOM     12  C   UNL     1      44.965   4.573  10.664  0.00  0.00    +0.000 A 
BRANCH  11  13
ATOM     13  O   UNL     1      44.139   2.600   9.442  0.00  0.00    +0.000 OA
ATOM     14  C   UNL     1      45.310   1.963   8.945  0.00  0.00    +0.000 C 
ENDBRANCH  11  13
ENDBRANCH   5   7
BRANCH   1  15
ATOM     15  C   UNL     1      49.241   8.008  12.287  0.00  0.00    +0.000 C 
BRANCH  15  16
ATOM     16  N   UNL     1      49.721   7.103  13.318  0.00  0.00    +0.000 N 
ATOM     17  H   UNL     1      49.540   6.122  13.116  0.00  0.00    +0.000 HD
BRANCH  16  22
ATOM     18  C   UNL     1      48.829   6.967  16.947  0.00  0.00    +0.000 A 
ATOM     19  C   UNL     1      49.104   8.292  17.255  0.00  0.00    +0.000 A 
ATOM     20  N   UNL     1      49.599   9.186  16.371  0.00  0.00    +0.000 NA
ATOM     21  C   UNL     1      49.805   8.729  15.113  0.00  0.00    +0.000 A 
ATOM     22  C   UNL     1      49.569   7.420  14.672  0.00  0.00    +0.000 A 
ATOM     23  C   UNL     1      49.042   6.545  15.631  0.00  0.00    +0.000 A 
BRANCH  18  25
ATOM     24  C   UNL     1      47.745   6.923  19.038  0.00  0.00    +0.000 C 
ATOM     25  O   UNL     1      48.311   6.200  17.949  0.00  0.00    +0.000 OA
ENDBRANCH  18  25
ENDBRANCH  16  22
ENDBRANCH  15  16
ENDBRANCH   1  15
TORSDOF 6
ENDMDL
MODEL 8
REMARK VINA RESULT:    -6.003      3.595      5.070
REMARK INTER + INTRA:          -8.651
REMARK INTER:                  -7.915
REMARK INTRA:                  -0.737
REMARK UNBOUND:                -0.542
REMARK  Name = 
REMARK  8 active torsions:
REMARK  status: ('A' for Active; 'I' for Inactive)
REMARK    1  A    between atoms: C_1  and  O_2
REMARK    2  A    between atoms: O_2  and  C_3
REMARK    3  A    between atoms: C_7  and  N_8
REMARK    4  A    between atoms: N_8  and  C_9
REMARK    5  A    between atoms: C_9  and  C_10
REMARK    6  A    between atoms: C_14  and  C_15
REMARK    7  A    between atoms: C_19  and  O_20
REMARK    8  A    between atoms: O_20  and  C_21
REMARK                            x       y       z     vdW  Elec       q    Type
REMARK                         _______ _______ _______ _____ _____    ______ ____
ROOT
ATOM      1  C   UNL     1      46.333   6.629  12.354  0.00  0.00    +0.000 A 
ATOM      2  C   UNL     1      47.243   7.209  11.465  0.00  0.00    +0.000 A 
ATOM      3  C   UNL     1      48.571   7.400  11.846  0.00  0.00    +0.000 A 
ATOM      4  C   UNL     1      49.002   7.010  13.117  0.00  0.00    +0.000 A 
ATOM      5  C   UNL     1      48.122   6.419  14.039  0.00  0.00    +0.000 A 
ATOM      6  C   UNL     1      46.788   6.223  13.622  0.00  0.00    +0.000 A 
ENDROOT
BRANCH   5   7
ATOM      7  C   UNL     1      48.558   6.048  15.403  0.00  0.00    +0.000 A 
ATOM      8  C   UNL     1      47.933   5.033  16.135  0.00  0.00    +0.000 A 
ATOM      9  N   UNL     1      48.304   4.619  17.370  0.00  0.00    +0.000 NA
ATOM     10  C   UNL     1      49.372   5.242  17.914  0.00  0.00    +0.000 A 
ATOM     11  C   UNL     1      50.083   6.262  17.295  0.00  0.00    +0.000 A 
ATOM     12  C   UNL     1      49.652   6.669  16.032  0.00  0.00    +0.000 A 
BRANCH  11  13
ATOM     13  O   UNL     1      51.147   6.764  17.989  0.00  0.00    +0.000 OA
ATOM     14  C   UNL     1      52.288   7.138  17.225  0.00  0.00    +0.000 C 
ENDBRANCH  11  13
ENDBRANCH   5   7
BRANCH   1  15
ATOM     15  C   UNL     1      44.880   6.461  11.975  0.00  0.00    +0.000 C 
BRANCH  15  16
ATOM     16  N   UNL     1      44.756   6.128  10.566  0.00  0.00    +0.000 N 
ATOM     17  H   UNL     1      44.049   6.673  10.079  0.00  0.00    +0.000 HD
BRANCH  16  22
ATOM     18  C   UNL     1      45.530   3.014   8.646  0.00  0.00    +0.000 A 
ATOM     19  C   UNL     1      44.611   2.180   9.268  0.00  0.00    +0.000 A 
ATOM     20  N   UNL     1      43.811   2.563  10.287  0.00  0.00    +0.000 NA
ATOM     21  C   UNL     1      43.927   3.854  10.682  0.00  0.00    +0.000 A 
ATOM     22  C   UNL     1      44.811   4.797  10.141  0.00  0.00    +0.000 A 
ATOM     23  C   UNL     1      45.602   4.342   9.077  0.00  0.00    +0.000 A 
BRANCH  18  25
ATOM     24  C   UNL     1      46.424   3.330   6.490  0.00  0.00    +0.000 C 
ATOM     25  O   UNL     1      46.245   2.477   7.616  0.00  0.00    +0.000 OA
ENDBRANCH  18  25
ENDBRANCH  16  22
ENDBRANCH  15  16
ENDBRANCH   1  15
TORSDOF 6
ENDMDL
MODEL 9
REMARK VINA RESULT:    -5.445      4.835      8.974
REMARK INTER + INTRA:          -7.898
REMARK INTER:                  -7.373
REMARK INTRA:                  -0.524
REMARK UNBOUND:                -0.542
REMARK  Name = 
REMARK  8 active torsions:
REMARK  status: ('A' for Active; 'I' for Inactive)
REMARK    1  A    between atoms: C_1  and  O_2
REMARK    2  A    between atoms: O_2  and  C_3
REMARK    3  A    between atoms: C_7  and  N_8
REMARK    4  A    between atoms: N_8  and  C_9
REMARK    5  A    between atoms: C_9  and  C_10
REMARK    6  A    between atoms: C_14  and  C_15
REMARK    7  A    between atoms: C_19  and  O_20
REMARK    8  A    between atoms: O_20  and  C_21
REMARK                            x       y       z     vdW  Elec       q    Type
REMARK                         _______ _______ _______ _____ _____    ______ ____
ROOT
ATOM      1  C   UNL     1      48.130   6.423  14.306  0.00  0.00    +0.000 A 
ATOM      2  C   UNL     1      48.429   7.481  13.442  0.00  0.00    +0.000 A 
ATOM      3  C   UNL     1      47.737   7.622  12.240  0.00  0.00    +0.000 A 
ATOM      4  C   UNL     1      46.736   6.710  11.893  0.00  0.00    +0.000 A 
ATOM      5  C   UNL     1      46.401   5.636  12.734  0.00  0.00    +0.000 A 
ATOM      6  C   UNL     1      47.106   5.526  13.951  0.00  0.00    +0.000 A 
ENDROOT
BRANCH   5   7
ATOM      7  C   UNL     1      45.377   4.638  12.351  0.00  0.00    +0.000 A 
ATOM      8  C   UNL     1      44.409   4.182  13.252  0.00  0.00    +0.000 A 
ATOM      9  N   UNL     1      43.424   3.300  12.958  0.00  0.00    +0.000 NA
ATOM     10  C   UNL     1      43.385   2.849  11.685  0.00  0.00    +0.000 A 
ATOM     11  C   UNL     1      44.283   3.222  10.694  0.00  0.00    +0.000 A 
ATOM     12  C   UNL     1      45.294   4.117  11.048  0.00  0.00    +0.000 A 
BRANCH  11  13
ATOM     13  O   UNL     1      44.080   2.677   9.458  0.00  0.00    +0.000 OA
ATOM     14  C   UNL     1      45.202   2.053   8.845  0.00  0.00    +0.000 C 
ENDBRANCH  11  13
ENDBRANCH   5   7
BRANCH   1  15
ATOM     15  C   UNL     1      48.905   6.227  15.589  0.00  0.00    +0.000 C 
BRANCH  15  16
ATOM     16  N   UNL     1      48.026   6.354  16.739  0.00  0.00    +0.000 N 
ATOM     17  H   UNL     1      47.121   6.762  16.517  0.00  0.00    +0.000 HD
BRANCH  16  22
ATOM     18  C   UNL     1      50.057   6.639  19.865  0.00  0.00    +0.000 A 
ATOM     19  C   UNL     1      49.236   7.534  20.538  0.00  0.00    +0.000 A 
ATOM     20  N   UNL     1      48.113   8.070  20.014  0.00  0.00    +0.000 NA
ATOM     21  C   UNL     1      47.789   7.667  18.762  0.00  0.00    +0.000 A 
ATOM     22  C   UNL     1      48.527   6.772  17.976  0.00  0.00    +0.000 A 
ATOM     23  C   UNL     1      49.673   6.240  18.582  0.00  0.00    +0.000 A 
BRANCH  18  25
ATOM     24  C   UNL     1      51.644   4.915  20.108  0.00  0.00    +0.000 C 
ATOM     25  O   UNL     1      51.144   6.174  20.546  0.00  0.00    +0.000 OA
ENDBRANCH  18  25
ENDBRANCH  16  22
ENDBRANCH  15  16
ENDBRANCH   1  15
TORSDOF 6
ENDMDL
