MODEL 1
REMARK VINA RESULT:    -8.847      0.000      0.000
REMARK INTER + INTRA:         -12.355
REMARK INTER:                 -11.433
REMARK INTRA:                  -0.922
REMARK UNBOUND:                -0.922
REMARK  Name = 
REMARK  6 active torsions:
REMARK  status: ('A' for Active; 'I' for Inactive)
REMARK    1  A    between atoms: C_1  and  N_2
REMARK    2  A    between atoms: N_5  and  C_6
REMARK    3  A    between atoms: C_10  and  C_11
REMARK    4  A    between atoms: C_11  and  C_12
REMARK    5  A    between atoms: C_12  and  N_13
REMARK    6  A    between atoms: C_17  and  C_18
REMARK                            x       y       z     vdW  Elec       q    Type
REMARK                         _______ _______ _______ _____ _____    ______ ____
ROOT
ATOM      1  C   UNL     1      43.469   5.282  12.151  0.00  0.00    +0.000 C 
ENDROOT
BRANCH   1   6
ATOM      2  C   UNL     1      46.801   5.359  14.005  0.00  0.00    +0.000 A 
ATOM      3  C   UNL     1      47.524   6.135  13.094  0.00  0.00    +0.000 A 
ATOM      4  C   UNL     1      46.911   6.589  11.945  0.00  0.00    +0.000 A 
ATOM      5  N   UNL     1      45.631   6.321  11.636  0.00  0.00    +0.000 NA
ATOM      6  C   UNL     1      44.915   5.570  12.507  0.00  0.00    +0.000 A 
ATOM      7  C   UNL     1      45.467   5.078  13.690  0.00  0.00    +0.000 A 
BRANCH   2  12
ATOM      8  C   UNL     1      48.633   4.213  19.165  0.00  0.00    +0.000 C 
ATOM      9  N   UNL     1      48.677   4.259  17.704  0.00  0.00    +0.000 NA
ATOM     10  C   UNL     1      47.555   3.481  17.129  0.00  0.00    +0.000 C 
ATOM     11  C   UNL     1      47.491   3.561  15.583  0.00  0.00    +0.000 C 
ATOM     12  N   UNL     1      47.408   4.973  15.187  0.00  0.00    +0.000 N 
ATOM     13  C   UNL     1      48.536   5.779  15.692  0.00  0.00    +0.000 C 
ATOM     14  C   UNL     1      48.600   5.663  17.233  0.00  0.00    +0.000 C 
ENDBRANCH   2  12
ENDBRANCH   1   6
BRANCH   1  15
ATOM     15  C   UNL     1      43.384   4.232  11.039  0.00  0.00    +0.000 C 
BRANCH  15  16
ATOM     16  N   UNL     1      43.750   4.753   9.723  0.00  0.00    +0.000 N 
ATOM     17  C   UNL     1      44.728   4.025   9.041  0.00  0.00    +0.000 A 
ATOM     18  C   UNL     1      44.797   2.632   9.089  0.00  0.00    +0.000 A 
ATOM     19  C   UNL     1      45.800   1.958   8.394  0.00  0.00    +0.000 A 
ATOM     20  C   UNL     1      46.701   2.677   7.617  0.00  0.00    +0.000 A 
ATOM     21  C   UNL     1      46.545   4.054   7.596  0.00  0.00    +0.000 A 
ATOM     22  N   UNL     1      45.593   4.738   8.293  0.00  0.00    +0.000 NA
ATOM     23  H   UNL     1      44.043   5.728   9.696  0.00  0.00    +0.000 HD
BRANCH  20  24
ATOM     24  C   UNL     1      47.749   1.929   6.878  0.00  0.00    +0.000 C 
ATOM     25  N   UNL     1      48.720   2.621   6.214  0.00  0.00    +0.000 N 
ATOM     26  O   UNL     1      47.755   0.702   6.854  0.00  0.00    +0.000 OA
ATOM     27  H   UNL     1      48.795   3.623   6.144  0.00  0.00    +0.000 HD
ATOM     28  H   UNL     1      49.405   2.063   5.716  0.00  0.00    +0.000 HD
ENDBRANCH  20  24
ENDBRANCH  15  16
ENDBRANCH   1  15
TORSDOF 5
ENDMDL
MODEL 2
REMARK VINA RESULT:    -8.627      2.110      3.833
REMARK INTER + INTRA:         -12.070
REMARK INTER:                 -11.323
REMARK INTRA:                  -0.747
REMARK UNBOUND:                -0.922
REMARK  Name = 
REMARK  6 active torsions:
REMARK  status: ('A' for Active; 'I' for Inactive)
REMARK    1  A    between atoms: C_1  and  N_2
REMARK    2  A    between atoms: N_5  and  C_6
REMARK    3  A    between atoms: C_10  and  C_11
REMARK    4  A    between atoms: C_11  and  C_12
REMARK    5  A    between atoms: C_12  and  N_13
REMARK    6  A    between atoms: C_17  and  C_18
REMARK                            x       y       z     vdW  Elec       q    Type
REMARK                         _______ _______ _______ _____ _____    ______ ____
ROOT
ATOM      1  C   UNL     1      43.449   5.197  12.392  0.00  0.00    +0.000 C 
ENDROOT
BRANCH   1   6
ATOM      2  C   UNL     1      46.960   6.533  13.047  0.00  0.00    +0.000 A 
ATOM      3  C   UNL     1      47.441   5.475  13.824  0.00  0.00    +0.000 A 
ATOM      4  C   UNL     1      46.622   4.399  14.094  0.00  0.00    +0.000 A 
ATOM      5  N   UNL     1      45.357   4.303  13.649  0.00  0.00    +0.000 NA
ATOM      6  C   UNL     1      44.874   5.320  12.895  0.00  0.00    +0.000 A 
ATOM      7  C   UNL     1      45.644   6.440  12.579  0.00  0.00    +0.000 A 
BRANCH   2  12
ATOM      8  C   UNL     1      50.123  10.651  10.964  0.00  0.00    +0.000 C 
ATOM      9  N   UNL     1      49.651   9.697  11.966  0.00  0.00    +0.000 NA
ATOM     10  C   UNL     1      48.227   9.951  12.290  0.00  0.00    +0.000 C 
ATOM     11  C   UNL     1      47.638   8.918  13.283  0.00  0.00    +0.000 C 
ATOM     12  N   UNL     1      47.817   7.572  12.724  0.00  0.00    +0.000 N 
ATOM     13  C   UNL     1      49.228   7.252  12.435  0.00  0.00    +0.000 C 
ATOM     14  C   UNL     1      49.806   8.309  11.466  0.00  0.00    +0.000 C 
ENDBRANCH   2  12
ENDBRANCH   1   6
BRANCH   1  15
ATOM     15  C   UNL     1      43.362   4.174  11.255  0.00  0.00    +0.000 C 
BRANCH  15  16
ATOM     16  N   UNL     1      43.712   4.731   9.949  0.00  0.00    +0.000 N 
ATOM     17  C   UNL     1      44.631   3.983   9.207  0.00  0.00    +0.000 A 
ATOM     18  C   UNL     1      44.631   2.588   9.197  0.00  0.00    +0.000 A 
ATOM     19  C   UNL     1      45.576   1.895   8.443  0.00  0.00    +0.000 A 
ATOM     20  C   UNL     1      46.488   2.600   7.665  0.00  0.00    +0.000 A 
ATOM     21  C   UNL     1      46.401   3.983   7.705  0.00  0.00    +0.000 A 
ATOM     22  N   UNL     1      45.507   4.684   8.459  0.00  0.00    +0.000 NA
ATOM     23  H   UNL     1      44.053   5.690   9.951  0.00  0.00    +0.000 HD
BRANCH  20  24
ATOM     24  C   UNL     1      47.473   1.832   6.863  0.00  0.00    +0.000 C 
ATOM     25  N   UNL     1      48.573   2.470   6.368  0.00  0.00    +0.000 N 
ATOM     26  O   UNL     1      47.313   0.636   6.638  0.00  0.00    +0.000 OA
ATOM     27  H   UNL     1      48.788   3.449   6.468  0.00  0.00    +0.000 HD
ATOM     28  H   UNL     1      49.209   1.903   5.818  0.00  0.00    +0.000 HD
ENDBRANCH  20  24
ENDBRANCH  15  16
ENDBRANCH   1  15
TORSDOF 5
ENDMDL
MODEL 3
REMARK VINA RESULT:    -7.485      1.876      2.371
REMARK INTER + INTRA:         -10.595
REMARK INTER:                  -9.830
REMARK INTRA:                  -0.764
REMARK UNBOUND:                -0.922
REMARK  Name = 
REMARK  6 active torsions:
REMARK  status: ('A' for Active; 'I' for Inactive)
REMARK    1  A    between atoms: C_1  and  N_2
REMARK    2  A    between atoms: N_5  and  C_6
REMARK    3  A    between atoms: C_10  and  C_11
REMARK    4  A    between atoms: C_11  and  C_12
REMARK    5  A    between atoms: C_12  and  N_13
REMARK    6  A    between atoms: C_17  and  C_18
REMARK                            x       y       z     vdW  Elec       q    Type
REMARK                         _______ _______ _______ _____ _____    ______ ____
ROOT
ATOM      1  C   UNL     1      43.273   5.530  12.085  0.00  0.00    +0.000 C 
ENDROOT
BRANCH   1   6
ATOM      2  C   UNL     1      46.618   7.125  12.981  0.00  0.00    +0.000 A 
ATOM      3  C   UNL     1      46.487   8.305  12.243  0.00  0.00    +0.000 A 
ATOM      4  C   UNL     1      45.343   8.525  11.504  0.00  0.00    +0.000 A 
ATOM      5  N   UNL     1      44.324   7.652  11.444  0.00  0.00    +0.000 NA
ATOM      6  C   UNL     1      44.433   6.503  12.153  0.00  0.00    +0.000 A 
ATOM      7  C   UNL     1      45.559   6.212  12.925  0.00  0.00    +0.000 A 
BRANCH   2  12
ATOM      8  C   UNL     1      50.958   7.175  16.511  0.00  0.00    +0.000 C 
ATOM      9  N   UNL     1      50.124   6.682  15.416  0.00  0.00    +0.000 NA
ATOM     10  C   UNL     1      48.771   6.337  15.914  0.00  0.00    +0.000 C 
ATOM     11  C   UNL     1      47.807   5.889  14.787  0.00  0.00    +0.000 C 
ATOM     12  N   UNL     1      47.739   6.952  13.775  0.00  0.00    +0.000 N 
ATOM     13  C   UNL     1      49.058   7.293  13.210  0.00  0.00    +0.000 C 
ATOM     14  C   UNL     1      50.014   7.709  14.352  0.00  0.00    +0.000 C 
ENDBRANCH   2  12
ENDBRANCH   1   6
BRANCH   1  15
ATOM     15  C   UNL     1      43.294   4.754  10.763  0.00  0.00    +0.000 C 
BRANCH  15  16
ATOM     16  N   UNL     1      44.180   3.592  10.790  0.00  0.00    +0.000 N 
ATOM     17  C   UNL     1      44.957   3.406   9.643  0.00  0.00    +0.000 A 
ATOM     18  C   UNL     1      45.512   4.470   8.931  0.00  0.00    +0.000 A 
ATOM     19  C   UNL     1      46.273   4.225   7.789  0.00  0.00    +0.000 A 
ATOM     20  C   UNL     1      46.515   2.915   7.391  0.00  0.00    +0.000 A 
ATOM     21  C   UNL     1      45.956   1.914   8.171  0.00  0.00    +0.000 A 
ATOM     22  N   UNL     1      45.181   2.130   9.273  0.00  0.00    +0.000 NA
ATOM     23  H   UNL     1      43.736   2.697  10.986  0.00  0.00    +0.000 HD
BRANCH  20  24
ATOM     24  C   UNL     1      47.341   2.687   6.179  0.00  0.00    +0.000 C 
ATOM     25  N   UNL     1      48.691   2.536   6.310  0.00  0.00    +0.000 N 
ATOM     26  O   UNL     1      46.830   2.633   5.065  0.00  0.00    +0.000 OA
ATOM     27  H   UNL     1      49.216   2.590   7.169  0.00  0.00    +0.000 HD
ATOM     28  H   UNL     1      49.210   2.394   5.451  0.00  0.00    +0.000 HD
ENDBRANCH  20  24
ENDBRANCH  15  16
ENDBRANCH   1  15
TORSDOF 5
ENDMDL
MODEL 4
REMARK VINA RESULT:    -7.280      3.159      8.526
REMARK INTER + INTRA:         -10.331
REMARK INTER:                  -9.642
REMARK INTRA:                  -0.689
REMARK UNBOUND:                -0.922
REMARK  Name = 
REMARK  6 active torsions:
REMARK  status: ('A' for Active; 'I' for Inactive)
REMARK    1  A    between atoms: C_1  and  N_2
REMARK    2  A    between atoms: N_5  and  C_6
REMARK    3  A    between atoms: C_10  and  C_11
REMARK    4  A    between atoms: C_11  and  C_12
REMARK    5  A    between atoms: C_12  and  N_13
REMARK    6  A    between atoms: C_17  and  C_18
REMARK                            x       y       z     vdW  Elec       q    Type
REMARK                         _______ _______ _______ _____ _____    ______ ____
ROOT
ATOM      1  C   UNL     1      45.172   5.829  13.235  0.00  0.00    +0.000 C 
ENDROOT
BRANCH   1   6
ATOM      2  C   UNL     1      44.961   3.253  10.432  0.00  0.00    +0.000 A 
ATOM      3  C   UNL     1      43.913   2.480  10.942  0.00  0.00    +0.000 A 
ATOM      4  C   UNL     1      43.335   2.822  12.146  0.00  0.00    +0.000 A 
ATOM      5  N   UNL     1      43.728   3.877  12.880  0.00  0.00    +0.000 NA
ATOM      6  C   UNL     1      44.743   4.637  12.402  0.00  0.00    +0.000 A 
ATOM      7  C   UNL     1      45.375   4.353  11.191  0.00  0.00    +0.000 A 
BRANCH   2  12
ATOM      8  C   UNL     1      47.807   2.204   5.731  0.00  0.00    +0.000 C 
ATOM      9  N   UNL     1      46.626   2.371   6.576  0.00  0.00    +0.000 NA
ATOM     10  C   UNL     1      46.640   1.386   7.683  0.00  0.00    +0.000 C 
ATOM     11  C   UNL     1      45.458   1.566   8.668  0.00  0.00    +0.000 C 
ATOM     12  N   UNL     1      45.482   2.939   9.188  0.00  0.00    +0.000 N 
ATOM     13  C   UNL     1      45.414   3.958   8.122  0.00  0.00    +0.000 C 
ATOM     14  C   UNL     1      46.584   3.745   7.134  0.00  0.00    +0.000 C 
ENDBRANCH   2  12
ENDBRANCH   1   6
BRANCH   1  15
ATOM     15  C   UNL     1      46.500   5.545  13.943  0.00  0.00    +0.000 C 
BRANCH  15  16
ATOM     16  N   UNL     1      46.420   4.447  14.905  0.00  0.00    +0.000 N 
ATOM     17  C   UNL     1      47.522   4.313  15.754  0.00  0.00    +0.000 A 
ATOM     18  C   UNL     1      48.209   5.412  16.271  0.00  0.00    +0.000 A 
ATOM     19  C   UNL     1      49.307   5.218  17.108  0.00  0.00    +0.000 A 
ATOM     20  C   UNL     1      49.683   3.927  17.462  0.00  0.00    +0.000 A 
ATOM     21  C   UNL     1      48.929   2.891  16.933  0.00  0.00    +0.000 A 
ATOM     22  N   UNL     1      47.872   3.055  16.086  0.00  0.00    +0.000 NA
ATOM     23  H   UNL     1      46.242   3.525  14.514  0.00  0.00    +0.000 HD
BRANCH  20  24
ATOM     24  C   UNL     1      50.847   3.755  18.366  0.00  0.00    +0.000 C 
ATOM     25  N   UNL     1      51.652   2.662  18.218  0.00  0.00    +0.000 N 
ATOM     26  O   UNL     1      51.096   4.576  19.243  0.00  0.00    +0.000 OA
ATOM     27  H   UNL     1      51.525   1.916  17.554  0.00  0.00    +0.000 HD
ATOM     28  H   UNL     1      52.427   2.587  18.867  0.00  0.00    +0.000 HD
ENDBRANCH  20  24
ENDBRANCH  15  16
ENDBRANCH   1  15
TORSDOF 5
ENDMDL
MODEL 5
REMARK VINA RESULT:    -6.699      2.555      7.811
REMARK INTER + INTRA:          -9.579
REMARK INTER:                  -9.467
REMARK INTRA:                  -0.112
REMARK UNBOUND:                -0.922
REMARK  Name = 
REMARK  6 active torsions:
REMARK  status: ('A' for Active; 'I' for Inactive)
REMARK    1  A    between atoms: C_1  and  N_2
REMARK    2  A    between atoms: N_5  and  C_6
REMARK    3  A    between atoms: C_10  and  C_11
REMARK    4  A    between atoms: C_11  and  C_12
REMARK    5  A    between atoms: C_12  and  N_13
REMARK    6  A    between atoms: C_17  and  C_18
REMARK                            x       y       z     vdW  Elec       q    Type
REMARK                         _______ _______ _______ _____ _____    ______ ____
ROOT
ATOM      1  C   UNL     1      45.670   7.320  12.719  0.00  0.00    +0.000 C 
ENDROOT
BRANCH   1   6
ATOM      2  C   UNL     1      44.814   4.367  10.464  0.00  0.00    +0.000 A 
ATOM      3  C   UNL     1      43.532   4.099  10.955  0.00  0.00    +0.000 A 
ATOM      4  C   UNL     1      43.015   4.872  11.973  0.00  0.00    +0.000 A 
ATOM      5  N   UNL     1      43.684   5.890  12.540  0.00  0.00    +0.000 NA
ATOM      6  C   UNL     1      44.928   6.164  12.077  0.00  0.00    +0.000 A 
ATOM      7  C   UNL     1      45.516   5.426  11.050  0.00  0.00    +0.000 A 
BRANCH   2  12
ATOM      8  C   UNL     1      47.481   1.420   6.527  0.00  0.00    +0.000 C 
ATOM      9  N   UNL     1      46.369   2.147   7.137  0.00  0.00    +0.000 NA
ATOM     10  C   UNL     1      45.951   1.487   8.397  0.00  0.00    +0.000 C 
ATOM     11  C   UNL     1      44.832   2.257   9.141  0.00  0.00    +0.000 C 
ATOM     12  N   UNL     1      45.290   3.629   9.394  0.00  0.00    +0.000 N 
ATOM     13  C   UNL     1      45.666   4.346   8.160  0.00  0.00    +0.000 C 
ATOM     14  C   UNL     1      46.764   3.548   7.418  0.00  0.00    +0.000 C 
ENDBRANCH   2  12
ENDBRANCH   1   6
BRANCH   1  15
ATOM     15  C   UNL     1      47.095   7.424  12.166  0.00  0.00    +0.000 C 
BRANCH  15  16
ATOM     16  N   UNL     1      48.122   7.398  13.207  0.00  0.00    +0.000 N 
ATOM     17  C   UNL     1      47.918   6.464  14.226  0.00  0.00    +0.000 A 
ATOM     18  C   UNL     1      47.385   5.197  13.987  0.00  0.00    +0.000 A 
ATOM     19  C   UNL     1      47.198   4.308  15.044  0.00  0.00    +0.000 A 
ATOM     20  C   UNL     1      47.588   4.673  16.329  0.00  0.00    +0.000 A 
ATOM     21  C   UNL     1      48.140   5.936  16.476  0.00  0.00    +0.000 A 
ATOM     22  N   UNL     1      48.303   6.835  15.463  0.00  0.00    +0.000 NA
ATOM     23  H   UNL     1      48.315   8.287  13.663  0.00  0.00    +0.000 HD
BRANCH  20  24
ATOM     24  C   UNL     1      47.388   3.699  17.430  0.00  0.00    +0.000 C 
ATOM     25  N   UNL     1      48.208   3.745  18.520  0.00  0.00    +0.000 N 
ATOM     26  O   UNL     1      46.499   2.853  17.376  0.00  0.00    +0.000 OA
ATOM     27  H   UNL     1      48.982   4.375  18.655  0.00  0.00    +0.000 HD
ATOM     28  H   UNL     1      48.036   3.051  19.239  0.00  0.00    +0.000 HD
ENDBRANCH  20  24
ENDBRANCH  15  16
ENDBRANCH   1  15
TORSDOF 5
ENDMDL
MODEL 6
REMARK VINA RESULT:    -6.280      3.734      7.604
REMARK INTER + INTRA:          -9.037
REMARK INTER:                  -8.454
REMARK INTRA:                  -0.584
REMARK UNBOUND:                -0.922
REMARK  Name = 
REMARK  6 active torsions:
REMARK  status: ('A' for Active; 'I' for Inactive)
REMARK    1  A    between atoms: C_1  and  N_2
REMARK    2  A    between atoms: N_5  and  C_6
REMARK    3  A    between atoms: C_10  and  C_11
REMARK    4  A    between atoms: C_11  and  C_12
REMARK    5  A    between atoms: C_12  and  N_13
REMARK    6  A    between atoms: C_17  and  C_18
REMARK                            x       y       z     vdW  Elec       q    Type
REMARK                         _______ _______ _______ _____ _____    ______ ____
ROOT
ATOM      1  C   UNL     1      45.156   7.346  12.765  0.00  0.00    +0.000 C 
ENDROOT
BRANCH   1   6
ATOM      2  C   UNL     1      44.740   4.237  10.596  0.00  0.00    +0.000 A 
ATOM      3  C   UNL     1      43.617   3.695  11.228  0.00  0.00    +0.000 A 
ATOM      4  C   UNL     1      43.057   4.349  12.306  0.00  0.00    +0.000 A 
ATOM      5  N   UNL     1      43.539   5.501  12.801  0.00  0.00    +0.000 NA
ATOM      6  C   UNL     1      44.627   6.041  12.201  0.00  0.00    +0.000 A 
ATOM      7  C   UNL     1      45.246   5.438  11.106  0.00  0.00    +0.000 A 
BRANCH   2  12
ATOM      8  C   UNL     1      47.531   1.766   6.424  0.00  0.00    +0.000 C 
ATOM      9  N   UNL     1      46.381   2.360   7.102  0.00  0.00    +0.000 NA
ATOM     10  C   UNL     1      46.051   1.593   8.327  0.00  0.00    +0.000 C 
ATOM     11  C   UNL     1      44.893   2.221   9.142  0.00  0.00    +0.000 C 
ATOM     12  N   UNL     1      45.246   3.608   9.471  0.00  0.00    +0.000 N 
ATOM     13  C   UNL     1      45.530   4.428   8.277  0.00  0.00    +0.000 C 
ATOM     14  C   UNL     1      46.668   3.770   7.463  0.00  0.00    +0.000 C 
ENDBRANCH   2  12
ENDBRANCH   1   6
BRANCH   1  15
ATOM     15  C   UNL     1      46.610   7.188  13.223  0.00  0.00    +0.000 C 
BRANCH  15  16
ATOM     16  N   UNL     1      47.321   8.461  13.336  0.00  0.00    +0.000 N 
ATOM     17  C   UNL     1      48.638   8.453  12.869  0.00  0.00    +0.000 A 
ATOM     18  C   UNL     1      49.031   7.733  11.741  0.00  0.00    +0.000 A 
ATOM     19  C   UNL     1      50.362   7.756  11.326  0.00  0.00    +0.000 A 
ATOM     20  C   UNL     1      51.284   8.537  12.013  0.00  0.00    +0.000 A 
ATOM     21  C   UNL     1      50.807   9.248  13.104  0.00  0.00    +0.000 A 
ATOM     22  N   UNL     1      49.518   9.215  13.549  0.00  0.00    +0.000 NA
ATOM     23  H   UNL     1      47.345   8.877  14.265  0.00  0.00    +0.000 HD
BRANCH  20  24
ATOM     24  C   UNL     1      52.690   8.552  11.538  0.00  0.00    +0.000 C 
ATOM     25  N   UNL     1      53.429   7.407  11.604  0.00  0.00    +0.000 N 
ATOM     26  O   UNL     1      53.196   9.575  11.088  0.00  0.00    +0.000 OA
ATOM     27  H   UNL     1      53.124   6.523  11.979  0.00  0.00    +0.000 HD
ATOM     28  H   UNL     1      54.386   7.473  11.277  0.00  0.00    +0.000 HD
ENDBRANCH  20  24
ENDBRANCH  15  16
ENDBRANCH   1  15
TORSDOF 5
ENDMDL
MODEL 7
REMARK VINA RESULT:    -6.278      3.594      6.335
REMARK INTER + INTRA:          -9.035
REMARK INTER:                  -8.412
REMARK INTRA:                  -0.624
REMARK UNBOUND:                -0.922
REMARK  Name = 
REMARK  6 active torsions:
REMARK  status: ('A' for Active; 'I' for Inactive)
REMARK    1  A    between atoms: C_1  and  N_2
REMARK    2  A    between atoms: N_5  and  C_6
REMARK    3  A    between atoms: C_10  and  C_11
REMARK    4  A    between atoms: C_11  and  C_12
REMARK    5  A    between atoms: C_12  and  N_13
REMARK    6  A    between atoms: C_17  and  C_18
REMARK                            x       y       z     vdW  Elec       q    Type
REMARK                         _______ _______ _______ _____ _____    ______ ____
ROOT
ATOM      1  C   UNL     1      47.495   3.246  17.166  0.00  0.00    +0.000 C 
ENDROOT
BRANCH   1   6
ATOM      2  C   UNL     1      51.088   3.798  18.319  0.00  0.00    +0.000 A 
ATOM      3  C   UNL     1      51.676   2.694  17.695  0.00  0.00    +0.000 A 
ATOM      4  C   UNL     1      50.897   1.839  16.944  0.00  0.00    +0.000 A 
ATOM      5  N   UNL     1      49.574   2.003  16.774  0.00  0.00    +0.000 NA
ATOM      6  C   UNL     1      48.987   3.068  17.372  0.00  0.00    +0.000 A 
ATOM      7  C   UNL     1      49.710   3.976  18.146  0.00  0.00    +0.000 A 
BRANCH   2  12
ATOM      8  C   UNL     1      54.736   7.510  20.373  0.00  0.00    +0.000 C 
ATOM      9  N   UNL     1      53.672   6.508  20.416  0.00  0.00    +0.000 NA
ATOM     10  C   UNL     1      52.490   6.978  19.656  0.00  0.00    +0.000 C 
ATOM     11  C   UNL     1      51.356   5.924  19.588  0.00  0.00    +0.000 C 
ATOM     12  N   UNL     1      51.895   4.687  19.009  0.00  0.00    +0.000 N 
ATOM     13  C   UNL     1      53.042   4.151  19.766  0.00  0.00    +0.000 C 
ATOM     14  C   UNL     1      54.151   5.226  19.846  0.00  0.00    +0.000 C 
ENDBRANCH   2  12
ENDBRANCH   1   6
BRANCH   1  15
ATOM     15  C   UNL     1      47.219   4.139  15.952  0.00  0.00    +0.000 C 
BRANCH  15  16
ATOM     16  N   UNL     1      47.275   3.419  14.681  0.00  0.00    +0.000 N 
ATOM     17  C   UNL     1      46.367   3.849  13.709  0.00  0.00    +0.000 A 
ATOM     18  C   UNL     1      46.034   5.193  13.535  0.00  0.00    +0.000 A 
ATOM     19  C   UNL     1      45.116   5.563  12.554  0.00  0.00    +0.000 A 
ATOM     20  C   UNL     1      44.570   4.592  11.720  0.00  0.00    +0.000 A 
ATOM     21  C   UNL     1      44.977   3.285  11.937  0.00  0.00    +0.000 A 
ATOM     22  N   UNL     1      45.849   2.895  12.911  0.00  0.00    +0.000 NA
ATOM     23  H   UNL     1      47.181   2.407  14.738  0.00  0.00    +0.000 HD
BRANCH  20  24
ATOM     24  C   UNL     1      43.606   5.020  10.676  0.00  0.00    +0.000 C 
ATOM     25  N   UNL     1      43.836   4.680   9.375  0.00  0.00    +0.000 N 
ATOM     26  O   UNL     1      42.607   5.674  10.965  0.00  0.00    +0.000 OA
ATOM     27  H   UNL     1      44.633   4.173   9.025  0.00  0.00    +0.000 HD
ATOM     28  H   UNL     1      43.153   5.006   8.700  0.00  0.00    +0.000 HD
ENDBRANCH  20  24
ENDBRANCH  15  16
ENDBRANCH   1  15
TORSDOF 5
ENDMDL
MODEL 8
REMARK VINA RESULT:    -6.222      2.919      7.941
REMARK INTER + INTRA:          -8.963
REMARK INTER:                  -8.166
REMARK INTRA:                  -0.797
REMARK UNBOUND:                -0.922
REMARK  Name = 
REMARK  6 active torsions:
REMARK  status: ('A' for Active; 'I' for Inactive)
REMARK    1  A    between atoms: C_1  and  N_2
REMARK    2  A    between atoms: N_5  and  C_6
REMARK    3  A    between atoms: C_10  and  C_11
REMARK    4  A    between atoms: C_11  and  C_12
REMARK    5  A    between atoms: C_12  and  N_13
REMARK    6  A    between atoms: C_17  and  C_18
REMARK                            x       y       z     vdW  Elec       q    Type
REMARK                         _______ _______ _______ _____ _____    ______ ____
ROOT
ATOM      1  C   UNL     1      48.595   8.301  12.591  0.00  0.00    +0.000 C 
ENDROOT
BRANCH   1   6
ATOM      2  C   UNL     1      45.615   6.395  11.166  0.00  0.00    +0.000 A 
ATOM      3  C   UNL     1      44.617   7.333  11.450  0.00  0.00    +0.000 A 
ATOM      4  C   UNL     1      44.949   8.515  12.077  0.00  0.00    +0.000 A 
ATOM      5  N   UNL     1      46.203   8.829  12.446  0.00  0.00    +0.000 NA
ATOM      6  C   UNL     1      47.183   7.932  12.178  0.00  0.00    +0.000 A 
ATOM      7  C   UNL     1      46.923   6.716  11.546  0.00  0.00    +0.000 A 
BRANCH   2  12
ATOM      8  C   UNL     1      44.953   1.427   8.680  0.00  0.00    +0.000 C 
ATOM      9  N   UNL     1      44.664   2.830   8.975  0.00  0.00    +0.000 NA
ATOM     10  C   UNL     1      44.309   2.993  10.405  0.00  0.00    +0.000 C 
ATOM     11  C   UNL     1      44.075   4.471  10.806  0.00  0.00    +0.000 C 
ATOM     12  N   UNL     1      45.277   5.246  10.472  0.00  0.00    +0.000 N 
ATOM     13  C   UNL     1      45.639   5.158   9.044  0.00  0.00    +0.000 C 
ATOM     14  C   UNL     1      45.840   3.675   8.656  0.00  0.00    +0.000 C 
ENDBRANCH   2  12
ENDBRANCH   1   6
BRANCH   1  15
ATOM     15  C   UNL     1      48.720   8.339  14.117  0.00  0.00    +0.000 C 
BRANCH  15  16
ATOM     16  N   UNL     1      49.685   7.373  14.642  0.00  0.00    +0.000 N 
ATOM     17  C   UNL     1      49.143   6.353  15.427  0.00  0.00    +0.000 A 
ATOM     18  C   UNL     1      47.912   5.760  15.144  0.00  0.00    +0.000 A 
ATOM     19  C   UNL     1      47.418   4.750  15.967  0.00  0.00    +0.000 A 
ATOM     20  C   UNL     1      48.177   4.304  17.044  0.00  0.00    +0.000 A 
ATOM     21  C   UNL     1      49.403   4.922  17.238  0.00  0.00    +0.000 A 
ATOM     22  N   UNL     1      49.894   5.934  16.465  0.00  0.00    +0.000 NA
ATOM     23  H   UNL     1      50.463   7.764  15.170  0.00  0.00    +0.000 HD
BRANCH  20  24
ATOM     24  C   UNL     1      47.629   3.218  17.893  0.00  0.00    +0.000 C 
ATOM     25  N   UNL     1      48.215   2.951  19.096  0.00  0.00    +0.000 N 
ATOM     26  O   UNL     1      46.660   2.557  17.530  0.00  0.00    +0.000 OA
ATOM     27  H   UNL     1      49.027   3.410  19.478  0.00  0.00    +0.000 HD
ATOM     28  H   UNL     1      47.808   2.193  19.632  0.00  0.00    +0.000 HD
ENDBRANCH  20  24
ENDBRANCH  15  16
ENDBRANCH   1  15
TORSDOF 5
ENDMDL
MODEL 9
REMARK VINA RESULT:    -6.160      3.210      7.806
REMARK INTER + INTRA:          -8.882
REMARK INTER:                  -7.996
REMARK INTRA:                  -0.886
REMARK UNBOUND:                -0.922
REMARK  Name = 
REMARK  6 active torsions:
REMARK  status: ('A' for Active; 'I' for Inactive)
REMARK    1  A    between atoms: C_1  and  N_2
REMARK    2  A    between atoms: N_5  and  C_6
REMARK    3  A    between atoms: C_10  and  C_11
REMARK    4  A    between atoms: C_11  and  C_12
REMARK    5  A    between atoms: C_12  and  N_13
REMARK    6  A    between atoms: C_17  and  C_18
REMARK                            x       y       z     vdW  Elec       q    Type
REMARK                         _______ _______ _______ _____ _____    ______ ____
ROOT
ATOM      1  C   UNL     1      48.420   9.357  15.891  0.00  0.00    +0.000 C 
ENDROOT
BRANCH   1   6
ATOM      2  C   UNL     1      47.664   6.915  13.061  0.00  0.00    +0.000 A 
ATOM      3  C   UNL     1      48.911   6.941  12.429  0.00  0.00    +0.000 A 
ATOM      4  C   UNL     1      49.919   7.733  12.939  0.00  0.00    +0.000 A 
ATOM      5  N   UNL     1      49.772   8.503  14.030  0.00  0.00    +0.000 NA
ATOM      6  C   UNL     1      48.570   8.490  14.656  0.00  0.00    +0.000 A 
ATOM      7  C   UNL     1      47.505   7.714  14.199  0.00  0.00    +0.000 A 
BRANCH   2  12
ATOM      8  C   UNL     1      44.330   3.105  10.680  0.00  0.00    +0.000 C 
ATOM      9  N   UNL     1      44.667   4.284  11.477  0.00  0.00    +0.000 NA
ATOM     10  C   UNL     1      45.519   3.903  12.627  0.00  0.00    +0.000 C 
ATOM     11  C   UNL     1      45.985   5.120  13.465  0.00  0.00    +0.000 C 
ATOM     12  N   UNL     1      46.687   6.060  12.581  0.00  0.00    +0.000 N 
ATOM     13  C   UNL     1      45.856   6.512  11.448  0.00  0.00    +0.000 C 
ATOM     14  C   UNL     1      45.378   5.282  10.641  0.00  0.00    +0.000 C 
ENDBRANCH   2  12
ENDBRANCH   1   6
BRANCH   1  15
ATOM     15  C   UNL     1      49.004   8.654  17.120  0.00  0.00    +0.000 C 
BRANCH  15  16
ATOM     16  N   UNL     1      48.152   7.581  17.632  0.00  0.00    +0.000 N 
ATOM     17  C   UNL     1      48.665   6.290  17.485  0.00  0.00    +0.000 A 
ATOM     18  C   UNL     1      50.021   5.998  17.638  0.00  0.00    +0.000 A 
ATOM     19  C   UNL     1      50.477   4.691  17.473  0.00  0.00    +0.000 A 
ATOM     20  C   UNL     1      49.568   3.673  17.203  0.00  0.00    +0.000 A 
ATOM     21  C   UNL     1      48.235   4.041  17.099  0.00  0.00    +0.000 A 
ATOM     22  N   UNL     1      47.769   5.317  17.224  0.00  0.00    +0.000 NA
ATOM     23  H   UNL     1      47.201   7.558  17.271  0.00  0.00    +0.000 HD
BRANCH  20  24
ATOM     24  C   UNL     1      50.083   2.291  17.047  0.00  0.00    +0.000 C 
ATOM     25  N   UNL     1      50.986   1.809  17.950  0.00  0.00    +0.000 N 
ATOM     26  O   UNL     1      49.711   1.576  16.121  0.00  0.00    +0.000 OA
ATOM     27  H   UNL     1      51.378   2.315  18.728  0.00  0.00    +0.000 HD
ATOM     28  H   UNL     1      51.314   0.863  17.792  0.00  0.00    +0.000 HD
ENDBRANCH  20  24
ENDBRANCH  15  16
ENDBRANCH   1  15
TORSDOF 5
ENDMDL
