MODEL 1
REMARK VINA RESULT:    -8.633      0.000      0.000
REMARK INTER + INTRA:         -12.371
REMARK INTER:                 -11.157
REMARK INTRA:                  -1.214
REMARK UNBOUND:                -1.214
REMARK  Name = 
REMARK  6 active torsions:
REMARK  status: ('A' for Active; 'I' for Inactive)
REMARK    1  A    between atoms: C_1  and  C_2
REMARK    2  A    between atoms: C_4  and  C_5
REMARK    3  A    between atoms: C_10  and  O_11
REMARK    4  A    between atoms: O_11  and  C_12
REMARK    5  A    between atoms: C_12  and  C_13
REMARK    6  A    between atoms: C_17  and  C_18
REMARK                            x       y       z     vdW  Elec       q    Type
REMARK                         _______ _______ _______ _____ _____    ______ ____
ROOT
ATOM      1  C   UNL     1      43.575   6.252  11.531  0.00  0.00    +0.000 C 
ENDROOT
BRANCH   1   2
ATOM      2  C   UNL     1      43.797   4.824  11.117  0.00  0.00    +0.000 A 
ATOM      3  C   UNL     1      43.114   3.782  11.722  0.00  0.00    +0.000 A 
ATOM      4  N   UNL     1      43.221   2.494  11.337  0.00  0.00    +0.000 NA
ATOM      5  C   UNL     1      44.061   2.232  10.303  0.00  0.00    +0.000 A 
ATOM      6  C   UNL     1      44.815   3.184   9.613  0.00  0.00    +0.000 A 
ATOM      7  C   UNL     1      44.662   4.506  10.060  0.00  0.00    +0.000 A 
BRANCH   6   8
ATOM      8  C   UNL     1      45.701   2.841   8.479  0.00  0.00    +0.000 A 
ATOM      9  C   UNL     1      46.197   1.534   8.297  0.00  0.00    +0.000 A 
ATOM     10  C   UNL     1      47.023   1.211   7.214  0.00  0.00    +0.000 A 
ATOM     11  C   UNL     1      47.356   2.190   6.290  0.00  0.00    +0.000 A 
ATOM     12  F   UNL     1      48.140   1.881   5.250  0.00  0.00    +0.000 F 
ATOM     13  C   UNL     1      46.887   3.487   6.432  0.00  0.00    +0.000 A 
ATOM     14  C   UNL     1      46.073   3.808   7.522  0.00  0.00    +0.000 A 
ENDBRANCH   6   8
ENDBRANCH   1   2
BRANCH   1  15
ATOM     15  O   UNL     1      44.270   6.548  12.732  0.00  0.00    +0.000 OA
BRANCH  15  22
ATOM     16  C   UNL     1      46.426   4.399  13.670  0.00  0.00    +0.000 C 
ATOM     17  C   UNL     1      46.637   5.776  13.105  0.00  0.00    +0.000 A 
ATOM     18  C   UNL     1      47.990   6.170  12.972  0.00  0.00    +0.000 A 
ATOM     19  C   UNL     1      48.371   7.419  12.462  0.00  0.00    +0.000 A 
ATOM     20  C   UNL     1      47.370   8.305  12.072  0.00  0.00    +0.000 A 
ATOM     21  C   UNL     1      46.024   7.932  12.196  0.00  0.00    +0.000 A 
ATOM     22  C   UNL     1      45.636   6.678  12.707  0.00  0.00    +0.000 A 
BRANCH  19  23
ATOM     23  C   UNL     1      49.834   7.709  12.375  0.00  0.00    +0.000 C 
ATOM     24  N   UNL     1      50.592   7.601  13.506  0.00  0.00    +0.000 N 
ATOM     25  O   UNL     1      50.361   8.042  11.321  0.00  0.00    +0.000 OA
ATOM     26  H   UNL     1      50.250   7.341  14.416  0.00  0.00    +0.000 HD
ATOM     27  H   UNL     1      51.577   7.811  13.408  0.00  0.00    +0.000 HD
ENDBRANCH  19  23
ENDBRANCH  15  22
ENDBRANCH   1  15
TORSDOF 5
ENDMDL
MODEL 2
REMARK VINA RESULT:    -8.033      0.778      1.580
REMARK INTER + INTRA:         -11.595
REMARK INTER:                 -10.659
REMARK INTRA:                  -0.936
REMARK UNBOUND:                -1.214
REMARK  Name = 
REMARK  6 active torsions:
REMARK  status: ('A' for Active; 'I' for Inactive)
REMARK    1  A    between atoms: C_1  and  C_2
REMARK    2  A    between atoms: C_4  and  C_5
REMARK    3  A    between atoms: C_10  and  O_11
REMARK    4  A    between atoms: O_11  and  C_12
REMARK    5  A    between atoms: C_12  and  C_13
REMARK    6  A    between atoms: C_17  and  C_18
REMARK                            x       y       z     vdW  Elec       q    Type
REMARK                         _______ _______ _______ _____ _____    ______ ____
ROOT
ATOM      1  C   UNL     1      43.870   6.139  12.028  0.00  0.00    +0.000 C 
ENDROOT
BRANCH   1   2
ATOM      2  C   UNL     1      43.954   4.741  11.481  0.00  0.00    +0.000 A 
ATOM      3  C   UNL     1      43.175   3.716  11.995  0.00  0.00    +0.000 A 
ATOM      4  N   UNL     1      43.157   2.466  11.491  0.00  0.00    +0.000 NA
ATOM      5  C   UNL     1      43.967   2.222  10.429  0.00  0.00    +0.000 A 
ATOM      6  C   UNL     1      44.808   3.159   9.822  0.00  0.00    +0.000 A 
ATOM      7  C   UNL     1      44.782   4.442  10.391  0.00  0.00    +0.000 A 
BRANCH   6   8
ATOM      8  C   UNL     1      45.655   2.839   8.652  0.00  0.00    +0.000 A 
ATOM      9  C   UNL     1      46.128   1.532   8.415  0.00  0.00    +0.000 A 
ATOM     10  C   UNL     1      46.917   1.233   7.299  0.00  0.00    +0.000 A 
ATOM     11  C   UNL     1      47.236   2.236   6.395  0.00  0.00    +0.000 A 
ATOM     12  F   UNL     1      47.984   1.949   5.323  0.00  0.00    +0.000 F 
ATOM     13  C   UNL     1      46.788   3.533   6.591  0.00  0.00    +0.000 A 
ATOM     14  C   UNL     1      46.011   3.831   7.714  0.00  0.00    +0.000 A 
ENDBRANCH   6   8
ENDBRANCH   1   2
BRANCH   1  15
ATOM     15  O   UNL     1      44.829   6.343  13.053  0.00  0.00    +0.000 OA
BRANCH  15  22
ATOM     16  C   UNL     1      45.306   9.366  12.171  0.00  0.00    +0.000 C 
ATOM     17  C   UNL     1      46.305   8.259  12.354  0.00  0.00    +0.000 A 
ATOM     18  C   UNL     1      47.651   8.614  12.096  0.00  0.00    +0.000 A 
ATOM     19  C   UNL     1      48.714   7.708  12.219  0.00  0.00    +0.000 A 
ATOM     20  C   UNL     1      48.425   6.404  12.610  0.00  0.00    +0.000 A 
ATOM     21  C   UNL     1      47.098   6.032  12.870  0.00  0.00    +0.000 A 
ATOM     22  C   UNL     1      46.027   6.939  12.749  0.00  0.00    +0.000 A 
BRANCH  19  23
ATOM     23  C   UNL     1      50.086   8.214  11.917  0.00  0.00    +0.000 C 
ATOM     24  N   UNL     1      50.958   7.394  11.258  0.00  0.00    +0.000 N 
ATOM     25  O   UNL     1      50.444   9.338  12.250  0.00  0.00    +0.000 OA
ATOM     26  H   UNL     1      50.759   6.457  10.951  0.00  0.00    +0.000 HD
ATOM     27  H   UNL     1      51.879   7.771  11.078  0.00  0.00    +0.000 HD
ENDBRANCH  19  23
ENDBRANCH  15  22
ENDBRANCH   1  15
TORSDOF 5
ENDMDL
MODEL 3
REMARK VINA RESULT:    -7.676      3.411      6.802
REMARK INTER + INTRA:         -11.134
REMARK INTER:                 -10.397
REMARK INTRA:                  -0.736
REMARK UNBOUND:                -1.214
REMARK  Name = 
REMARK  6 active torsions:
REMARK  status: ('A' for Active; 'I' for Inactive)
REMARK    1  A    between atoms: C_1  and  C_2
REMARK    2  A    between atoms: C_4  and  C_5
REMARK    3  A    between atoms: C_10  and  O_11
REMARK    4  A    between atoms: O_11  and  C_12
REMARK    5  A    between atoms: C_12  and  C_13
REMARK    6  A    between atoms: C_17  and  C_18
REMARK                            x       y       z     vdW  Elec       q    Type
REMARK                         _______ _______ _______ _____ _____    ______ ____
ROOT
ATOM      1  C   UNL     1      43.957   5.300  11.326  0.00  0.00    +0.000 C 
ENDROOT
BRANCH   1   2
ATOM      2  C   UNL     1      45.250   5.529  12.059  0.00  0.00    +0.000 A 
ATOM      3  C   UNL     1      45.684   4.658  13.046  0.00  0.00    +0.000 A 
ATOM      4  N   UNL     1      46.869   4.776  13.678  0.00  0.00    +0.000 NA
ATOM      5  C   UNL     1      47.654   5.823  13.317  0.00  0.00    +0.000 A 
ATOM      6  C   UNL     1      47.333   6.778  12.349  0.00  0.00    +0.000 A 
ATOM      7  C   UNL     1      46.088   6.601  11.726  0.00  0.00    +0.000 A 
BRANCH   6   8
ATOM      8  C   UNL     1      48.240   7.889  11.983  0.00  0.00    +0.000 A 
ATOM      9  C   UNL     1      47.792   9.225  11.938  0.00  0.00    +0.000 A 
ATOM     10  C   UNL     1      48.657  10.273  11.606  0.00  0.00    +0.000 A 
ATOM     11  C   UNL     1      49.988  10.001  11.323  0.00  0.00    +0.000 A 
ATOM     12  F   UNL     1      50.818  11.004  11.013  0.00  0.00    +0.000 F 
ATOM     13  C   UNL     1      50.468   8.701  11.360  0.00  0.00    +0.000 A 
ATOM     14  C   UNL     1      49.598   7.655  11.679  0.00  0.00    +0.000 A 
ENDBRANCH   6   8
ENDBRANCH   1   2
BRANCH   1  15
ATOM     15  O   UNL     1      44.172   5.229   9.926  0.00  0.00    +0.000 OA
BRANCH  15  22
ATOM     16  C   UNL     1      43.756   2.191  10.790  0.00  0.00    +0.000 C 
ATOM     17  C   UNL     1      44.648   2.765   9.725  0.00  0.00    +0.000 A 
ATOM     18  C   UNL     1      45.413   1.815   9.006  0.00  0.00    +0.000 A 
ATOM     19  C   UNL     1      46.296   2.173   7.977  0.00  0.00    +0.000 A 
ATOM     20  C   UNL     1      46.423   3.521   7.657  0.00  0.00    +0.000 A 
ATOM     21  C   UNL     1      45.674   4.477   8.359  0.00  0.00    +0.000 A 
ATOM     22  C   UNL     1      44.785   4.123   9.392  0.00  0.00    +0.000 A 
BRANCH  19  23
ATOM     23  C   UNL     1      47.042   1.070   7.299  0.00  0.00    +0.000 C 
ATOM     24  N   UNL     1      46.760  -0.222   7.642  0.00  0.00    +0.000 N 
ATOM     25  O   UNL     1      47.897   1.300   6.452  0.00  0.00    +0.000 OA
ATOM     26  H   UNL     1      46.082  -0.508   8.328  0.00  0.00    +0.000 HD
ATOM     27  H   UNL     1      47.290  -0.939   7.165  0.00  0.00    +0.000 HD
ENDBRANCH  19  23
ENDBRANCH  15  22
ENDBRANCH   1  15
TORSDOF 5
ENDMDL
MODEL 4
REMARK VINA RESULT:    -7.662      1.454      2.025
REMARK INTER + INTRA:         -11.115
REMARK INTER:                 -10.459
REMARK INTRA:                  -0.656
REMARK UNBOUND:                -1.214
REMARK  Name = 
REMARK  6 active torsions:
REMARK  status: ('A' for Active; 'I' for Inactive)
REMARK    1  A    between atoms: C_1  and  C_2
REMARK    2  A    between atoms: C_4  and  C_5
REMARK    3  A    between atoms: C_10  and  O_11
REMARK    4  A    between atoms: O_11  and  C_12
REMARK    5  A    between atoms: C_12  and  C_13
REMARK    6  A    between atoms: C_17  and  C_18
REMARK                            x       y       z     vdW  Elec       q    Type
REMARK                         _______ _______ _______ _____ _____    ______ ____
ROOT
ATOM      1  C   UNL     1      43.990   6.220  11.631  0.00  0.00    +0.000 C 
ENDROOT
BRANCH   1   2
ATOM      2  C   UNL     1      44.061   4.808  11.118  0.00  0.00    +0.000 A 
ATOM      3  C   UNL     1      43.263   3.807  11.648  0.00  0.00    +0.000 A 
ATOM      4  N   UNL     1      43.234   2.544  11.173  0.00  0.00    +0.000 NA
ATOM      5  C   UNL     1      44.052   2.265  10.126  0.00  0.00    +0.000 A 
ATOM      6  C   UNL     1      44.911   3.176   9.507  0.00  0.00    +0.000 A 
ATOM      7  C   UNL     1      44.897   4.472  10.045  0.00  0.00    +0.000 A 
BRANCH   6   8
ATOM      8  C   UNL     1      45.767   2.817   8.354  0.00  0.00    +0.000 A 
ATOM      9  C   UNL     1      46.304   1.522   8.206  0.00  0.00    +0.000 A 
ATOM     10  C   UNL     1      47.100   1.185   7.106  0.00  0.00    +0.000 A 
ATOM     11  C   UNL     1      47.363   2.136   6.131  0.00  0.00    +0.000 A 
ATOM     12  F   UNL     1      48.118   1.812   5.074  0.00  0.00    +0.000 F 
ATOM     13  C   UNL     1      46.850   3.420   6.238  0.00  0.00    +0.000 A 
ATOM     14  C   UNL     1      46.066   3.757   7.345  0.00  0.00    +0.000 A 
ENDBRANCH   6   8
ENDBRANCH   1   2
BRANCH   1  15
ATOM     15  O   UNL     1      45.156   6.948  11.280  0.00  0.00    +0.000 OA
BRANCH  15  22
ATOM     16  C   UNL     1      45.957   9.816  12.412  0.00  0.00    +0.000 C 
ATOM     17  C   UNL     1      46.493   8.461  12.784  0.00  0.00    +0.000 A 
ATOM     18  C   UNL     1      47.498   8.465  13.780  0.00  0.00    +0.000 A 
ATOM     19  C   UNL     1      48.108   7.293  14.249  0.00  0.00    +0.000 A 
ATOM     20  C   UNL     1      47.704   6.077  13.706  0.00  0.00    +0.000 A 
ATOM     21  C   UNL     1      46.709   6.053  12.717  0.00  0.00    +0.000 A 
ATOM     22  C   UNL     1      46.093   7.227  12.244  0.00  0.00    +0.000 A 
BRANCH  19  23
ATOM     23  C   UNL     1      49.156   7.439  15.304  0.00  0.00    +0.000 C 
ATOM     24  N   UNL     1      49.127   8.542  16.109  0.00  0.00    +0.000 N 
ATOM     25  O   UNL     1      50.034   6.599  15.457  0.00  0.00    +0.000 OA
ATOM     26  H   UNL     1      48.452   9.286  16.056  0.00  0.00    +0.000 HD
ATOM     27  H   UNL     1      49.856   8.607  16.807  0.00  0.00    +0.000 HD
ENDBRANCH  19  23
ENDBRANCH  15  22
ENDBRANCH   1  15
TORSDOF 5
ENDMDL
MODEL 5
REMARK VINA RESULT:    -7.556      4.056      7.299
REMARK INTER + INTRA:         -10.979
REMARK INTER:                 -10.320
REMARK INTRA:                  -0.659
REMARK UNBOUND:                -1.214
REMARK  Name = 
REMARK  6 active torsions:
REMARK  status: ('A' for Active; 'I' for Inactive)
REMARK    1  A    between atoms: C_1  and  C_2
REMARK    2  A    between atoms: C_4  and  C_5
REMARK    3  A    between atoms: C_10  and  O_11
REMARK    4  A    between atoms: O_11  and  C_12
REMARK    5  A    between atoms: C_12  and  C_13
REMARK    6  A    between atoms: C_17  and  C_18
REMARK                            x       y       z     vdW  Elec       q    Type
REMARK                         _______ _______ _______ _____ _____    ______ ____
ROOT
ATOM      1  C   UNL     1      44.001   5.164  11.407  0.00  0.00    +0.000 C 
ENDROOT
BRANCH   1   2
ATOM      2  C   UNL     1      45.322   5.629  11.955  0.00  0.00    +0.000 A 
ATOM      3  C   UNL     1      46.050   6.629  11.331  0.00  0.00    +0.000 A 
ATOM      4  N   UNL     1      47.200   7.134  11.822  0.00  0.00    +0.000 NA
ATOM      5  C   UNL     1      47.652   6.606  12.988  0.00  0.00    +0.000 A 
ATOM      6  C   UNL     1      47.023   5.590  13.712  0.00  0.00    +0.000 A 
ATOM      7  C   UNL     1      45.831   5.106  13.151  0.00  0.00    +0.000 A 
BRANCH   6   8
ATOM      8  C   UNL     1      47.554   5.067  14.990  0.00  0.00    +0.000 A 
ATOM      9  C   UNL     1      47.267   3.759  15.430  0.00  0.00    +0.000 A 
ATOM     10  C   UNL     1      47.784   3.264  16.633  0.00  0.00    +0.000 A 
ATOM     11  C   UNL     1      48.606   4.069  17.409  0.00  0.00    +0.000 A 
ATOM     12  F   UNL     1      49.107   3.594  18.556  0.00  0.00    +0.000 F 
ATOM     13  C   UNL     1      48.914   5.360  17.010  0.00  0.00    +0.000 A 
ATOM     14  C   UNL     1      48.386   5.855  15.814  0.00  0.00    +0.000 A 
ENDBRANCH   6   8
ENDBRANCH   1   2
BRANCH   1  15
ATOM     15  O   UNL     1      44.031   5.100   9.990  0.00  0.00    +0.000 OA
BRANCH  15  22
ATOM     16  C   UNL     1      43.880   1.973  10.581  0.00  0.00    +0.000 C 
ATOM     17  C   UNL     1      44.728   2.715   9.586  0.00  0.00    +0.000 A 
ATOM     18  C   UNL     1      45.581   1.903   8.800  0.00  0.00    +0.000 A 
ATOM     19  C   UNL     1      46.440   2.426   7.823  0.00  0.00    +0.000 A 
ATOM     20  C   UNL     1      46.449   3.804   7.623  0.00  0.00    +0.000 A 
ATOM     21  C   UNL     1      45.610   4.624   8.392  0.00  0.00    +0.000 A 
ATOM     22  C   UNL     1      44.746   4.104   9.374  0.00  0.00    +0.000 A 
BRANCH  19  23
ATOM     23  C   UNL     1      47.287   1.458   7.065  0.00  0.00    +0.000 C 
ATOM     24  N   UNL     1      48.328   1.938   6.321  0.00  0.00    +0.000 N 
ATOM     25  O   UNL     1      47.067   0.253   7.092  0.00  0.00    +0.000 OA
ATOM     26  H   UNL     1      48.582   2.908   6.231  0.00  0.00    +0.000 HD
ATOM     27  H   UNL     1      48.874   1.252   5.817  0.00  0.00    +0.000 HD
ENDBRANCH  19  23
ENDBRANCH  15  22
ENDBRANCH   1  15
TORSDOF 5
ENDMDL
MODEL 6
REMARK VINA RESULT:    -7.247      2.795      3.414
REMARK INTER + INTRA:         -10.579
REMARK INTER:                  -9.788
REMARK INTRA:                  -0.791
REMARK UNBOUND:                -1.214
REMARK  Name = 
REMARK  6 active torsions:
REMARK  status: ('A' for Active; 'I' for Inactive)
REMARK    1  A    between atoms: C_1  and  C_2
REMARK    2  A    between atoms: C_4  and  C_5
REMARK    3  A    between atoms: C_10  and  O_11
REMARK    4  A    between atoms: O_11  and  C_12
REMARK    5  A    between atoms: C_12  and  C_13
REMARK    6  A    between atoms: C_17  and  C_18
REMARK                            x       y       z     vdW  Elec       q    Type
REMARK                         _______ _______ _______ _____ _____    ______ ____
ROOT
ATOM      1  C   UNL     1      46.090   7.166  12.432  0.00  0.00    +0.000 C 
ENDROOT
BRANCH   1   2
ATOM      2  C   UNL     1      45.225   6.251  11.611  0.00  0.00    +0.000 A 
ATOM      3  C   UNL     1      43.842   6.301  11.690  0.00  0.00    +0.000 A 
ATOM      4  N   UNL     1      43.022   5.556  10.921  0.00  0.00    +0.000 NA
ATOM      5  C   UNL     1      43.611   4.710  10.038  0.00  0.00    +0.000 A 
ATOM      6  C   UNL     1      44.989   4.554   9.865  0.00  0.00    +0.000 A 
ATOM      7  C   UNL     1      45.790   5.355  10.693  0.00  0.00    +0.000 A 
BRANCH   6   8
ATOM      8  C   UNL     1      45.574   3.627   8.871  0.00  0.00    +0.000 A 
ATOM      9  C   UNL     1      45.543   2.230   9.054  0.00  0.00    +0.000 A 
ATOM     10  C   UNL     1      46.085   1.358   8.103  0.00  0.00    +0.000 A 
ATOM     11  C   UNL     1      46.657   1.871   6.948  0.00  0.00    +0.000 A 
ATOM     12  F   UNL     1      47.169   1.037   6.035  0.00  0.00    +0.000 F 
ATOM     13  C   UNL     1      46.704   3.239   6.729  0.00  0.00    +0.000 A 
ATOM     14  C   UNL     1      46.173   4.108   7.687  0.00  0.00    +0.000 A 
ENDBRANCH   6   8
ENDBRANCH   1   2
BRANCH   1  15
ATOM     15  O   UNL     1      47.341   6.562  12.720  0.00  0.00    +0.000 OA
BRANCH  15  22
ATOM     16  C   UNL     1      46.361   3.637  13.516  0.00  0.00    +0.000 C 
ATOM     17  C   UNL     1      47.116   4.644  14.336  0.00  0.00    +0.000 A 
ATOM     18  C   UNL     1      47.437   4.230  15.651  0.00  0.00    +0.000 A 
ATOM     19  C   UNL     1      48.139   5.041  16.554  0.00  0.00    +0.000 A 
ATOM     20  C   UNL     1      48.534   6.307  16.132  0.00  0.00    +0.000 A 
ATOM     21  C   UNL     1      48.226   6.735  14.832  0.00  0.00    +0.000 A 
ATOM     22  C   UNL     1      47.522   5.924  13.922  0.00  0.00    +0.000 A 
BRANCH  19  23
ATOM     23  C   UNL     1      48.412   4.480  17.911  0.00  0.00    +0.000 C 
ATOM     24  N   UNL     1      47.861   3.276  18.247  0.00  0.00    +0.000 N 
ATOM     25  O   UNL     1      49.109   5.076  18.724  0.00  0.00    +0.000 OA
ATOM     26  H   UNL     1      47.272   2.718  17.652  0.00  0.00    +0.000 HD
ATOM     27  H   UNL     1      48.064   2.933  19.177  0.00  0.00    +0.000 HD
ENDBRANCH  19  23
ENDBRANCH  15  22
ENDBRANCH   1  15
TORSDOF 5
ENDMDL
MODEL 7
REMARK VINA RESULT:    -6.906      3.741      7.236
REMARK INTER + INTRA:         -10.138
REMARK INTER:                  -9.354
REMARK INTRA:                  -0.784
REMARK UNBOUND:                -1.214
REMARK  Name = 
REMARK  6 active torsions:
REMARK  status: ('A' for Active; 'I' for Inactive)
REMARK    1  A    between atoms: C_1  and  C_2
REMARK    2  A    between atoms: C_4  and  C_5
REMARK    3  A    between atoms: C_10  and  O_11
REMARK    4  A    between atoms: O_11  and  C_12
REMARK    5  A    between atoms: C_12  and  C_13
REMARK    6  A    between atoms: C_17  and  C_18
REMARK                            x       y       z     vdW  Elec       q    Type
REMARK                         _______ _______ _______ _____ _____    ______ ____
ROOT
ATOM      1  C   UNL     1      44.968   5.397  11.437  0.00  0.00    +0.000 C 
ENDROOT
BRANCH   1   2
ATOM      2  C   UNL     1      45.610   6.743  11.631  0.00  0.00    +0.000 A 
ATOM      3  C   UNL     1      44.864   7.910  11.602  0.00  0.00    +0.000 A 
ATOM      4  N   UNL     1      45.378   9.133  11.846  0.00  0.00    +0.000 NA
ATOM      5  C   UNL     1      46.706   9.195  12.119  0.00  0.00    +0.000 A 
ATOM      6  C   UNL     1      47.573   8.100  12.169  0.00  0.00    +0.000 A 
ATOM      7  C   UNL     1      46.980   6.855  11.907  0.00  0.00    +0.000 A 
BRANCH   6   8
ATOM      8  C   UNL     1      49.012   8.228  12.492  0.00  0.00    +0.000 A 
ATOM      9  C   UNL     1      49.963   8.566  11.508  0.00  0.00    +0.000 A 
ATOM     10  C   UNL     1      51.320   8.699  11.823  0.00  0.00    +0.000 A 
ATOM     11  C   UNL     1      51.744   8.507  13.130  0.00  0.00    +0.000 A 
ATOM     12  F   UNL     1      53.041   8.642  13.433  0.00  0.00    +0.000 F 
ATOM     13  C   UNL     1      50.839   8.176  14.126  0.00  0.00    +0.000 A 
ATOM     14  C   UNL     1      49.486   8.031  13.806  0.00  0.00    +0.000 A 
ENDBRANCH   6   8
ENDBRANCH   1   2
BRANCH   1  15
ATOM     15  O   UNL     1      44.551   5.221  10.092  0.00  0.00    +0.000 OA
BRANCH  15  22
ATOM     16  C   UNL     1      44.122   2.066  10.192  0.00  0.00    +0.000 C 
ATOM     17  C   UNL     1      45.025   2.877   9.306  0.00  0.00    +0.000 A 
ATOM     18  C   UNL     1      45.794   2.127   8.384  0.00  0.00    +0.000 A 
ATOM     19  C   UNL     1      46.687   2.720   7.480  0.00  0.00    +0.000 A 
ATOM     20  C   UNL     1      46.819   4.105   7.496  0.00  0.00    +0.000 A 
ATOM     21  C   UNL     1      46.065   4.866   8.403  0.00  0.00    +0.000 A 
ATOM     22  C   UNL     1      45.167   4.275   9.312  0.00  0.00    +0.000 A 
BRANCH  19  23
ATOM     23  C   UNL     1      47.436   1.812   6.561  0.00  0.00    +0.000 C 
ATOM     24  N   UNL     1      48.400   2.346   5.752  0.00  0.00    +0.000 N 
ATOM     25  O   UNL     1      47.203   0.610   6.514  0.00  0.00    +0.000 OA
ATOM     26  H   UNL     1      48.658   3.318   5.715  0.00  0.00    +0.000 HD
ATOM     27  H   UNL     1      48.881   1.699   5.140  0.00  0.00    +0.000 HD
ENDBRANCH  19  23
ENDBRANCH  15  22
ENDBRANCH   1  15
TORSDOF 5
ENDMDL
MODEL 8
REMARK VINA RESULT:    -6.804      1.676      2.859
REMARK INTER + INTRA:         -10.006
REMARK INTER:                  -9.230
REMARK INTRA:                  -0.776
REMARK UNBOUND:                -1.214
REMARK  Name = 
REMARK  6 active torsions:
REMARK  status: ('A' for Active; 'I' for Inactive)
REMARK    1  A    between atoms: C_1  and  C_2
REMARK    2  A    between atoms: C_4  and  C_5
REMARK    3  A    between atoms: C_10  and  O_11
REMARK    4  A    between atoms: O_11  and  C_12
REMARK    5  A    between atoms: C_12  and  C_13
REMARK    6  A    between atoms: C_17  and  C_18
REMARK                            x       y       z     vdW  Elec       q    Type
REMARK                         _______ _______ _______ _____ _____    ______ ____
ROOT
ATOM      1  C   UNL     1      45.825   6.819  13.015  0.00  0.00    +0.000 C 
ENDROOT
BRANCH   1   2
ATOM      2  C   UNL     1      45.002   5.929  12.125  0.00  0.00    +0.000 A 
ATOM      3  C   UNL     1      43.623   5.867  12.241  0.00  0.00    +0.000 A 
ATOM      4  N   UNL     1      42.835   5.145  11.418  0.00  0.00    +0.000 NA
ATOM      5  C   UNL     1      43.456   4.439  10.439  0.00  0.00    +0.000 A 
ATOM      6  C   UNL     1      44.836   4.404  10.219  0.00  0.00    +0.000 A 
ATOM      7  C   UNL     1      45.602   5.176  11.106  0.00  0.00    +0.000 A 
BRANCH   6   8
ATOM      8  C   UNL     1      45.455   3.629   9.121  0.00  0.00    +0.000 A 
ATOM      9  C   UNL     1      46.059   4.265   8.017  0.00  0.00    +0.000 A 
ATOM     10  C   UNL     1      46.656   3.527   6.989  0.00  0.00    +0.000 A 
ATOM     11  C   UNL     1      46.668   2.142   7.055  0.00  0.00    +0.000 A 
ATOM     12  F   UNL     1      47.245   1.435   6.075  0.00  0.00    +0.000 F 
ATOM     13  C   UNL     1      46.087   1.480   8.126  0.00  0.00    +0.000 A 
ATOM     14  C   UNL     1      45.480   2.219   9.144  0.00  0.00    +0.000 A 
ENDBRANCH   6   8
ENDBRANCH   1   2
BRANCH   1  15
ATOM     15  O   UNL     1      46.035   8.086  12.414  0.00  0.00    +0.000 OA
BRANCH  15  22
ATOM     16  C   UNL     1      47.003  11.028  11.670  0.00  0.00    +0.000 C 
ATOM     17  C   UNL     1      47.804   9.761  11.778  0.00  0.00    +0.000 A 
ATOM     18  C   UNL     1      49.187   9.899  11.510  0.00  0.00    +0.000 A 
ATOM     19  C   UNL     1      50.083   8.822  11.567  0.00  0.00    +0.000 A 
ATOM     20  C   UNL     1      49.585   7.566  11.900  0.00  0.00    +0.000 A 
ATOM     21  C   UNL     1      48.217   7.410  12.169  0.00  0.00    +0.000 A 
ATOM     22  C   UNL     1      47.313   8.488  12.114  0.00  0.00    +0.000 A 
BRANCH  19  23
ATOM     23  C   UNL     1      51.518   9.106  11.261  0.00  0.00    +0.000 C 
ATOM     24  N   UNL     1      51.814  10.069  10.338  0.00  0.00    +0.000 N 
ATOM     25  O   UNL     1      52.425   8.496  11.814  0.00  0.00    +0.000 OA
ATOM     26  H   UNL     1      51.141  10.616   9.828  0.00  0.00    +0.000 HD
ATOM     27  H   UNL     1      52.797  10.227  10.154  0.00  0.00    +0.000 HD
ENDBRANCH  19  23
ENDBRANCH  15  22
ENDBRANCH   1  15
TORSDOF 5
ENDMDL
MODEL 9
REMARK VINA RESULT:    -6.704      4.725      6.952
REMARK INTER + INTRA:          -9.877
REMARK INTER:                  -8.852
REMARK INTRA:                  -1.025
REMARK UNBOUND:                -1.214
REMARK  Name = 
REMARK  6 active torsions:
REMARK  status: ('A' for Active; 'I' for Inactive)
REMARK    1  A    between atoms: C_1  and  C_2
REMARK    2  A    between atoms: C_4  and  C_5
REMARK    3  A    between atoms: C_10  and  O_11
REMARK    4  A    between atoms: O_11  and  C_12
REMARK    5  A    between atoms: C_12  and  C_13
REMARK    6  A    between atoms: C_17  and  C_18
REMARK                            x       y       z     vdW  Elec       q    Type
REMARK                         _______ _______ _______ _____ _____    ______ ____
ROOT
ATOM      1  C   UNL     1      49.247   7.060  16.694  0.00  0.00    +0.000 C 
ENDROOT
BRANCH   1   2
ATOM      2  C   UNL     1      49.027   7.054  15.207  0.00  0.00    +0.000 A 
ATOM      3  C   UNL     1      49.921   7.662  14.342  0.00  0.00    +0.000 A 
ATOM      4  N   UNL     1      49.810   7.620  12.998  0.00  0.00    +0.000 NA
ATOM      5  C   UNL     1      48.744   6.947  12.494  0.00  0.00    +0.000 A 
ATOM      6  C   UNL     1      47.765   6.299  13.252  0.00  0.00    +0.000 A 
ATOM      7  C   UNL     1      47.936   6.379  14.643  0.00  0.00    +0.000 A 
BRANCH   6   8
ATOM      8  C   UNL     1      46.634   5.563  12.644  0.00  0.00    +0.000 A 
ATOM      9  C   UNL     1      45.895   6.099  11.569  0.00  0.00    +0.000 A 
ATOM     10  C   UNL     1      44.836   5.392  10.989  0.00  0.00    +0.000 A 
ATOM     11  C   UNL     1      44.508   4.132  11.468  0.00  0.00    +0.000 A 
ATOM     12  F   UNL     1      43.500   3.452  10.908  0.00  0.00    +0.000 F 
ATOM     13  C   UNL     1      45.213   3.569  12.520  0.00  0.00    +0.000 A 
ATOM     14  C   UNL     1      46.261   4.283  13.106  0.00  0.00    +0.000 A 
ENDBRANCH   6   8
ENDBRANCH   1   2
BRANCH   1  15
ATOM     15  O   UNL     1      48.667   5.915  17.299  0.00  0.00    +0.000 OA
BRANCH  15  22
ATOM     16  C   UNL     1      47.548   2.949  16.990  0.00  0.00    +0.000 C 
ATOM     17  C   UNL     1      48.955   3.415  17.236  0.00  0.00    +0.000 A 
ATOM     18  C   UNL     1      49.919   2.384  17.346  0.00  0.00    +0.000 A 
ATOM     19  C   UNL     1      51.280   2.637  17.573  0.00  0.00    +0.000 A 
ATOM     20  C   UNL     1      51.692   3.961  17.697  0.00  0.00    +0.000 A 
ATOM     21  C   UNL     1      50.751   4.996  17.591  0.00  0.00    +0.000 A 
ATOM     22  C   UNL     1      49.385   4.747  17.362  0.00  0.00    +0.000 A 
BRANCH  19  23
ATOM     23  C   UNL     1      52.191   1.457  17.668  0.00  0.00    +0.000 C 
ATOM     24  N   UNL     1      51.671   0.257  18.062  0.00  0.00    +0.000 N 
ATOM     25  O   UNL     1      53.384   1.545  17.405  0.00  0.00    +0.000 OA
ATOM     26  H   UNL     1      50.709   0.089  18.304  0.00  0.00    +0.000 HD
ATOM     27  H   UNL     1      52.321  -0.516  18.120  0.00  0.00    +0.000 HD
ENDBRANCH  19  23
ENDBRANCH  15  22
ENDBRANCH   1  15
TORSDOF 5
ENDMDL
