MODEL 1
REMARK VINA RESULT:    -7.451      0.000      0.000
REMARK INTER + INTRA:         -12.479
REMARK INTER:                 -11.371
REMARK INTRA:                  -1.107
REMARK UNBOUND:                -1.107
REMARK  Name = 
REMARK  9 active torsions:
REMARK  status: ('A' for Active; 'I' for Inactive)
REMARK    1  A    between atoms: C_2  and  C_3
REMARK    2  A    between atoms: C_7  and  C_8
REMARK    3  A    between atoms: N_10  and  C_11
REMARK    4  A    between atoms: C_11  and  C_12
REMARK    5  A    between atoms: C_15  and  C_16
REMARK    6  A    between atoms: C_16  and  N_17
REMARK    7  A    between atoms: C_18  and  C_20
REMARK    8  A    between atoms: N_26  and  C_27
REMARK    9  A    between atoms: C_27  and  C_28
REMARK                            x       y       z     vdW  Elec       q    Type
REMARK                         _______ _______ _______ _____ _____    ______ ____
ROOT
ATOM      1  C   UNL     1      50.518   8.623  11.523  0.00  0.00    +0.000 A 
ATOM      2  C   UNL     1      49.635   9.712  11.505  0.00  0.00    +0.000 A 
ATOM      3  C   UNL     1      48.301   9.566  11.917  0.00  0.00    +0.000 A 
ATOM      4  C   UNL     1      47.822   8.334  12.385  0.00  0.00    +0.000 A 
ATOM      5  C   UNL     1      48.697   7.240  12.373  0.00  0.00    +0.000 A 
ATOM      6  C   UNL     1      50.033   7.386  11.966  0.00  0.00    +0.000 A 
ENDROOT
BRANCH   1   7
ATOM      7  C   UNL     1      51.938   8.775  11.030  0.00  0.00    +0.000 C 
BRANCH   7  10
ATOM      8  C   UNL     1      52.881   6.907   9.762  0.00  0.00    +0.000 C 
ATOM      9  O   UNL     1      52.437   7.358   8.711  0.00  0.00    +0.000 OA
ATOM     10  N   UNL     1      52.680   7.530  10.978  0.00  0.00    +0.000 N 
ATOM     11  H   UNL     1      52.929   7.073  11.846  0.00  0.00    +0.000 HD
BRANCH   8  16
ATOM     12  C   UNL     1      54.621   5.461   8.591  0.00  0.00    +0.000 C 
ATOM     13  C   UNL     1      55.698   4.482   9.055  0.00  0.00    +0.000 C 
ATOM     14  C   UNL     1      55.728   4.572  10.579  0.00  0.00    +0.000 C 
ATOM     15  C   UNL     1      54.667   5.591  10.978  0.00  0.00    +0.000 C 
ATOM     16  C   UNL     1      53.688   5.615   9.810  0.00  0.00    +0.000 C 
BRANCH  12  18
ATOM     17  N   UNL     1      53.203   4.465   6.415  0.00  0.00    +0.000 NA
ATOM     18  C   UNL     1      53.845   4.916   7.402  0.00  0.00    +0.000 C 
ENDBRANCH  12  18
ENDBRANCH   8  16
ENDBRANCH   7  10
ENDBRANCH   1   7
BRANCH   4  19
ATOM     19  C   UNL     1      46.410   8.182  12.914  0.00  0.00    +0.000 C 
BRANCH  19  20
ATOM     20  N   UNL     1      45.848   6.886  12.660  0.00  0.00    +0.000 N 
ATOM     21  C   UNL     1      44.946   6.657  11.643  0.00  0.00    +0.000 C 
ATOM     22  O   UNL     1      44.474   7.556  10.965  0.00  0.00    +0.000 OA
ATOM     23  H   UNL     1      46.376   6.100  13.027  0.00  0.00    +0.000 HD
BRANCH  21  24
ATOM     24  C   UNL     1      44.554   5.252  11.461  0.00  0.00    +0.000 A 
ATOM     25  C   UNL     1      43.782   4.598  12.413  0.00  0.00    +0.000 A 
ATOM     26  S   UNL     1      43.437   2.971  12.010  0.00  0.00    +0.000 S 
ATOM     27  C   UNL     1      44.287   3.096  10.538  0.00  0.00    +0.000 A 
ATOM     28  N   UNL     1      44.366   2.048   9.676  0.00  0.00    +0.000 NA
ATOM     29  C   UNL     1      45.031   2.290   8.593  0.00  0.00    +0.000 A 
ATOM     30  N   UNL     1      45.634   3.488   8.270  0.00  0.00    +0.000 N 
ATOM     31  C   UNL     1      45.611   4.558   9.152  0.00  0.00    +0.000 A 
ATOM     32  O   UNL     1      46.218   5.600   8.924  0.00  0.00    +0.000 OA
ATOM     33  C   UNL     1      44.847   4.343  10.372  0.00  0.00    +0.000 A 
BRANCH  30  34
ATOM     34  C   UNL     1      46.361   3.656   7.014  0.00  0.00    +0.000 C 
BRANCH  34  35
ATOM     35  C   UNL     1      47.472   2.630   6.819  0.00  0.00    +0.000 C 
ATOM     36  F   UNL     1      47.016   1.631   6.016  0.00  0.00    +0.000 F 
ENDBRANCH  34  35
ENDBRANCH  30  34
ENDBRANCH  21  24
ENDBRANCH  19  20
ENDBRANCH   4  19
TORSDOF 9
ENDMDL
MODEL 2
REMARK VINA RESULT:    -7.411      4.239      5.421
REMARK INTER + INTRA:         -12.418
REMARK INTER:                 -11.029
REMARK INTRA:                  -1.388
REMARK UNBOUND:                -1.107
REMARK  Name = 
REMARK  9 active torsions:
REMARK  status: ('A' for Active; 'I' for Inactive)
REMARK    1  A    between atoms: C_2  and  C_3
REMARK    2  A    between atoms: C_7  and  C_8
REMARK    3  A    between atoms: N_10  and  C_11
REMARK    4  A    between atoms: C_11  and  C_12
REMARK    5  A    between atoms: C_15  and  C_16
REMARK    6  A    between atoms: C_16  and  N_17
REMARK    7  A    between atoms: C_18  and  C_20
REMARK    8  A    between atoms: N_26  and  C_27
REMARK    9  A    between atoms: C_27  and  C_28
REMARK                            x       y       z     vdW  Elec       q    Type
REMARK                         _______ _______ _______ _____ _____    ______ ____
ROOT
ATOM      1  C   UNL     1      50.472   7.468  15.068  0.00  0.00    +0.000 A 
ATOM      2  C   UNL     1      49.233   6.830  15.224  0.00  0.00    +0.000 A 
ATOM      3  C   UNL     1      48.232   6.951  14.247  0.00  0.00    +0.000 A 
ATOM      4  C   UNL     1      48.453   7.689  13.076  0.00  0.00    +0.000 A 
ATOM      5  C   UNL     1      49.680   8.351  12.937  0.00  0.00    +0.000 A 
ATOM      6  C   UNL     1      50.684   8.227  13.911  0.00  0.00    +0.000 A 
ENDROOT
BRANCH   1   7
ATOM      7  C   UNL     1      51.525   7.376  16.147  0.00  0.00    +0.000 C 
BRANCH   7  10
ATOM      8  C   UNL     1      51.226   5.691  17.896  0.00  0.00    +0.000 C 
ATOM      9  O   UNL     1      50.619   6.490  18.602  0.00  0.00    +0.000 OA
ATOM     10  N   UNL     1      51.731   6.033  16.657  0.00  0.00    +0.000 N 
ATOM     11  H   UNL     1      52.348   5.409  16.154  0.00  0.00    +0.000 HD
BRANCH   8  16
ATOM     12  C   UNL     1      50.798   3.229  17.403  0.00  0.00    +0.000 C 
ATOM     13  C   UNL     1      51.577   1.934  17.626  0.00  0.00    +0.000 C 
ATOM     14  C   UNL     1      52.952   2.347  18.148  0.00  0.00    +0.000 C 
ATOM     15  C   UNL     1      52.949   3.868  18.228  0.00  0.00    +0.000 C 
ATOM     16  C   UNL     1      51.478   4.254  18.335  0.00  0.00    +0.000 C 
BRANCH  12  18
ATOM     17  N   UNL     1      48.117   2.939  18.084  0.00  0.00    +0.000 NA
ATOM     18  C   UNL     1      49.332   3.071  17.776  0.00  0.00    +0.000 C 
ENDBRANCH  12  18
ENDBRANCH   8  16
ENDBRANCH   7  10
ENDBRANCH   1   7
BRANCH   4  19
ATOM     19  C   UNL     1      47.414   7.758  11.974  0.00  0.00    +0.000 C 
BRANCH  19  20
ATOM     20  N   UNL     1      46.678   6.535  11.816  0.00  0.00    +0.000 N 
ATOM     21  C   UNL     1      45.328   6.515  11.538  0.00  0.00    +0.000 C 
ATOM     22  O   UNL     1      44.644   7.526  11.523  0.00  0.00    +0.000 OA
ATOM     23  H   UNL     1      47.233   5.716  11.588  0.00  0.00    +0.000 HD
BRANCH  21  24
ATOM     24  C   UNL     1      44.759   5.180  11.305  0.00  0.00    +0.000 A 
ATOM     25  C   UNL     1      43.930   4.584  12.249  0.00  0.00    +0.000 A 
ATOM     26  S   UNL     1      43.374   3.035  11.784  0.00  0.00    +0.000 S 
ATOM     27  C   UNL     1      44.202   3.120  10.297  0.00  0.00    +0.000 A 
ATOM     28  N   UNL     1      44.130   2.112   9.389  0.00  0.00    +0.000 NA
ATOM     29  C   UNL     1      44.797   2.318   8.300  0.00  0.00    +0.000 A 
ATOM     30  N   UNL     1      45.539   3.445   8.013  0.00  0.00    +0.000 N 
ATOM     31  C   UNL     1      45.671   4.468   8.941  0.00  0.00    +0.000 A 
ATOM     32  O   UNL     1      46.399   5.435   8.742  0.00  0.00    +0.000 OA
ATOM     33  C   UNL     1      44.911   4.294  10.170  0.00  0.00    +0.000 A 
BRANCH  30  34
ATOM     34  C   UNL     1      46.255   3.579   6.746  0.00  0.00    +0.000 C 
BRANCH  34  35
ATOM     35  C   UNL     1      47.016   2.319   6.349  0.00  0.00    +0.000 C 
ATOM     36  F   UNL     1      48.024   2.112   7.241  0.00  0.00    +0.000 F 
ENDBRANCH  34  35
ENDBRANCH  30  34
ENDBRANCH  21  24
ENDBRANCH  19  20
ENDBRANCH   4  19
TORSDOF 9
ENDMDL
MODEL 3
REMARK VINA RESULT:    -7.142      1.499      2.109
REMARK INTER + INTRA:         -12.007
REMARK INTER:                 -10.748
REMARK INTRA:                  -1.258
REMARK UNBOUND:                -1.107
REMARK  Name = 
REMARK  9 active torsions:
REMARK  status: ('A' for Active; 'I' for Inactive)
REMARK    1  A    between atoms: C_2  and  C_3
REMARK    2  A    between atoms: C_7  and  C_8
REMARK    3  A    between atoms: N_10  and  C_11
REMARK    4  A    between atoms: C_11  and  C_12
REMARK    5  A    between atoms: C_15  and  C_16
REMARK    6  A    between atoms: C_16  and  N_17
REMARK    7  A    between atoms: C_18  and  C_20
REMARK    8  A    between atoms: N_26  and  C_27
REMARK    9  A    between atoms: C_27  and  C_28
REMARK                            x       y       z     vdW  Elec       q    Type
REMARK                         _______ _______ _______ _____ _____    ______ ____
ROOT
ATOM      1  C   UNL     1      50.063   8.922  12.035  0.00  0.00    +0.000 A 
ATOM      2  C   UNL     1      49.189   9.939  12.444  0.00  0.00    +0.000 A 
ATOM      3  C   UNL     1      47.805   9.713  12.520  0.00  0.00    +0.000 A 
ATOM      4  C   UNL     1      47.262   8.457  12.216  0.00  0.00    +0.000 A 
ATOM      5  C   UNL     1      48.134   7.451  11.777  0.00  0.00    +0.000 A 
ATOM      6  C   UNL     1      49.519   7.675  11.705  0.00  0.00    +0.000 A 
ENDROOT
BRANCH   1   7
ATOM      7  C   UNL     1      51.545   9.187  11.905  0.00  0.00    +0.000 C 
BRANCH   7  10
ATOM      8  C   UNL     1      52.972   8.315  10.120  0.00  0.00    +0.000 C 
ATOM      9  O   UNL     1      53.456   7.478  10.876  0.00  0.00    +0.000 OA
ATOM     10  N   UNL     1      52.019   9.224  10.535  0.00  0.00    +0.000 N 
ATOM     11  H   UNL     1      51.738   9.993   9.941  0.00  0.00    +0.000 HD
BRANCH   8  16
ATOM     12  C   UNL     1      52.702   7.364   7.772  0.00  0.00    +0.000 C 
ATOM     13  C   UNL     1      52.776   7.943   6.360  0.00  0.00    +0.000 C 
ATOM     14  C   UNL     1      52.920   9.455   6.525  0.00  0.00    +0.000 C 
ATOM     15  C   UNL     1      52.936   9.731   8.024  0.00  0.00    +0.000 C 
ATOM     16  C   UNL     1      53.392   8.422   8.659  0.00  0.00    +0.000 C 
BRANCH  12  18
ATOM     17  N   UNL     1      54.047   4.936   7.954  0.00  0.00    +0.000 NA
ATOM     18  C   UNL     1      53.437   6.036   7.871  0.00  0.00    +0.000 C 
ENDBRANCH  12  18
ENDBRANCH   8  16
ENDBRANCH   7  10
ENDBRANCH   1   7
BRANCH   4  19
ATOM     19  C   UNL     1      45.782   8.173  12.376  0.00  0.00    +0.000 C 
BRANCH  19  20
ATOM     20  N   UNL     1      45.443   6.797  12.150  0.00  0.00    +0.000 N 
ATOM     21  C   UNL     1      44.281   6.416  11.514  0.00  0.00    +0.000 C 
ATOM     22  O   UNL     1      43.408   7.211  11.204  0.00  0.00    +0.000 OA
ATOM     23  H   UNL     1      46.221   6.145  12.172  0.00  0.00    +0.000 HD
BRANCH  21  24
ATOM     24  C   UNL     1      44.145   4.972  11.274  0.00  0.00    +0.000 A 
ATOM     25  C   UNL     1      43.395   4.175  12.130  0.00  0.00    +0.000 A 
ATOM     26  S   UNL     1      43.364   2.526  11.674  0.00  0.00    +0.000 S 
ATOM     27  C   UNL     1      44.331   2.828  10.303  0.00  0.00    +0.000 A 
ATOM     28  N   UNL     1      44.670   1.832   9.444  0.00  0.00    +0.000 NA
ATOM     29  C   UNL     1      45.396   2.209   8.442  0.00  0.00    +0.000 A 
ATOM     30  N   UNL     1      45.826   3.497   8.199  0.00  0.00    +0.000 N 
ATOM     31  C   UNL     1      45.537   4.524   9.086  0.00  0.00    +0.000 A 
ATOM     32  O   UNL     1      45.986   5.656   8.936  0.00  0.00    +0.000 OA
ATOM     33  C   UNL     1      44.694   4.154  10.213  0.00  0.00    +0.000 A 
BRANCH  30  34
ATOM     34  C   UNL     1      46.643   3.816   7.031  0.00  0.00    +0.000 C 
BRANCH  34  35
ATOM     35  C   UNL     1      47.088   2.582   6.252  0.00  0.00    +0.000 C 
ATOM     36  F   UNL     1      47.007   2.849   4.920  0.00  0.00    +0.000 F 
ENDBRANCH  34  35
ENDBRANCH  30  34
ENDBRANCH  21  24
ENDBRANCH  19  20
ENDBRANCH   4  19
TORSDOF 9
ENDMDL
MODEL 4
REMARK VINA RESULT:    -6.663      4.722      8.761
REMARK INTER + INTRA:         -11.275
REMARK INTER:                  -9.902
REMARK INTRA:                  -1.373
REMARK UNBOUND:                -1.107
REMARK  Name = 
REMARK  9 active torsions:
REMARK  status: ('A' for Active; 'I' for Inactive)
REMARK    1  A    between atoms: C_2  and  C_3
REMARK    2  A    between atoms: C_7  and  C_8
REMARK    3  A    between atoms: N_10  and  C_11
REMARK    4  A    between atoms: C_11  and  C_12
REMARK    5  A    between atoms: C_15  and  C_16
REMARK    6  A    between atoms: C_16  and  N_17
REMARK    7  A    between atoms: C_18  and  C_20
REMARK    8  A    between atoms: N_26  and  C_27
REMARK    9  A    between atoms: C_27  and  C_28
REMARK                            x       y       z     vdW  Elec       q    Type
REMARK                         _______ _______ _______ _____ _____    ______ ____
ROOT
ATOM      1  C   UNL     1      46.781   8.484  12.080  0.00  0.00    +0.000 A 
ATOM      2  C   UNL     1      47.543   7.308  12.026  0.00  0.00    +0.000 A 
ATOM      3  C   UNL     1      48.943   7.351  12.124  0.00  0.00    +0.000 A 
ATOM      4  C   UNL     1      49.616   8.567  12.307  0.00  0.00    +0.000 A 
ATOM      5  C   UNL     1      48.855   9.744  12.330  0.00  0.00    +0.000 A 
ATOM      6  C   UNL     1      47.454   9.702  12.236  0.00  0.00    +0.000 A 
ENDROOT
BRANCH   1   7
ATOM      7  C   UNL     1      45.279   8.435  11.922  0.00  0.00    +0.000 C 
BRANCH   7  10
ATOM      8  C   UNL     1      44.384   6.162  12.066  0.00  0.00    +0.000 C 
ATOM      9  O   UNL     1      44.434   6.190  13.292  0.00  0.00    +0.000 OA
ATOM     10  N   UNL     1      44.793   7.226  11.285  0.00  0.00    +0.000 N 
ATOM     11  H   UNL     1      44.879   7.134  10.281  0.00  0.00    +0.000 HD
BRANCH   8  16
ATOM     12  C   UNL     1      45.022   4.068  10.763  0.00  0.00    +0.000 C 
ATOM     13  C   UNL     1      44.387   2.695  10.553  0.00  0.00    +0.000 C 
ATOM     14  C   UNL     1      43.175   2.639  11.481  0.00  0.00    +0.000 C 
ATOM     15  C   UNL     1      43.118   3.977  12.207  0.00  0.00    +0.000 C 
ATOM     16  C   UNL     1      43.873   4.946  11.304  0.00  0.00    +0.000 C 
BRANCH  12  18
ATOM     17  N   UNL     1      45.992   5.120   8.378  0.00  0.00    +0.000 NA
ATOM     18  C   UNL     1      45.553   4.643   9.459  0.00  0.00    +0.000 C 
ENDBRANCH  12  18
ENDBRANCH   8  16
ENDBRANCH   7  10
ENDBRANCH   1   7
BRANCH   4  19
ATOM     19  C   UNL     1      51.118   8.621  12.501  0.00  0.00    +0.000 C 
BRANCH  19  20
ATOM     20  N   UNL     1      51.577   7.793  13.581  0.00  0.00    +0.000 N 
ATOM     21  C   UNL     1      51.539   8.204  14.896  0.00  0.00    +0.000 C 
ATOM     22  O   UNL     1      51.223   9.336  15.224  0.00  0.00    +0.000 OA
ATOM     23  H   UNL     1      51.617   6.798  13.383  0.00  0.00    +0.000 HD
BRANCH  21  24
ATOM     24  C   UNL     1      51.951   7.191  15.878  0.00  0.00    +0.000 A 
ATOM     25  C   UNL     1      53.279   7.081  16.275  0.00  0.00    +0.000 A 
ATOM     26  S   UNL     1      53.546   5.842  17.424  0.00  0.00    +0.000 S 
ATOM     27  C   UNL     1      51.892   5.429  17.448  0.00  0.00    +0.000 A 
ATOM     28  N   UNL     1      51.422   4.443  18.255  0.00  0.00    +0.000 NA
ATOM     29  C   UNL     1      50.146   4.247  18.179  0.00  0.00    +0.000 A 
ATOM     30  N   UNL     1      49.272   4.945  17.372  0.00  0.00    +0.000 N 
ATOM     31  C   UNL     1      49.730   5.923  16.503  0.00  0.00    +0.000 A 
ATOM     32  O   UNL     1      48.983   6.492  15.712  0.00  0.00    +0.000 OA
ATOM     33  C   UNL     1      51.157   6.201  16.576  0.00  0.00    +0.000 A 
BRANCH  30  34
ATOM     34  C   UNL     1      47.842   4.644  17.365  0.00  0.00    +0.000 C 
BRANCH  34  35
ATOM     35  C   UNL     1      47.515   3.284  16.760  0.00  0.00    +0.000 C 
ATOM     36  F   UNL     1      46.887   2.522  17.697  0.00  0.00    +0.000 F 
ENDBRANCH  34  35
ENDBRANCH  30  34
ENDBRANCH  21  24
ENDBRANCH  19  20
ENDBRANCH   4  19
TORSDOF 9
ENDMDL
MODEL 5
REMARK VINA RESULT:    -6.565      5.152      8.532
REMARK INTER + INTRA:         -11.127
REMARK INTER:                  -9.898
REMARK INTRA:                  -1.229
REMARK UNBOUND:                -1.107
REMARK  Name = 
REMARK  9 active torsions:
REMARK  status: ('A' for Active; 'I' for Inactive)
REMARK    1  A    between atoms: C_2  and  C_3
REMARK    2  A    between atoms: C_7  and  C_8
REMARK    3  A    between atoms: N_10  and  C_11
REMARK    4  A    between atoms: C_11  and  C_12
REMARK    5  A    between atoms: C_15  and  C_16
REMARK    6  A    between atoms: C_16  and  N_17
REMARK    7  A    between atoms: C_18  and  C_20
REMARK    8  A    between atoms: N_26  and  C_27
REMARK    9  A    between atoms: C_27  and  C_28
REMARK                            x       y       z     vdW  Elec       q    Type
REMARK                         _______ _______ _______ _____ _____    ______ ____
ROOT
ATOM      1  C   UNL     1      45.167   4.727  11.638  0.00  0.00    +0.000 A 
ATOM      2  C   UNL     1      45.694   4.540  12.924  0.00  0.00    +0.000 A 
ATOM      3  C   UNL     1      46.642   5.431  13.452  0.00  0.00    +0.000 A 
ATOM      4  C   UNL     1      47.067   6.549  12.719  0.00  0.00    +0.000 A 
ATOM      5  C   UNL     1      46.562   6.717  11.423  0.00  0.00    +0.000 A 
ATOM      6  C   UNL     1      45.611   5.829  10.896  0.00  0.00    +0.000 A 
ENDROOT
BRANCH   1   7
ATOM      7  C   UNL     1      44.187   3.736  11.057  0.00  0.00    +0.000 C 
BRANCH   7  10
ATOM      8  C   UNL     1      44.735   3.119   8.753  0.00  0.00    +0.000 C 
ATOM      9  O   UNL     1      44.199   4.135   8.323  0.00  0.00    +0.000 OA
ATOM     10  N   UNL     1      44.775   2.818  10.100  0.00  0.00    +0.000 N 
ATOM     11  H   UNL     1      45.093   1.913  10.424  0.00  0.00    +0.000 HD
BRANCH   8  16
ATOM     12  C   UNL     1      46.843   2.495   7.465  0.00  0.00    +0.000 C 
ATOM     13  C   UNL     1      47.502   1.181   7.050  0.00  0.00    +0.000 C 
ATOM     14  C   UNL     1      46.699   0.069   7.722  0.00  0.00    +0.000 C 
ATOM     15  C   UNL     1      45.585   0.748   8.508  0.00  0.00    +0.000 C 
ATOM     16  C   UNL     1      45.396   2.101   7.831  0.00  0.00    +0.000 C 
BRANCH  12  18
ATOM     17  N   UNL     1      46.840   4.338   5.383  0.00  0.00    +0.000 NA
ATOM     18  C   UNL     1      46.841   3.503   6.327  0.00  0.00    +0.000 C 
ENDBRANCH  12  18
ENDBRANCH   8  16
ENDBRANCH   7  10
ENDBRANCH   1   7
BRANCH   4  19
ATOM     19  C   UNL     1      48.023   7.566  13.309  0.00  0.00    +0.000 C 
BRANCH  19  20
ATOM     20  N   UNL     1      48.085   7.518  14.743  0.00  0.00    +0.000 N 
ATOM     21  C   UNL     1      48.789   8.442  15.484  0.00  0.00    +0.000 C 
ATOM     22  O   UNL     1      49.500   9.293  14.974  0.00  0.00    +0.000 OA
ATOM     23  H   UNL     1      47.341   6.996  15.196  0.00  0.00    +0.000 HD
BRANCH  21  24
ATOM     24  C   UNL     1      48.658   8.303  16.942  0.00  0.00    +0.000 A 
ATOM     25  C   UNL     1      48.468   9.417  17.750  0.00  0.00    +0.000 A 
ATOM     26  S   UNL     1      48.341   9.038  19.414  0.00  0.00    +0.000 S 
ATOM     27  C   UNL     1      48.509   7.370  19.105  0.00  0.00    +0.000 A 
ATOM     28  N   UNL     1      48.465   6.458  20.110  0.00  0.00    +0.000 NA
ATOM     29  C   UNL     1      48.594   5.228  19.729  0.00  0.00    +0.000 A 
ATOM     30  N   UNL     1      48.762   4.804  18.426  0.00  0.00    +0.000 N 
ATOM     31  C   UNL     1      48.860   5.716  17.387  0.00  0.00    +0.000 A 
ATOM     32  O   UNL     1      49.100   5.365  16.235  0.00  0.00    +0.000 OA
ATOM     33  C   UNL     1      48.689   7.112  17.764  0.00  0.00    +0.000 A 
BRANCH  30  34
ATOM     34  C   UNL     1      48.894   3.385  18.103  0.00  0.00    +0.000 C 
BRANCH  34  35
ATOM     35  C   UNL     1      47.555   2.689  17.886  0.00  0.00    +0.000 C 
ATOM     36  F   UNL     1      46.762   3.487  17.121  0.00  0.00    +0.000 F 
ENDBRANCH  34  35
ENDBRANCH  30  34
ENDBRANCH  21  24
ENDBRANCH  19  20
ENDBRANCH   4  19
TORSDOF 9
ENDMDL
MODEL 6
REMARK VINA RESULT:    -6.121      5.860      7.079
REMARK INTER + INTRA:         -10.448
REMARK INTER:                  -9.268
REMARK INTRA:                  -1.180
REMARK UNBOUND:                -1.107
REMARK  Name = 
REMARK  9 active torsions:
REMARK  status: ('A' for Active; 'I' for Inactive)
REMARK    1  A    between atoms: C_2  and  C_3
REMARK    2  A    between atoms: C_7  and  C_8
REMARK    3  A    between atoms: N_10  and  C_11
REMARK    4  A    between atoms: C_11  and  C_12
REMARK    5  A    between atoms: C_15  and  C_16
REMARK    6  A    between atoms: C_16  and  N_17
REMARK    7  A    between atoms: C_18  and  C_20
REMARK    8  A    between atoms: N_26  and  C_27
REMARK    9  A    between atoms: C_27  and  C_28
REMARK                            x       y       z     vdW  Elec       q    Type
REMARK                         _______ _______ _______ _____ _____    ______ ____
ROOT
ATOM      1  C   UNL     1      49.641   4.554  17.307  0.00  0.00    +0.000 A 
ATOM      2  C   UNL     1      50.663   5.492  17.106  0.00  0.00    +0.000 A 
ATOM      3  C   UNL     1      50.379   6.774  16.609  0.00  0.00    +0.000 A 
ATOM      4  C   UNL     1      49.061   7.162  16.328  0.00  0.00    +0.000 A 
ATOM      5  C   UNL     1      48.044   6.213  16.500  0.00  0.00    +0.000 A 
ATOM      6  C   UNL     1      48.327   4.932  17.001  0.00  0.00    +0.000 A 
ENDROOT
BRANCH   1   7
ATOM      7  C   UNL     1      49.960   3.160  17.793  0.00  0.00    +0.000 C 
BRANCH   7  10
ATOM      8  C   UNL     1      52.030   1.858  17.695  0.00  0.00    +0.000 C 
ATOM      9  O   UNL     1      51.495   1.005  16.993  0.00  0.00    +0.000 OA
ATOM     10  N   UNL     1      51.351   2.968  18.158  0.00  0.00    +0.000 N 
ATOM     11  H   UNL     1      51.764   3.582  18.848  0.00  0.00    +0.000 HD
BRANCH   8  16
ATOM     12  C   UNL     1      54.167   0.477  17.584  0.00  0.00    +0.000 C 
ATOM     13  C   UNL     1      55.661   0.798  17.604  0.00  0.00    +0.000 C 
ATOM     14  C   UNL     1      55.770   2.321  17.551  0.00  0.00    +0.000 C 
ATOM     15  C   UNL     1      54.346   2.860  17.509  0.00  0.00    +0.000 C 
ATOM     16  C   UNL     1      53.490   1.756  18.119  0.00  0.00    +0.000 C 
BRANCH  12  18
ATOM     17  N   UNL     1      53.568  -1.688  19.225  0.00  0.00    +0.000 NA
ATOM     18  C   UNL     1      53.839  -0.707  18.481  0.00  0.00    +0.000 C 
ENDBRANCH  12  18
ENDBRANCH   8  16
ENDBRANCH   7  10
ENDBRANCH   1   7
BRANCH   4  19
ATOM     19  C   UNL     1      48.729   8.569  15.874  0.00  0.00    +0.000 C 
BRANCH  19  20
ATOM     20  N   UNL     1      47.625   8.621  14.957  0.00  0.00    +0.000 N 
ATOM     21  C   UNL     1      47.785   8.457  13.598  0.00  0.00    +0.000 C 
ATOM     22  O   UNL     1      48.881   8.373  13.068  0.00  0.00    +0.000 OA
ATOM     23  H   UNL     1      46.710   8.451  15.363  0.00  0.00    +0.000 HD
BRANCH  21  24
ATOM     24  C   UNL     1      46.537   8.435  12.821  0.00  0.00    +0.000 A 
ATOM     25  C   UNL     1      45.980   9.612  12.334  0.00  0.00    +0.000 A 
ATOM     26  S   UNL     1      44.532   9.367  11.457  0.00  0.00    +0.000 S 
ATOM     27  C   UNL     1      44.615   7.680  11.678  0.00  0.00    +0.000 A 
ATOM     28  N   UNL     1      43.677   6.851  11.150  0.00  0.00    +0.000 NA
ATOM     29  C   UNL     1      43.874   5.594  11.386  0.00  0.00    +0.000 A 
ATOM     30  N   UNL     1      44.928   5.066  12.104  0.00  0.00    +0.000 N 
ATOM     31  C   UNL     1      45.872   5.892  12.696  0.00  0.00    +0.000 A 
ATOM     32  O   UNL     1      46.764   5.448  13.413  0.00  0.00    +0.000 OA
ATOM     33  C   UNL     1      45.709   7.313  12.430  0.00  0.00    +0.000 A 
BRANCH  30  34
ATOM     34  C   UNL     1      45.058   3.625  12.309  0.00  0.00    +0.000 C 
BRANCH  34  35
ATOM     35  C   UNL     1      43.718   2.918  12.482  0.00  0.00    +0.000 C 
ATOM     36  F   UNL     1      43.345   2.383  11.288  0.00  0.00    +0.000 F 
ENDBRANCH  34  35
ENDBRANCH  30  34
ENDBRANCH  21  24
ENDBRANCH  19  20
ENDBRANCH   4  19
TORSDOF 9
ENDMDL
MODEL 7
REMARK VINA RESULT:    -6.014      5.469      8.257
REMARK INTER + INTRA:         -10.285
REMARK INTER:                  -9.100
REMARK INTRA:                  -1.186
REMARK UNBOUND:                -1.107
REMARK  Name = 
REMARK  9 active torsions:
REMARK  status: ('A' for Active; 'I' for Inactive)
REMARK    1  A    between atoms: C_2  and  C_3
REMARK    2  A    between atoms: C_7  and  C_8
REMARK    3  A    between atoms: N_10  and  C_11
REMARK    4  A    between atoms: C_11  and  C_12
REMARK    5  A    between atoms: C_15  and  C_16
REMARK    6  A    between atoms: C_16  and  N_17
REMARK    7  A    between atoms: C_18  and  C_20
REMARK    8  A    between atoms: N_26  and  C_27
REMARK    9  A    between atoms: C_27  and  C_28
REMARK                            x       y       z     vdW  Elec       q    Type
REMARK                         _______ _______ _______ _____ _____    ______ ____
ROOT
ATOM      1  C   UNL     1      45.399   6.142  11.229  0.00  0.00    +0.000 A 
ATOM      2  C   UNL     1      46.584   5.846  11.917  0.00  0.00    +0.000 A 
ATOM      3  C   UNL     1      47.197   6.802  12.743  0.00  0.00    +0.000 A 
ATOM      4  C   UNL     1      46.627   8.070  12.924  0.00  0.00    +0.000 A 
ATOM      5  C   UNL     1      45.460   8.375  12.211  0.00  0.00    +0.000 A 
ATOM      6  C   UNL     1      44.843   7.418  11.389  0.00  0.00    +0.000 A 
ENDROOT
BRANCH   1   7
ATOM      7  C   UNL     1      44.773   5.127  10.302  0.00  0.00    +0.000 C 
BRANCH   7  10
ATOM      8  C   UNL     1      45.799   3.409   8.894  0.00  0.00    +0.000 C 
ATOM      9  O   UNL     1      45.280   2.515   9.557  0.00  0.00    +0.000 OA
ATOM     10  N   UNL     1      45.619   4.746   9.188  0.00  0.00    +0.000 N 
ATOM     11  H   UNL     1      46.165   5.460   8.722  0.00  0.00    +0.000 HD
BRANCH   8  16
ATOM     12  C   UNL     1      46.147   1.951   6.834  0.00  0.00    +0.000 C 
ATOM     13  C   UNL     1      46.791   2.158   5.464  0.00  0.00    +0.000 C 
ATOM     14  C   UNL     1      47.154   3.640   5.382  0.00  0.00    +0.000 C 
ATOM     15  C   UNL     1      46.724   4.268   6.702  0.00  0.00    +0.000 C 
ATOM     16  C   UNL     1      46.690   3.112   7.695  0.00  0.00    +0.000 C 
BRANCH  12  18
ATOM     17  N   UNL     1      46.873  -0.493   7.946  0.00  0.00    +0.000 NA
ATOM     18  C   UNL     1      46.545   0.615   7.442  0.00  0.00    +0.000 C 
ENDBRANCH  12  18
ENDBRANCH   8  16
ENDBRANCH   7  10
ENDBRANCH   1   7
BRANCH   4  19
ATOM     19  C   UNL     1      47.230   9.081  13.878  0.00  0.00    +0.000 C 
BRANCH  19  20
ATOM     20  N   UNL     1      47.472   8.546  15.188  0.00  0.00    +0.000 N 
ATOM     21  C   UNL     1      48.660   8.741  15.859  0.00  0.00    +0.000 C 
ATOM     22  O   UNL     1      49.627   9.279  15.344  0.00  0.00    +0.000 OA
ATOM     23  H   UNL     1      46.643   8.313  15.726  0.00  0.00    +0.000 HD
BRANCH  21  24
ATOM     24  C   UNL     1      48.697   8.212  17.230  0.00  0.00    +0.000 A 
ATOM     25  C   UNL     1      48.709   9.070  18.325  0.00  0.00    +0.000 A 
ATOM     26  S   UNL     1      48.751   8.254  19.828  0.00  0.00    +0.000 S 
ATOM     27  C   UNL     1      48.730   6.729  19.066  0.00  0.00    +0.000 A 
ATOM     28  N   UNL     1      48.727   5.579  19.788  0.00  0.00    +0.000 NA
ATOM     29  C   UNL     1      48.696   4.497  19.079  0.00  0.00    +0.000 A 
ATOM     30  N   UNL     1      48.664   4.440  17.701  0.00  0.00    +0.000 N 
ATOM     31  C   UNL     1      48.716   5.597  16.938  0.00  0.00    +0.000 A 
ATOM     32  O   UNL     1      48.782   5.564  15.713  0.00  0.00    +0.000 OA
ATOM     33  C   UNL     1      48.720   6.841  17.694  0.00  0.00    +0.000 A 
BRANCH  30  34
ATOM     34  C   UNL     1      48.627   3.160  16.996  0.00  0.00    +0.000 C 
BRANCH  34  35
ATOM     35  C   UNL     1      49.834   2.276  17.290  0.00  0.00    +0.000 C 
ATOM     36  F   UNL     1      50.970   2.967  16.998  0.00  0.00    +0.000 F 
ENDBRANCH  34  35
ENDBRANCH  30  34
ENDBRANCH  21  24
ENDBRANCH  19  20
ENDBRANCH   4  19
TORSDOF 9
ENDMDL
MODEL 8
REMARK VINA RESULT:    -5.675      5.091      8.931
REMARK INTER + INTRA:          -9.768
REMARK INTER:                  -8.849
REMARK INTRA:                  -0.919
REMARK UNBOUND:                -1.107
REMARK  Name = 
REMARK  9 active torsions:
REMARK  status: ('A' for Active; 'I' for Inactive)
REMARK    1  A    between atoms: C_2  and  C_3
REMARK    2  A    between atoms: C_7  and  C_8
REMARK    3  A    between atoms: N_10  and  C_11
REMARK    4  A    between atoms: C_11  and  C_12
REMARK    5  A    between atoms: C_15  and  C_16
REMARK    6  A    between atoms: C_16  and  N_17
REMARK    7  A    between atoms: C_18  and  C_20
REMARK    8  A    between atoms: N_26  and  C_27
REMARK    9  A    between atoms: C_27  and  C_28
REMARK                            x       y       z     vdW  Elec       q    Type
REMARK                         _______ _______ _______ _____ _____    ______ ____
ROOT
ATOM      1  C   UNL     1      44.764   4.660  11.531  0.00  0.00    +0.000 A 
ATOM      2  C   UNL     1      44.926   4.491  12.914  0.00  0.00    +0.000 A 
ATOM      3  C   UNL     1      45.852   5.265  13.632  0.00  0.00    +0.000 A 
ATOM      4  C   UNL     1      46.619   6.249  12.992  0.00  0.00    +0.000 A 
ATOM      5  C   UNL     1      46.478   6.395  11.605  0.00  0.00    +0.000 A 
ATOM      6  C   UNL     1      45.550   5.624  10.887  0.00  0.00    +0.000 A 
ENDROOT
BRANCH   1   7
ATOM      7  C   UNL     1      43.804   3.788  10.756  0.00  0.00    +0.000 C 
BRANCH   7  10
ATOM      8  C   UNL     1      44.714   3.207   8.561  0.00  0.00    +0.000 C 
ATOM      9  O   UNL     1      44.399   4.303   8.108  0.00  0.00    +0.000 OA
ATOM     10  N   UNL     1      44.453   2.844   9.867  0.00  0.00    +0.000 N 
ATOM     11  H   UNL     1      44.590   1.891  10.182  0.00  0.00    +0.000 HD
BRANCH   8  16
ATOM     12  C   UNL     1      46.863   2.553   7.359  0.00  0.00    +0.000 C 
ATOM     13  C   UNL     1      47.555   1.231   7.033  0.00  0.00    +0.000 C 
ATOM     14  C   UNL     1      46.755   0.142   7.745  0.00  0.00    +0.000 C 
ATOM     15  C   UNL     1      45.610   0.843   8.466  0.00  0.00    +0.000 C 
ATOM     16  C   UNL     1      45.415   2.153   7.712  0.00  0.00    +0.000 C 
BRANCH  12  18
ATOM     17  N   UNL     1      46.880   4.282   5.181  0.00  0.00    +0.000 NA
ATOM     18  C   UNL     1      46.872   3.498   6.168  0.00  0.00    +0.000 C 
ENDBRANCH  12  18
ENDBRANCH   8  16
ENDBRANCH   7  10
ENDBRANCH   1   7
BRANCH   4  19
ATOM     19  C   UNL     1      47.558   7.150  13.767  0.00  0.00    +0.000 C 
BRANCH  19  20
ATOM     20  N   UNL     1      48.336   6.446  14.747  0.00  0.00    +0.000 N 
ATOM     21  C   UNL     1      48.814   7.054  15.888  0.00  0.00    +0.000 C 
ATOM     22  O   UNL     1      48.712   8.254  16.088  0.00  0.00    +0.000 OA
ATOM     23  H   UNL     1      48.238   5.436  14.740  0.00  0.00    +0.000 HD
BRANCH  21  24
ATOM     24  C   UNL     1      49.501   6.160  16.831  0.00  0.00    +0.000 A 
ATOM     25  C   UNL     1      48.780   5.392  17.739  0.00  0.00    +0.000 A 
ATOM     26  S   UNL     1      49.768   4.422  18.743  0.00  0.00    +0.000 S 
ATOM     27  C   UNL     1      51.188   4.975  17.981  0.00  0.00    +0.000 A 
ATOM     28  N   UNL     1      52.412   4.516  18.349  0.00  0.00    +0.000 NA
ATOM     29  C   UNL     1      53.399   5.014  17.676  0.00  0.00    +0.000 A 
ATOM     30  N   UNL     1      53.292   5.935  16.655  0.00  0.00    +0.000 N 
ATOM     31  C   UNL     1      52.060   6.458  16.292  0.00  0.00    +0.000 A 
ATOM     32  O   UNL     1      51.953   7.345  15.451  0.00  0.00    +0.000 OA
ATOM     33  C   UNL     1      50.916   5.904  17.001  0.00  0.00    +0.000 A 
BRANCH  30  34
ATOM     34  C   UNL     1      54.475   6.432  15.956  0.00  0.00    +0.000 C 
BRANCH  34  35
ATOM     35  C   UNL     1      55.361   7.318  16.825  0.00  0.00    +0.000 C 
ATOM     36  F   UNL     1      54.625   8.368  17.280  0.00  0.00    +0.000 F 
ENDBRANCH  34  35
ENDBRANCH  30  34
ENDBRANCH  21  24
ENDBRANCH  19  20
ENDBRANCH   4  19
TORSDOF 9
ENDMDL
MODEL 9
REMARK VINA RESULT:    -5.645      5.718      7.049
REMARK INTER + INTRA:          -9.722
REMARK INTER:                  -8.782
REMARK INTRA:                  -0.940
REMARK UNBOUND:                -1.107
REMARK  Name = 
REMARK  9 active torsions:
REMARK  status: ('A' for Active; 'I' for Inactive)
REMARK    1  A    between atoms: C_2  and  C_3
REMARK    2  A    between atoms: C_7  and  C_8
REMARK    3  A    between atoms: N_10  and  C_11
REMARK    4  A    between atoms: C_11  and  C_12
REMARK    5  A    between atoms: C_15  and  C_16
REMARK    6  A    between atoms: C_16  and  N_17
REMARK    7  A    between atoms: C_18  and  C_20
REMARK    8  A    between atoms: N_26  and  C_27
REMARK    9  A    between atoms: C_27  and  C_28
REMARK                            x       y       z     vdW  Elec       q    Type
REMARK                         _______ _______ _______ _____ _____    ______ ____
ROOT
ATOM      1  C   UNL     1      48.930   5.891  18.229  0.00  0.00    +0.000 A 
ATOM      2  C   UNL     1      49.182   5.649  16.871  0.00  0.00    +0.000 A 
ATOM      3  C   UNL     1      48.999   6.658  15.912  0.00  0.00    +0.000 A 
ATOM      4  C   UNL     1      48.587   7.944  16.288  0.00  0.00    +0.000 A 
ATOM      5  C   UNL     1      48.306   8.176  17.642  0.00  0.00    +0.000 A 
ATOM      6  C   UNL     1      48.493   7.168  18.602  0.00  0.00    +0.000 A 
ENDROOT
BRANCH   1   7
ATOM      7  C   UNL     1      49.078   4.786  19.248  0.00  0.00    +0.000 C 
BRANCH   7  10
ATOM      8  C   UNL     1      51.499   4.557  19.524  0.00  0.00    +0.000 C 
ATOM      9  O   UNL     1      51.581   5.686  19.998  0.00  0.00    +0.000 OA
ATOM     10  N   UNL     1      50.299   4.015  19.107  0.00  0.00    +0.000 N 
ATOM     11  H   UNL     1      50.270   3.145  18.592  0.00  0.00    +0.000 HD
BRANCH   8  16
ATOM     12  C   UNL     1      52.888   3.175  17.897  0.00  0.00    +0.000 C 
ATOM     13  C   UNL     1      54.366   2.805  17.787  0.00  0.00    +0.000 C 
ATOM     14  C   UNL     1      55.088   3.601  18.872  0.00  0.00    +0.000 C 
ATOM     15  C   UNL     1      54.024   4.414  19.598  0.00  0.00    +0.000 C 
ATOM     16  C   UNL     1      52.720   3.663  19.351  0.00  0.00    +0.000 C 
BRANCH  12  18
ATOM     17  N   UNL     1      51.245   0.982  17.423  0.00  0.00    +0.000 NA
ATOM     18  C   UNL     1      51.990   1.975  17.638  0.00  0.00    +0.000 C 
ENDBRANCH  12  18
ENDBRANCH   8  16
ENDBRANCH   7  10
ENDBRANCH   1   7
BRANCH   4  19
ATOM     19  C   UNL     1      48.469   9.066  15.277  0.00  0.00    +0.000 C 
BRANCH  19  20
ATOM     20  N   UNL     1      47.296   8.965  14.456  0.00  0.00    +0.000 N 
ATOM     21  C   UNL     1      47.337   9.113  13.086  0.00  0.00    +0.000 C 
ATOM     22  O   UNL     1      48.346   9.454  12.490  0.00  0.00    +0.000 OA
ATOM     23  H   UNL     1      46.516   8.463  14.867  0.00  0.00    +0.000 HD
BRANCH  21  24
ATOM     24  C   UNL     1      46.062   8.875  12.394  0.00  0.00    +0.000 A 
ATOM     25  C   UNL     1      45.369   9.921  11.797  0.00  0.00    +0.000 A 
ATOM     26  S   UNL     1      43.912   9.431  11.047  0.00  0.00    +0.000 S 
ATOM     27  C   UNL     1      44.173   7.801  11.471  0.00  0.00    +0.000 A 
ATOM     28  N   UNL     1      43.299   6.827  11.108  0.00  0.00    +0.000 NA
ATOM     29  C   UNL     1      43.631   5.636  11.488  0.00  0.00    +0.000 A 
ATOM     30  N   UNL     1      44.765   5.306  12.201  0.00  0.00    +0.000 N 
ATOM     31  C   UNL     1      45.649   6.286  12.628  0.00  0.00    +0.000 A 
ATOM     32  O   UNL     1      46.614   6.024  13.340  0.00  0.00    +0.000 OA
ATOM     33  C   UNL     1      45.333   7.640  12.197  0.00  0.00    +0.000 A 
BRANCH  30  34
ATOM     34  C   UNL     1      45.048   3.923  12.578  0.00  0.00    +0.000 C 
BRANCH  34  35
ATOM     35  C   UNL     1      43.940   2.953  12.182  0.00  0.00    +0.000 C 
ATOM     36  F   UNL     1      44.144   2.549  10.899  0.00  0.00    +0.000 F 
ENDBRANCH  34  35
ENDBRANCH  30  34
ENDBRANCH  21  24
ENDBRANCH  19  20
ENDBRANCH   4  19
TORSDOF 9
ENDMDL
