MODEL 1
REMARK VINA RESULT:    -7.372      0.000      0.000
REMARK INTER + INTRA:         -10.452
REMARK INTER:                  -9.527
REMARK INTRA:                  -0.924
REMARK UNBOUND:                -0.924
REMARK  Name = 
REMARK  5 active torsions:
REMARK  status: ('A' for Active; 'I' for Inactive)
REMARK    1  A    between atoms: C_7  and  C_8
REMARK    2  A    between atoms: N_10  and  C_11
REMARK    3  A    between atoms: C_11  and  C_12
REMARK    4  A    between atoms: C_15  and  C_16
REMARK    5  A    between atoms: C_16  and  N_17
REMARK                            x       y       z     vdW  Elec       q    Type
REMARK                         _______ _______ _______ _____ _____    ______ ____
ROOT
ATOM      1  C   UNL     1      48.268   6.345  14.551  0.00  0.00    +0.000 C 
ATOM      2  O   UNL     1      49.357   6.791  14.193  0.00  0.00    +0.000 OA
ATOM      3  N   UNL     1      48.059   5.924  15.835  0.00  0.00    +0.000 N 
ATOM      4  H   UNL     1      47.129   5.664  16.153  0.00  0.00    +0.000 HD
ENDROOT
BRANCH   1  11
ATOM      5  N   UNL     1      43.763   2.459  11.409  0.00  0.00    +0.000 N 
ATOM      6  C   UNL     1      44.610   3.377  11.937  0.00  0.00    +0.000 A 
ATOM      7  N   UNL     1      44.499   4.632  11.629  0.00  0.00    +0.000 NA
ATOM      8  C   UNL     1      45.389   5.460  12.238  0.00  0.00    +0.000 A 
ATOM      9  S   UNL     1      45.351   7.137  11.950  0.00  0.00    +0.000 S 
ATOM     10  C   UNL     1      46.647   7.403  13.022  0.00  0.00    +0.000 A 
ATOM     11  C   UNL     1      47.142   6.244  13.608  0.00  0.00    +0.000 A 
ATOM     12  C   UNL     1      46.386   5.107  13.128  0.00  0.00    +0.000 A 
ATOM     13  C   UNL     1      46.490   3.692  13.429  0.00  0.00    +0.000 A 
ATOM     14  O   UNL     1      47.321   3.205  14.189  0.00  0.00    +0.000 OA
ATOM     15  N   UNL     1      45.565   2.900  12.791  0.00  0.00    +0.000 N 
ATOM     16  H   UNL     1      43.239   2.817  10.615  0.00  0.00    +0.000 HD
ATOM     17  H   UNL     1      44.098   1.515  11.281  0.00  0.00    +0.000 HD
ATOM     18  H   UNL     1      45.595   1.921  13.023  0.00  0.00    +0.000 HD
ENDBRANCH   1  11
BRANCH   3  19
ATOM     19  C   UNL     1      49.071   6.030  16.863  0.00  0.00    +0.000 C 
BRANCH  19  20
ATOM     20  C   UNL     1      49.802   4.727  17.089  0.00  0.00    +0.000 A 
ATOM     21  C   UNL     1      51.118   4.734  17.547  0.00  0.00    +0.000 A 
ATOM     22  C   UNL     1      51.772   3.521  17.737  0.00  0.00    +0.000 A 
ATOM     23  C   UNL     1      51.104   2.323  17.472  0.00  0.00    +0.000 A 
ATOM     24  C   UNL     1      49.786   2.413  17.040  0.00  0.00    +0.000 A 
ATOM     25  N   UNL     1      49.123   3.577  16.846  0.00  0.00    +0.000 NA
BRANCH  23  26
ATOM     26  C   UNL     1      51.771   0.988  17.670  0.00  0.00    +0.000 C 
BRANCH  26  27
ATOM     27  N   UNL     1      53.241   1.008  17.494  0.00  0.00    +0.000 NA
ATOM     28  C   UNL     1      53.922   0.772  18.780  0.00  0.00    +0.000 C 
ATOM     29  C   UNL     1      55.437   0.606  18.639  0.00  0.00    +0.000 C 
ATOM     30  C   UNL     1      55.775  -0.488  17.639  0.00  0.00    +0.000 C 
ATOM     31  C   UNL     1      55.117  -0.170  16.306  0.00  0.00    +0.000 C 
ATOM     32  C   UNL     1      53.608   0.013  16.470  0.00  0.00    +0.000 C 
ENDBRANCH  26  27
ENDBRANCH  23  26
ENDBRANCH  19  20
ENDBRANCH   3  19
TORSDOF 5
ENDMDL
MODEL 2
REMARK VINA RESULT:    -7.318      4.122      8.530
REMARK INTER + INTRA:         -10.381
REMARK INTER:                  -9.852
REMARK INTRA:                  -0.528
REMARK UNBOUND:                -0.924
REMARK  Name = 
REMARK  5 active torsions:
REMARK  status: ('A' for Active; 'I' for Inactive)
REMARK    1  A    between atoms: C_7  and  C_8
REMARK    2  A    between atoms: N_10  and  C_11
REMARK    3  A    between atoms: C_11  and  C_12
REMARK    4  A    between atoms: C_15  and  C_16
REMARK    5  A    between atoms: C_16  and  N_17
REMARK                            x       y       z     vdW  Elec       q    Type
REMARK                         _______ _______ _______ _____ _____    ______ ____
ROOT
ATOM      1  C   UNL     1      48.954   7.238  14.535  0.00  0.00    +0.000 C 
ATOM      2  O   UNL     1      49.722   7.239  13.574  0.00  0.00    +0.000 OA
ATOM      3  N   UNL     1      47.656   7.650  14.410  0.00  0.00    +0.000 N 
ATOM      4  H   UNL     1      46.999   7.541  15.177  0.00  0.00    +0.000 HD
ENDROOT
BRANCH   1  11
ATOM      5  N   UNL     1      48.297   2.930  19.661  0.00  0.00    +0.000 N 
ATOM      6  C   UNL     1      48.547   3.887  18.734  0.00  0.00    +0.000 A 
ATOM      7  N   UNL     1      49.486   4.762  18.924  0.00  0.00    +0.000 NA
ATOM      8  C   UNL     1      49.658   5.657  17.916  0.00  0.00    +0.000 A 
ATOM      9  S   UNL     1      50.867   6.850  18.012  0.00  0.00    +0.000 S 
ATOM     10  C   UNL     1      50.459   7.464  16.477  0.00  0.00    +0.000 A 
ATOM     11  C   UNL     1      49.404   6.796  15.865  0.00  0.00    +0.000 A 
ATOM     12  C   UNL     1      48.944   5.735  16.735  0.00  0.00    +0.000 A 
ATOM     13  C   UNL     1      47.889   4.752  16.572  0.00  0.00    +0.000 A 
ATOM     14  O   UNL     1      47.153   4.683  15.592  0.00  0.00    +0.000 OA
ATOM     15  N   UNL     1      47.759   3.869  17.617  0.00  0.00    +0.000 N 
ATOM     16  H   UNL     1      48.734   3.126  20.558  0.00  0.00    +0.000 HD
ATOM     17  H   UNL     1      47.357   2.570  19.739  0.00  0.00    +0.000 HD
ATOM     18  H   UNL     1      47.061   3.154  17.500  0.00  0.00    +0.000 HD
ENDBRANCH   1  11
BRANCH   3  19
ATOM     19  C   UNL     1      47.086   8.050  13.142  0.00  0.00    +0.000 C 
BRANCH  19  20
ATOM     20  C   UNL     1      46.159   7.003  12.570  0.00  0.00    +0.000 A 
ATOM     21  C   UNL     1      46.491   5.653  12.654  0.00  0.00    +0.000 A 
ATOM     22  C   UNL     1      45.624   4.710  12.110  0.00  0.00    +0.000 A 
ATOM     23  C   UNL     1      44.441   5.127  11.497  0.00  0.00    +0.000 A 
ATOM     24  C   UNL     1      44.181   6.493  11.480  0.00  0.00    +0.000 A 
ATOM     25  N   UNL     1      45.004   7.434  12.000  0.00  0.00    +0.000 NA
BRANCH  23  26
ATOM     26  C   UNL     1      43.471   4.142  10.902  0.00  0.00    +0.000 C 
BRANCH  26  27
ATOM     27  N   UNL     1      43.927   3.527   9.635  0.00  0.00    +0.000 NA
ATOM     28  C   UNL     1      44.899   4.401   8.952  0.00  0.00    +0.000 C 
ATOM     29  C   UNL     1      45.541   3.748   7.726  0.00  0.00    +0.000 C 
ATOM     30  C   UNL     1      46.176   2.414   8.089  0.00  0.00    +0.000 C 
ATOM     31  C   UNL     1      45.125   1.515   8.721  0.00  0.00    +0.000 C 
ATOM     32  C   UNL     1      44.480   2.192   9.929  0.00  0.00    +0.000 C 
ENDBRANCH  26  27
ENDBRANCH  23  26
ENDBRANCH  19  20
ENDBRANCH   3  19
TORSDOF 5
ENDMDL
MODEL 3
REMARK VINA RESULT:    -7.312      1.815      2.572
REMARK INTER + INTRA:         -10.374
REMARK INTER:                  -9.788
REMARK INTRA:                  -0.585
REMARK UNBOUND:                -0.924
REMARK  Name = 
REMARK  5 active torsions:
REMARK  status: ('A' for Active; 'I' for Inactive)
REMARK    1  A    between atoms: C_7  and  C_8
REMARK    2  A    between atoms: N_10  and  C_11
REMARK    3  A    between atoms: C_11  and  C_12
REMARK    4  A    between atoms: C_15  and  C_16
REMARK    5  A    between atoms: C_16  and  N_17
REMARK                            x       y       z     vdW  Elec       q    Type
REMARK                         _______ _______ _______ _____ _____    ______ ____
ROOT
ATOM      1  C   UNL     1      47.170   3.969  14.837  0.00  0.00    +0.000 C 
ATOM      2  O   UNL     1      47.475   2.899  14.313  0.00  0.00    +0.000 OA
ATOM      3  N   UNL     1      47.122   4.107  16.197  0.00  0.00    +0.000 N 
ATOM      4  H   UNL     1      46.980   5.019  16.623  0.00  0.00    +0.000 HD
ENDROOT
BRANCH   1  11
ATOM      5  N   UNL     1      42.708   7.185  10.962  0.00  0.00    +0.000 N 
ATOM      6  C   UNL     1      43.723   6.668  11.696  0.00  0.00    +0.000 A 
ATOM      7  N   UNL     1      44.830   7.326  11.848  0.00  0.00    +0.000 NA
ATOM      8  C   UNL     1      45.767   6.718  12.624  0.00  0.00    +0.000 A 
ATOM      9  S   UNL     1      47.260   7.472  12.933  0.00  0.00    +0.000 S 
ATOM     10  C   UNL     1      47.771   6.176  13.912  0.00  0.00    +0.000 A 
ATOM     11  C   UNL     1      46.841   5.148  14.020  0.00  0.00    +0.000 A 
ATOM     12  C   UNL     1      45.665   5.488  13.247  0.00  0.00    +0.000 A 
ATOM     13  C   UNL     1      44.420   4.775  13.034  0.00  0.00    +0.000 A 
ATOM     14  O   UNL     1      44.166   3.670  13.504  0.00  0.00    +0.000 OA
ATOM     15  N   UNL     1      43.507   5.435  12.247  0.00  0.00    +0.000 N 
ATOM     16  H   UNL     1      42.997   7.973  10.388  0.00  0.00    +0.000 HD
ATOM     17  H   UNL     1      42.084   6.546  10.489  0.00  0.00    +0.000 HD
ATOM     18  H   UNL     1      42.621   4.973  12.125  0.00  0.00    +0.000 HD
ENDBRANCH   1  11
BRANCH   3  19
ATOM     19  C   UNL     1      47.481   3.037  17.101  0.00  0.00    +0.000 C 
BRANCH  19  20
ATOM     20  C   UNL     1      48.972   2.953  17.331  0.00  0.00    +0.000 A 
ATOM     21  C   UNL     1      49.617   3.922  18.096  0.00  0.00    +0.000 A 
ATOM     22  C   UNL     1      50.993   3.827  18.284  0.00  0.00    +0.000 A 
ATOM     23  C   UNL     1      51.700   2.767  17.712  0.00  0.00    +0.000 A 
ATOM     24  C   UNL     1      50.969   1.835  16.984  0.00  0.00    +0.000 A 
ATOM     25  N   UNL     1      49.632   1.900  16.783  0.00  0.00    +0.000 NA
BRANCH  23  26
ATOM     26  C   UNL     1      53.187   2.621  17.895  0.00  0.00    +0.000 C 
BRANCH  26  27
ATOM     27  N   UNL     1      53.585   1.513  18.793  0.00  0.00    +0.000 NA
ATOM     28  C   UNL     1      53.883   0.296  18.016  0.00  0.00    +0.000 C 
ATOM     29  C   UNL     1      54.468  -0.835  18.866  0.00  0.00    +0.000 C 
ATOM     30  C   UNL     1      55.698  -0.364  19.626  0.00  0.00    +0.000 C 
ATOM     31  C   UNL     1      55.331   0.845  20.472  0.00  0.00    +0.000 C 
ATOM     32  C   UNL     1      54.730   1.954  19.610  0.00  0.00    +0.000 C 
ENDBRANCH  26  27
ENDBRANCH  23  26
ENDBRANCH  19  20
ENDBRANCH   3  19
TORSDOF 5
ENDMDL
MODEL 4
REMARK VINA RESULT:    -7.225      2.872      8.655
REMARK INTER + INTRA:         -10.261
REMARK INTER:                  -9.503
REMARK INTRA:                  -0.759
REMARK UNBOUND:                -0.924
REMARK  Name = 
REMARK  5 active torsions:
REMARK  status: ('A' for Active; 'I' for Inactive)
REMARK    1  A    between atoms: C_7  and  C_8
REMARK    2  A    between atoms: N_10  and  C_11
REMARK    3  A    between atoms: C_11  and  C_12
REMARK    4  A    between atoms: C_15  and  C_16
REMARK    5  A    between atoms: C_16  and  N_17
REMARK                            x       y       z     vdW  Elec       q    Type
REMARK                         _______ _______ _______ _____ _____    ______ ____
ROOT
ATOM      1  C   UNL     1      49.818   6.531  16.648  0.00  0.00    +0.000 C 
ATOM      2  O   UNL     1      48.895   6.895  17.374  0.00  0.00    +0.000 OA
ATOM      3  N   UNL     1      49.901   6.935  15.344  0.00  0.00    +0.000 N 
ATOM      4  H   UNL     1      50.722   6.723  14.784  0.00  0.00    +0.000 HD
ENDROOT
BRANCH   1  11
ATOM      5  N   UNL     1      51.821   0.271  18.091  0.00  0.00    +0.000 N 
ATOM      6  C   UNL     1      51.572   1.587  17.878  0.00  0.00    +0.000 A 
ATOM      7  N   UNL     1      52.480   2.479  18.125  0.00  0.00    +0.000 NA
ATOM      8  C   UNL     1      52.124   3.762  17.850  0.00  0.00    +0.000 A 
ATOM      9  S   UNL     1      53.219   5.040  18.102  0.00  0.00    +0.000 S 
ATOM     10  C   UNL     1      52.095   6.185  17.533  0.00  0.00    +0.000 A 
ATOM     11  C   UNL     1      50.874   5.638  17.153  0.00  0.00    +0.000 A 
ATOM     12  C   UNL     1      50.912   4.205  17.353  0.00  0.00    +0.000 A 
ATOM     13  C   UNL     1      49.918   3.178  17.111  0.00  0.00    +0.000 A 
ATOM     14  O   UNL     1      48.789   3.395  16.680  0.00  0.00    +0.000 OA
ATOM     15  N   UNL     1      50.329   1.899  17.401  0.00  0.00    +0.000 N 
ATOM     16  H   UNL     1      52.649   0.113  18.658  0.00  0.00    +0.000 HD
ATOM     17  H   UNL     1      51.046  -0.332  18.329  0.00  0.00    +0.000 HD
ATOM     18  H   UNL     1      49.666   1.170  17.197  0.00  0.00    +0.000 HD
ENDBRANCH   1  11
BRANCH   3  19
ATOM     19  C   UNL     1      48.955   7.857  14.755  0.00  0.00    +0.000 C 
BRANCH  19  20
ATOM     20  C   UNL     1      47.833   7.149  14.033  0.00  0.00    +0.000 A 
ATOM     21  C   UNL     1      46.828   7.886  13.410  0.00  0.00    +0.000 A 
ATOM     22  C   UNL     1      45.799   7.210  12.760  0.00  0.00    +0.000 A 
ATOM     23  C   UNL     1      45.792   5.813  12.739  0.00  0.00    +0.000 A 
ATOM     24  C   UNL     1      46.847   5.162  13.368  0.00  0.00    +0.000 A 
ATOM     25  N   UNL     1      47.861   5.792  14.007  0.00  0.00    +0.000 NA
BRANCH  23  26
ATOM     26  C   UNL     1      44.704   5.040  12.043  0.00  0.00    +0.000 C 
BRANCH  26  27
ATOM     27  N   UNL     1      45.171   4.226  10.898  0.00  0.00    +0.000 NA
ATOM     28  C   UNL     1      44.187   3.179  10.568  0.00  0.00    +0.000 C 
ATOM     29  C   UNL     1      44.526   2.414   9.286  0.00  0.00    +0.000 C 
ATOM     30  C   UNL     1      44.713   3.368   8.117  0.00  0.00    +0.000 C 
ATOM     31  C   UNL     1      45.787   4.385   8.467  0.00  0.00    +0.000 C 
ATOM     32  C   UNL     1      45.442   5.123   9.760  0.00  0.00    +0.000 C 
ENDBRANCH  26  27
ENDBRANCH  23  26
ENDBRANCH  19  20
ENDBRANCH   3  19
TORSDOF 5
ENDMDL
MODEL 5
REMARK VINA RESULT:    -6.840      5.904      8.776
REMARK INTER + INTRA:          -9.763
REMARK INTER:                  -9.514
REMARK INTRA:                  -0.249
REMARK UNBOUND:                -0.924
REMARK  Name = 
REMARK  5 active torsions:
REMARK  status: ('A' for Active; 'I' for Inactive)
REMARK    1  A    between atoms: C_7  and  C_8
REMARK    2  A    between atoms: N_10  and  C_11
REMARK    3  A    between atoms: C_11  and  C_12
REMARK    4  A    between atoms: C_15  and  C_16
REMARK    5  A    between atoms: C_16  and  N_17
REMARK                            x       y       z     vdW  Elec       q    Type
REMARK                         _______ _______ _______ _____ _____    ______ ____
ROOT
ATOM      1  C   UNL     1      46.141   8.542  12.682  0.00  0.00    +0.000 C 
ATOM      2  O   UNL     1      45.136   9.220  12.891  0.00  0.00    +0.000 OA
ATOM      3  N   UNL     1      46.098   7.176  12.719  0.00  0.00    +0.000 N 
ATOM      4  H   UNL     1      46.902   6.622  12.437  0.00  0.00    +0.000 HD
ENDROOT
BRANCH   1  11
ATOM      5  N   UNL     1      52.855   8.278  13.025  0.00  0.00    +0.000 N 
ATOM      6  C   UNL     1      51.524   8.499  12.892  0.00  0.00    +0.000 A 
ATOM      7  N   UNL     1      51.089   9.569  12.303  0.00  0.00    +0.000 NA
ATOM      8  C   UNL     1      49.736   9.671  12.209  0.00  0.00    +0.000 A 
ATOM      9  S   UNL     1      49.018  11.009  11.441  0.00  0.00    +0.000 S 
ATOM     10  C   UNL     1      47.454  10.390  11.709  0.00  0.00    +0.000 A 
ATOM     11  C   UNL     1      47.436   9.176  12.387  0.00  0.00    +0.000 A 
ATOM     12  C   UNL     1      48.795   8.772  12.676  0.00  0.00    +0.000 A 
ATOM     13  C   UNL     1      49.324   7.600  13.347  0.00  0.00    +0.000 A 
ATOM     14  O   UNL     1      48.633   6.707  13.829  0.00  0.00    +0.000 OA
ATOM     15  N   UNL     1      50.696   7.544  13.412  0.00  0.00    +0.000 N 
ATOM     16  H   UNL     1      53.413   9.107  12.844  0.00  0.00    +0.000 HD
ATOM     17  H   UNL     1      53.176   7.739  13.817  0.00  0.00    +0.000 HD
ATOM     18  H   UNL     1      51.079   6.716  13.835  0.00  0.00    +0.000 HD
ENDBRANCH   1  11
BRANCH   3  19
ATOM     19  C   UNL     1      44.872   6.442  12.941  0.00  0.00    +0.000 C 
BRANCH  19  20
ATOM     20  C   UNL     1      44.728   5.263  12.007  0.00  0.00    +0.000 A 
ATOM     21  C   UNL     1      45.379   4.064  12.288  0.00  0.00    +0.000 A 
ATOM     22  C   UNL     1      45.238   2.996  11.407  0.00  0.00    +0.000 A 
ATOM     23  C   UNL     1      44.450   3.141  10.263  0.00  0.00    +0.000 A 
ATOM     24  C   UNL     1      43.820   4.366  10.075  0.00  0.00    +0.000 A 
ATOM     25  N   UNL     1      43.937   5.422  10.914  0.00  0.00    +0.000 NA
BRANCH  23  26
ATOM     26  C   UNL     1      44.265   2.011   9.285  0.00  0.00    +0.000 C 
BRANCH  26  27
ATOM     27  N   UNL     1      45.110   2.109   8.074  0.00  0.00    +0.000 NA
ATOM     28  C   UNL     1      45.592   3.489   7.885  0.00  0.00    +0.000 C 
ATOM     29  C   UNL     1      46.612   3.623   6.752  0.00  0.00    +0.000 C 
ATOM     30  C   UNL     1      47.777   2.667   6.952  0.00  0.00    +0.000 C 
ATOM     31  C   UNL     1      47.246   1.247   7.067  0.00  0.00    +0.000 C 
ATOM     32  C   UNL     1      46.214   1.138   8.188  0.00  0.00    +0.000 C 
ENDBRANCH  26  27
ENDBRANCH  23  26
ENDBRANCH  19  20
ENDBRANCH   3  19
TORSDOF 5
ENDMDL
MODEL 6
REMARK VINA RESULT:    -6.237      2.057      3.211
REMARK INTER + INTRA:          -8.984
REMARK INTER:                  -8.588
REMARK INTRA:                  -0.397
REMARK UNBOUND:                -0.924
REMARK  Name = 
REMARK  5 active torsions:
REMARK  status: ('A' for Active; 'I' for Inactive)
REMARK    1  A    between atoms: C_7  and  C_8
REMARK    2  A    between atoms: N_10  and  C_11
REMARK    3  A    between atoms: C_11  and  C_12
REMARK    4  A    between atoms: C_15  and  C_16
REMARK    5  A    between atoms: C_16  and  N_17
REMARK                            x       y       z     vdW  Elec       q    Type
REMARK                         _______ _______ _______ _____ _____    ______ ____
ROOT
ATOM      1  C   UNL     1      46.767   7.438  12.891  0.00  0.00    +0.000 C 
ATOM      2  O   UNL     1      46.698   8.532  13.448  0.00  0.00    +0.000 OA
ATOM      3  N   UNL     1      47.958   6.778  12.762  0.00  0.00    +0.000 N 
ATOM      4  H   UNL     1      47.991   5.828  12.403  0.00  0.00    +0.000 HD
ENDROOT
BRANCH   1  11
ATOM      5  N   UNL     1      43.243   1.793  11.897  0.00  0.00    +0.000 N 
ATOM      6  C   UNL     1      43.830   3.011  11.991  0.00  0.00    +0.000 A 
ATOM      7  N   UNL     1      43.251   4.063  11.502  0.00  0.00    +0.000 NA
ATOM      8  C   UNL     1      43.924   5.232  11.676  0.00  0.00    +0.000 A 
ATOM      9  S   UNL     1      43.277   6.699  11.109  0.00  0.00    +0.000 S 
ATOM     10  C   UNL     1      44.606   7.578  11.708  0.00  0.00    +0.000 A 
ATOM     11  C   UNL     1      45.566   6.792  12.335  0.00  0.00    +0.000 A 
ATOM     12  C   UNL     1      45.144   5.408  12.302  0.00  0.00    +0.000 A 
ATOM     13  C   UNL     1      45.769   4.204  12.815  0.00  0.00    +0.000 A 
ATOM     14  O   UNL     1      46.854   4.176  13.388  0.00  0.00    +0.000 OA
ATOM     15  N   UNL     1      45.045   3.052  12.616  0.00  0.00    +0.000 N 
ATOM     16  H   UNL     1      42.476   1.775  11.230  0.00  0.00    +0.000 HD
ATOM     17  H   UNL     1      43.835   0.976  11.855  0.00  0.00    +0.000 HD
ATOM     18  H   UNL     1      45.444   2.214  13.005  0.00  0.00    +0.000 HD
ENDBRANCH   1  11
BRANCH   3  19
ATOM     19  C   UNL     1      49.192   7.286  13.319  0.00  0.00    +0.000 C 
BRANCH  19  20
ATOM     20  C   UNL     1      49.419   6.821  14.739  0.00  0.00    +0.000 A 
ATOM     21  C   UNL     1      50.569   7.203  15.425  0.00  0.00    +0.000 A 
ATOM     22  C   UNL     1      50.759   6.753  16.728  0.00  0.00    +0.000 A 
ATOM     23  C   UNL     1      49.798   5.933  17.325  0.00  0.00    +0.000 A 
ATOM     24  C   UNL     1      48.672   5.621  16.573  0.00  0.00    +0.000 A 
ATOM     25  N   UNL     1      48.459   6.044  15.304  0.00  0.00    +0.000 NA
BRANCH  23  26
ATOM     26  C   UNL     1      49.959   5.428  18.734  0.00  0.00    +0.000 C 
BRANCH  26  27
ATOM     27  N   UNL     1      50.759   4.188  18.850  0.00  0.00    +0.000 NA
ATOM     28  C   UNL     1      50.690   3.405  17.603  0.00  0.00    +0.000 C 
ATOM     29  C   UNL     1      51.633   2.201  17.592  0.00  0.00    +0.000 C 
ATOM     30  C   UNL     1      53.064   2.627  17.883  0.00  0.00    +0.000 C 
ATOM     31  C   UNL     1      53.106   3.364  19.212  0.00  0.00    +0.000 C 
ATOM     32  C   UNL     1      52.142   4.550  19.211  0.00  0.00    +0.000 C 
ENDBRANCH  26  27
ENDBRANCH  23  26
ENDBRANCH  19  20
ENDBRANCH   3  19
TORSDOF 5
ENDMDL
MODEL 7
REMARK VINA RESULT:    -6.198      4.788      7.071
REMARK INTER + INTRA:          -8.934
REMARK INTER:                  -8.176
REMARK INTRA:                  -0.757
REMARK UNBOUND:                -0.924
REMARK  Name = 
REMARK  5 active torsions:
REMARK  status: ('A' for Active; 'I' for Inactive)
REMARK    1  A    between atoms: C_7  and  C_8
REMARK    2  A    between atoms: N_10  and  C_11
REMARK    3  A    between atoms: C_11  and  C_12
REMARK    4  A    between atoms: C_15  and  C_16
REMARK    5  A    between atoms: C_16  and  N_17
REMARK                            x       y       z     vdW  Elec       q    Type
REMARK                         _______ _______ _______ _____ _____    ______ ____
ROOT
ATOM      1  C   UNL     1      44.260   4.590  10.431  0.00  0.00    +0.000 C 
ATOM      2  O   UNL     1      43.094   4.648  10.816  0.00  0.00    +0.000 OA
ATOM      3  N   UNL     1      45.163   5.569  10.745  0.00  0.00    +0.000 N 
ATOM      4  H   UNL     1      46.148   5.460  10.521  0.00  0.00    +0.000 HD
ENDROOT
BRANCH   1  11
ATOM      5  N   UNL     1      48.416   2.340   5.641  0.00  0.00    +0.000 N 
ATOM      6  C   UNL     1      47.502   2.630   6.600  0.00  0.00    +0.000 A 
ATOM      7  N   UNL     1      46.734   1.702   7.082  0.00  0.00    +0.000 NA
ATOM      8  C   UNL     1      45.874   2.106   8.054  0.00  0.00    +0.000 A 
ATOM      9  S   UNL     1      44.821   0.996   8.797  0.00  0.00    +0.000 S 
ATOM     10  C   UNL     1      44.182   2.202   9.815  0.00  0.00    +0.000 A 
ATOM     11  C   UNL     1      44.735   3.462   9.613  0.00  0.00    +0.000 A 
ATOM     12  C   UNL     1      45.731   3.383   8.565  0.00  0.00    +0.000 A 
ATOM     13  C   UNL     1      46.592   4.394   7.984  0.00  0.00    +0.000 A 
ATOM     14  O   UNL     1      46.590   5.577   8.312  0.00  0.00    +0.000 OA
ATOM     15  N   UNL     1      47.445   3.933   7.010  0.00  0.00    +0.000 N 
ATOM     16  H   UNL     1      48.260   1.434   5.208  0.00  0.00    +0.000 HD
ATOM     17  H   UNL     1      48.669   3.066   4.985  0.00  0.00    +0.000 HD
ATOM     18  H   UNL     1      48.080   4.613   6.627  0.00  0.00    +0.000 HD
ENDBRANCH   1  11
BRANCH   3  19
ATOM     19  C   UNL     1      44.827   6.693  11.590  0.00  0.00    +0.000 C 
BRANCH  19  20
ATOM     20  C   UNL     1      45.943   7.051  12.544  0.00  0.00    +0.000 A 
ATOM     21  C   UNL     1      46.191   8.385  12.862  0.00  0.00    +0.000 A 
ATOM     22  C   UNL     1      47.231   8.688  13.735  0.00  0.00    +0.000 A 
ATOM     23  C   UNL     1      48.003   7.659  14.279  0.00  0.00    +0.000 A 
ATOM     24  C   UNL     1      47.669   6.357  13.922  0.00  0.00    +0.000 A 
ATOM     25  N   UNL     1      46.664   6.031  13.076  0.00  0.00    +0.000 NA
BRANCH  23  26
ATOM     26  C   UNL     1      49.133   7.940  15.232  0.00  0.00    +0.000 C 
BRANCH  26  27
ATOM     27  N   UNL     1      48.969   7.328  16.570  0.00  0.00    +0.000 NA
ATOM     28  C   UNL     1      50.251   6.785  17.056  0.00  0.00    +0.000 C 
ATOM     29  C   UNL     1      50.189   6.295  18.504  0.00  0.00    +0.000 C 
ATOM     30  C   UNL     1      49.682   7.390  19.429  0.00  0.00    +0.000 C 
ATOM     31  C   UNL     1      48.325   7.871  18.938  0.00  0.00    +0.000 C 
ATOM     32  C   UNL     1      48.402   8.336  17.485  0.00  0.00    +0.000 C 
ENDBRANCH  26  27
ENDBRANCH  23  26
ENDBRANCH  19  20
ENDBRANCH   3  19
TORSDOF 5
ENDMDL
MODEL 8
REMARK VINA RESULT:    -5.930      6.755      7.670
REMARK INTER + INTRA:          -8.588
REMARK INTER:                  -7.724
REMARK INTRA:                  -0.864
REMARK UNBOUND:                -0.924
REMARK  Name = 
REMARK  5 active torsions:
REMARK  status: ('A' for Active; 'I' for Inactive)
REMARK    1  A    between atoms: C_7  and  C_8
REMARK    2  A    between atoms: N_10  and  C_11
REMARK    3  A    between atoms: C_11  and  C_12
REMARK    4  A    between atoms: C_15  and  C_16
REMARK    5  A    between atoms: C_16  and  N_17
REMARK                            x       y       z     vdW  Elec       q    Type
REMARK                         _______ _______ _______ _____ _____    ______ ____
ROOT
ATOM      1  C   UNL     1      44.232   6.442  11.446  0.00  0.00    +0.000 C 
ATOM      2  O   UNL     1      43.263   7.183  11.286  0.00  0.00    +0.000 OA
ATOM      3  N   UNL     1      45.425   6.922  11.913  0.00  0.00    +0.000 N 
ATOM      4  H   UNL     1      46.184   6.289  12.150  0.00  0.00    +0.000 HD
ENDROOT
BRANCH   1  11
ATOM      5  N   UNL     1      46.253   1.274   7.641  0.00  0.00    +0.000 N 
ATOM      6  C   UNL     1      45.727   2.200   8.480  0.00  0.00    +0.000 A 
ATOM      7  N   UNL     1      44.872   1.854   9.393  0.00  0.00    +0.000 NA
ATOM      8  C   UNL     1      44.432   2.864  10.189  0.00  0.00    +0.000 A 
ATOM      9  S   UNL     1      43.325   2.559  11.445  0.00  0.00    +0.000 S 
ATOM     10  C   UNL     1      43.329   4.195  11.917  0.00  0.00    +0.000 A 
ATOM     11  C   UNL     1      44.149   5.005  11.139  0.00  0.00    +0.000 A 
ATOM     12  C   UNL     1      44.788   4.198  10.121  0.00  0.00    +0.000 A 
ATOM     13  C   UNL     1      45.729   4.546   9.074  0.00  0.00    +0.000 A 
ATOM     14  O   UNL     1      46.144   5.682   8.866  0.00  0.00    +0.000 OA
ATOM     15  N   UNL     1      46.145   3.489   8.301  0.00  0.00    +0.000 N 
ATOM     16  H   UNL     1      45.744   0.394   7.655  0.00  0.00    +0.000 HD
ATOM     17  H   UNL     1      46.530   1.568   6.715  0.00  0.00    +0.000 HD
ATOM     18  H   UNL     1      46.832   3.706   7.598  0.00  0.00    +0.000 HD
ENDBRANCH   1  11
BRANCH   3  19
ATOM     19  C   UNL     1      45.609   8.302  12.304  0.00  0.00    +0.000 C 
BRANCH  19  20
ATOM     20  C   UNL     1      47.034   8.769  12.121  0.00  0.00    +0.000 A 
ATOM     21  C   UNL     1      48.057   7.841  11.945  0.00  0.00    +0.000 A 
ATOM     22  C   UNL     1      49.363   8.297  11.789  0.00  0.00    +0.000 A 
ATOM     23  C   UNL     1      49.625   9.669  11.807  0.00  0.00    +0.000 A 
ATOM     24  C   UNL     1      48.539  10.522  11.966  0.00  0.00    +0.000 A 
ATOM     25  N   UNL     1      47.259  10.108  12.120  0.00  0.00    +0.000 NA
BRANCH  23  26
ATOM     26  C   UNL     1      51.020  10.207  11.636  0.00  0.00    +0.000 C 
BRANCH  26  27
ATOM     27  N   UNL     1      52.002   9.212  11.150  0.00  0.00    +0.000 NA
ATOM     28  C   UNL     1      52.400   9.508   9.761  0.00  0.00    +0.000 C 
ATOM     29  C   UNL     1      53.541   8.622   9.258  0.00  0.00    +0.000 C 
ATOM     30  C   UNL     1      54.740   8.696  10.190  0.00  0.00    +0.000 C 
ATOM     31  C   UNL     1      54.306   8.311  11.595  0.00  0.00    +0.000 C 
ATOM     32  C   UNL     1      53.152   9.192  12.072  0.00  0.00    +0.000 C 
ENDBRANCH  26  27
ENDBRANCH  23  26
ENDBRANCH  19  20
ENDBRANCH   3  19
TORSDOF 5
ENDMDL
MODEL 9
REMARK VINA RESULT:    -5.842      3.536      4.791
REMARK INTER + INTRA:          -8.474
REMARK INTER:                  -8.109
REMARK INTRA:                  -0.365
REMARK UNBOUND:                -0.924
REMARK  Name = 
REMARK  5 active torsions:
REMARK  status: ('A' for Active; 'I' for Inactive)
REMARK    1  A    between atoms: C_7  and  C_8
REMARK    2  A    between atoms: N_10  and  C_11
REMARK    3  A    between atoms: C_11  and  C_12
REMARK    4  A    between atoms: C_15  and  C_16
REMARK    5  A    between atoms: C_16  and  N_17
REMARK                            x       y       z     vdW  Elec       q    Type
REMARK                         _______ _______ _______ _____ _____    ______ ____
ROOT
ATOM      1  C   UNL     1      47.769   7.883  13.575  0.00  0.00    +0.000 C 
ATOM      2  O   UNL     1      47.691   8.926  14.221  0.00  0.00    +0.000 OA
ATOM      3  N   UNL     1      48.959   7.224  13.427  0.00  0.00    +0.000 N 
ATOM      4  H   UNL     1      48.996   6.307  12.990  0.00  0.00    +0.000 HD
ENDROOT
BRANCH   1  11
ATOM      5  N   UNL     1      43.953   2.457  12.446  0.00  0.00    +0.000 N 
ATOM      6  C   UNL     1      44.616   3.635  12.553  0.00  0.00    +0.000 A 
ATOM      7  N   UNL     1      44.162   4.703  11.975  0.00  0.00    +0.000 NA
ATOM      8  C   UNL     1      44.899   5.829  12.172  0.00  0.00    +0.000 A 
ATOM      9  S   UNL     1      44.415   7.313  11.495  0.00  0.00    +0.000 S 
ATOM     10  C   UNL     1      45.743   8.122  12.188  0.00  0.00    +0.000 A 
ATOM     11  C   UNL     1      46.582   7.298  12.930  0.00  0.00    +0.000 A 
ATOM     12  C   UNL     1      46.066   5.946  12.905  0.00  0.00    +0.000 A 
ATOM     13  C   UNL     1      46.551   4.724  13.516  0.00  0.00    +0.000 A 
ATOM     14  O   UNL     1      47.574   4.646  14.191  0.00  0.00    +0.000 OA
ATOM     15  N   UNL     1      45.768   3.618  13.290  0.00  0.00    +0.000 N 
ATOM     16  H   UNL     1      43.253   2.464  11.710  0.00  0.00    +0.000 HD
ATOM     17  H   UNL     1      44.487   1.600  12.490  0.00  0.00    +0.000 HD
ATOM     18  H   UNL     1      46.067   2.771  13.744  0.00  0.00    +0.000 HD
ENDBRANCH   1  11
BRANCH   3  19
ATOM     19  C   UNL     1      50.179   7.670  14.063  0.00  0.00    +0.000 C 
BRANCH  19  20
ATOM     20  C   UNL     1      50.383   7.045  15.422  0.00  0.00    +0.000 A 
ATOM     21  C   UNL     1      51.490   7.392  16.193  0.00  0.00    +0.000 A 
ATOM     22  C   UNL     1      51.661   6.794  17.438  0.00  0.00    +0.000 A 
ATOM     23  C   UNL     1      50.725   5.863  17.894  0.00  0.00    +0.000 A 
ATOM     24  C   UNL     1      49.640   5.594  17.067  0.00  0.00    +0.000 A 
ATOM     25  N   UNL     1      49.447   6.160  15.852  0.00  0.00    +0.000 NA
BRANCH  23  26
ATOM     26  C   UNL     1      50.866   5.195  19.236  0.00  0.00    +0.000 C 
BRANCH  26  27
ATOM     27  N   UNL     1      49.998   5.763  20.293  0.00  0.00    +0.000 NA
ATOM     28  C   UNL     1      49.941   7.232  20.187  0.00  0.00    +0.000 C 
ATOM     29  C   UNL     1      48.925   7.867  21.138  0.00  0.00    +0.000 C 
ATOM     30  C   UNL     1      47.545   7.258  20.947  0.00  0.00    +0.000 C 
ATOM     31  C   UNL     1      47.631   5.752  21.139  0.00  0.00    +0.000 C 
ATOM     32  C   UNL     1      48.665   5.139  20.196  0.00  0.00    +0.000 C 
ENDBRANCH  26  27
ENDBRANCH  23  26
ENDBRANCH  19  20
ENDBRANCH   3  19
TORSDOF 5
ENDMDL
