MODEL 1
REMARK VINA RESULT:    -8.246      0.000      0.000
REMARK INTER + INTRA:         -13.467
REMARK INTER:                 -12.585
REMARK INTRA:                  -0.882
REMARK UNBOUND:                -0.882
REMARK  Name = 
REMARK  11 active torsions:
REMARK  status: ('A' for Active; 'I' for Inactive)
REMARK    1  A    between atoms: C_1  and  C_2
REMARK    2  A    between atoms: C_2  and  N_3
REMARK    3  A    between atoms: C_2  and  C_20
REMARK    4  A    between atoms: N_3  and  C_4
REMARK    5  A    between atoms: C_4  and  C_5
REMARK    6  A    between atoms: C_8  and  C_9
REMARK    7  A    between atoms: C_9  and  O_10
REMARK    8  A    between atoms: C_9  and  C_11
REMARK    9  A    between atoms: C_11  and  N_12
REMARK   10  A    between atoms: C_15  and  O_16
REMARK   11  A    between atoms: C_20  and  C_22
REMARK                            x       y       z     vdW  Elec       q    Type
REMARK                         _______ _______ _______ _____ _____    ______ ____
ROOT
ATOM      1  C   UNL     1      47.851   6.342  14.564  0.00  0.00    +0.000 C 
ENDROOT
BRANCH   1   2
ATOM      2  C   UNL     1      46.984   5.884  13.431  0.00  0.00    +0.000 A 
ATOM      3  C   UNL     1      46.867   6.635  12.257  0.00  0.00    +0.000 A 
ATOM      4  C   UNL     1      46.128   6.142  11.178  0.00  0.00    +0.000 A 
ATOM      5  C   UNL     1      45.488   4.897  11.264  0.00  0.00    +0.000 A 
ATOM      6  C   UNL     1      45.613   4.154  12.447  0.00  0.00    +0.000 A 
ATOM      7  C   UNL     1      46.341   4.646  13.521  0.00  0.00    +0.000 A 
BRANCH   5   8
ATOM      8  C   UNL     1      44.717   4.364  10.073  0.00  0.00    +0.000 C 
BRANCH   8   9
ATOM      9  O   UNL     1      43.528   5.153   9.918  0.00  0.00    +0.000 OA
ATOM     10  H   UNL     1      43.661   5.968  10.434  0.00  0.00    +0.000 HD
ENDBRANCH   8   9
BRANCH   8  11
ATOM     11  C   UNL     1      45.480   4.379   8.715  0.00  0.00    +0.000 C 
BRANCH  11  12
ATOM     12  N   UNL     1      45.087   3.344   7.740  0.00  0.00    +0.000 NA
ATOM     13  C   UNL     1      45.971   3.296   6.566  0.00  0.00    +0.000 C 
ATOM     14  C   UNL     1      46.899   2.097   6.724  0.00  0.00    +0.000 C 
ATOM     15  C   UNL     1      46.535   1.476   8.061  0.00  0.00    +0.000 C 
ATOM     16  C   UNL     1      45.129   1.999   8.331  0.00  0.00    +0.000 C 
BRANCH  15  17
ATOM     17  O   UNL     1      46.591   0.059   8.005  0.00  0.00    +0.000 OA
ATOM     18  H   UNL     1      47.369  -0.190   7.476  0.00  0.00    +0.000 HD
ENDBRANCH  15  17
ENDBRANCH  11  12
ENDBRANCH   8  11
ENDBRANCH   5   8
ENDBRANCH   1   2
BRANCH   1  19
ATOM     19  N   UNL     1      47.920   5.358  15.645  0.00  0.00    +0.000 NA
ATOM     20  H   UNL     1      48.142   4.446  15.232  0.00  0.00    +0.000 HD
BRANCH  19  22
ATOM     21  C   UNL     1      48.659   7.060  17.240  0.00  0.00    +0.000 C 
ATOM     22  C   UNL     1      49.005   5.730  16.579  0.00  0.00    +0.000 C 
BRANCH  22  23
ATOM     23  C   UNL     1      49.226   4.612  17.639  0.00  0.00    +0.000 C 
ATOM     24  O   UNL     1      48.278   4.057  18.185  0.00  0.00    +0.000 OA
BRANCH  23  25
ATOM     25  C   UNL     1      50.614   4.241  17.964  0.00  0.00    +0.000 A 
ATOM     26  C   UNL     1      51.497   5.111  18.584  0.00  0.00    +0.000 A 
ATOM     27  S   UNL     1      52.989   4.387  18.980  0.00  0.00    +0.000 S 
ATOM     28  C   UNL     1      52.500   2.892  18.332  0.00  0.00    +0.000 A 
ATOM     29  N   UNL     1      53.299   1.796  18.416  0.00  0.00    +0.000 NA
ATOM     30  C   UNL     1      52.779   0.724  17.917  0.00  0.00    +0.000 A 
ATOM     31  N   UNL     1      51.554   0.661  17.297  0.00  0.00    +0.000 N 
ATOM     32  C   UNL     1      50.803   1.786  17.030  0.00  0.00    +0.000 A 
ATOM     33  O   UNL     1      49.918   1.778  16.179  0.00  0.00    +0.000 OA
ATOM     34  C   UNL     1      51.253   2.970  17.740  0.00  0.00    +0.000 A 
ATOM     35  H   UNL     1      51.266  -0.186  16.831  0.00  0.00    +0.000 HD
ENDBRANCH  23  25
ENDBRANCH  22  23
ENDBRANCH  19  22
ENDBRANCH   1  19
TORSDOF 10
ENDMDL
MODEL 2
REMARK VINA RESULT:    -8.137      2.948      8.975
REMARK INTER + INTRA:         -13.300
REMARK INTER:                 -11.949
REMARK INTRA:                  -1.351
REMARK UNBOUND:                -0.882
REMARK  Name = 
REMARK  11 active torsions:
REMARK  status: ('A' for Active; 'I' for Inactive)
REMARK    1  A    between atoms: C_1  and  C_2
REMARK    2  A    between atoms: C_2  and  N_3
REMARK    3  A    between atoms: C_2  and  C_20
REMARK    4  A    between atoms: N_3  and  C_4
REMARK    5  A    between atoms: C_4  and  C_5
REMARK    6  A    between atoms: C_8  and  C_9
REMARK    7  A    between atoms: C_9  and  O_10
REMARK    8  A    between atoms: C_9  and  C_11
REMARK    9  A    between atoms: C_11  and  N_12
REMARK   10  A    between atoms: C_15  and  O_16
REMARK   11  A    between atoms: C_20  and  C_22
REMARK                            x       y       z     vdW  Elec       q    Type
REMARK                         _______ _______ _______ _____ _____    ______ ____
ROOT
ATOM      1  C   UNL     1      47.897   7.095  12.762  0.00  0.00    +0.000 C 
ENDROOT
BRANCH   1   2
ATOM      2  C   UNL     1      47.905   6.258  14.005  0.00  0.00    +0.000 A 
ATOM      3  C   UNL     1      48.560   6.686  15.164  0.00  0.00    +0.000 A 
ATOM      4  C   UNL     1      48.474   5.933  16.338  0.00  0.00    +0.000 A 
ATOM      5  C   UNL     1      47.742   4.736  16.365  0.00  0.00    +0.000 A 
ATOM      6  C   UNL     1      47.091   4.318  15.195  0.00  0.00    +0.000 A 
ATOM      7  C   UNL     1      47.180   5.062  14.027  0.00  0.00    +0.000 A 
BRANCH   5   8
ATOM      8  C   UNL     1      47.635   3.948  17.655  0.00  0.00    +0.000 C 
BRANCH   8   9
ATOM      9  O   UNL     1      46.617   2.952  17.490  0.00  0.00    +0.000 OA
ATOM     10  H   UNL     1      46.915   2.359  16.776  0.00  0.00    +0.000 HD
ENDBRANCH   8   9
BRANCH   8  11
ATOM     11  C   UNL     1      48.938   3.228  18.115  0.00  0.00    +0.000 C 
BRANCH  11  12
ATOM     12  N   UNL     1      50.025   3.158  17.122  0.00  0.00    +0.000 NA
ATOM     13  C   UNL     1      51.287   3.734  17.610  0.00  0.00    +0.000 C 
ATOM     14  C   UNL     1      52.217   2.586  17.983  0.00  0.00    +0.000 C 
ATOM     15  C   UNL     1      51.421   1.319  17.722  0.00  0.00    +0.000 C 
ATOM     16  C   UNL     1      50.333   1.769  16.754  0.00  0.00    +0.000 C 
BRANCH  15  17
ATOM     17  O   UNL     1      52.242   0.294  17.186  0.00  0.00    +0.000 OA
ATOM     18  H   UNL     1      53.082   0.698  16.905  0.00  0.00    +0.000 HD
ENDBRANCH  15  17
ENDBRANCH  11  12
ENDBRANCH   8  11
ENDBRANCH   5   8
ENDBRANCH   1   2
BRANCH   1  19
ATOM     19  N   UNL     1      46.812   6.728  11.851  0.00  0.00    +0.000 NA
ATOM     20  H   UNL     1      46.715   5.707  11.866  0.00  0.00    +0.000 HD
BRANCH  19  22
ATOM     21  C   UNL     1      45.621   8.843  12.151  0.00  0.00    +0.000 C 
ATOM     22  C   UNL     1      45.547   7.331  12.324  0.00  0.00    +0.000 C 
BRANCH  22  23
ATOM     23  C   UNL     1      44.332   6.732  11.558  0.00  0.00    +0.000 C 
ATOM     24  O   UNL     1      43.486   7.456  11.042  0.00  0.00    +0.000 OA
BRANCH  23  25
ATOM     25  C   UNL     1      44.232   5.265  11.472  0.00  0.00    +0.000 A 
ATOM     26  C   UNL     1      43.678   4.490  12.479  0.00  0.00    +0.000 A 
ATOM     27  S   UNL     1      43.548   2.841  12.066  0.00  0.00    +0.000 S 
ATOM     28  C   UNL     1      44.231   3.113  10.532  0.00  0.00    +0.000 A 
ATOM     29  N   UNL     1      44.340   2.108   9.625  0.00  0.00    +0.000 NA
ATOM     30  C   UNL     1      44.840   2.472   8.490  0.00  0.00    +0.000 A 
ATOM     31  N   UNL     1      45.286   3.739   8.200  0.00  0.00    +0.000 N 
ATOM     32  C   UNL     1      45.362   4.732   9.153  0.00  0.00    +0.000 A 
ATOM     33  O   UNL     1      46.080   5.715   8.998  0.00  0.00    +0.000 OA
ATOM     34  C   UNL     1      44.636   4.426  10.373  0.00  0.00    +0.000 A 
ATOM     35  H   UNL     1      45.769   3.918   7.332  0.00  0.00    +0.000 HD
ENDBRANCH  23  25
ENDBRANCH  22  23
ENDBRANCH  19  22
ENDBRANCH   1  19
TORSDOF 10
ENDMDL
MODEL 3
REMARK VINA RESULT:    -7.392      3.322      4.028
REMARK INTER + INTRA:         -12.164
REMARK INTER:                 -10.079
REMARK INTRA:                  -2.085
REMARK UNBOUND:                -0.882
REMARK  Name = 
REMARK  11 active torsions:
REMARK  status: ('A' for Active; 'I' for Inactive)
REMARK    1  A    between atoms: C_1  and  C_2
REMARK    2  A    between atoms: C_2  and  N_3
REMARK    3  A    between atoms: C_2  and  C_20
REMARK    4  A    between atoms: N_3  and  C_4
REMARK    5  A    between atoms: C_4  and  C_5
REMARK    6  A    between atoms: C_8  and  C_9
REMARK    7  A    between atoms: C_9  and  O_10
REMARK    8  A    between atoms: C_9  and  C_11
REMARK    9  A    between atoms: C_11  and  N_12
REMARK   10  A    between atoms: C_15  and  O_16
REMARK   11  A    between atoms: C_20  and  C_22
REMARK                            x       y       z     vdW  Elec       q    Type
REMARK                         _______ _______ _______ _____ _____    ______ ____
ROOT
ATOM      1  C   UNL     1      49.368   8.029  12.695  0.00  0.00    +0.000 C 
ENDROOT
BRANCH   1   2
ATOM      2  C   UNL     1      47.918   7.814  12.381  0.00  0.00    +0.000 A 
ATOM      3  C   UNL     1      47.515   6.913  11.390  0.00  0.00    +0.000 A 
ATOM      4  C   UNL     1      46.157   6.659  11.182  0.00  0.00    +0.000 A 
ATOM      5  C   UNL     1      45.184   7.312  11.952  0.00  0.00    +0.000 A 
ATOM      6  C   UNL     1      45.601   8.213  12.942  0.00  0.00    +0.000 A 
ATOM      7  C   UNL     1      46.950   8.471  13.147  0.00  0.00    +0.000 A 
BRANCH   5   8
ATOM      8  C   UNL     1      43.717   7.001  11.732  0.00  0.00    +0.000 C 
BRANCH   8   9
ATOM      9  O   UNL     1      43.144   8.063  10.956  0.00  0.00    +0.000 OA
ATOM     10  H   UNL     1      43.135   8.854  11.524  0.00  0.00    +0.000 HD
ENDBRANCH   8   9
BRANCH   8  11
ATOM     11  C   UNL     1      43.415   5.659  11.001  0.00  0.00    +0.000 C 
BRANCH  11  12
ATOM     12  N   UNL     1      43.233   4.477  11.865  0.00  0.00    +0.000 NA
ATOM     13  C   UNL     1      43.394   3.208  11.141  0.00  0.00    +0.000 C 
ATOM     14  C   UNL     1      44.765   2.639  11.486  0.00  0.00    +0.000 C 
ATOM     15  C   UNL     1      45.405   3.657  12.414  0.00  0.00    +0.000 C 
ATOM     16  C   UNL     1      44.219   4.447  12.954  0.00  0.00    +0.000 C 
BRANCH  15  17
ATOM     17  O   UNL     1      46.154   3.022  13.439  0.00  0.00    +0.000 OA
ATOM     18  H   UNL     1      46.231   2.079  13.214  0.00  0.00    +0.000 HD
ENDBRANCH  15  17
ENDBRANCH  11  12
ENDBRANCH   8  11
ENDBRANCH   5   8
ENDBRANCH   1   2
BRANCH   1  19
ATOM     19  N   UNL     1      49.886   7.042  13.641  0.00  0.00    +0.000 NA
ATOM     20  H   UNL     1      50.654   6.537  13.187  0.00  0.00    +0.000 HD
BRANCH  19  22
ATOM     21  C   UNL     1      50.696   9.191  14.481  0.00  0.00    +0.000 C 
ATOM     22  C   UNL     1      50.415   7.736  14.835  0.00  0.00    +0.000 C 
BRANCH  22  23
ATOM     23  C   UNL     1      49.418   7.624  16.025  0.00  0.00    +0.000 C 
ATOM     24  O   UNL     1      48.569   8.487  16.226  0.00  0.00    +0.000 OA
BRANCH  23  25
ATOM     25  C   UNL     1      49.526   6.445  16.901  0.00  0.00    +0.000 A 
ATOM     26  C   UNL     1      50.426   6.373  17.953  0.00  0.00    +0.000 A 
ATOM     27  S   UNL     1      50.245   4.965  18.898  0.00  0.00    +0.000 S 
ATOM     28  C   UNL     1      48.963   4.410  17.928  0.00  0.00    +0.000 A 
ATOM     29  N   UNL     1      48.291   3.271  18.238  0.00  0.00    +0.000 NA
ATOM     30  C   UNL     1      47.317   2.997  17.434  0.00  0.00    +0.000 A 
ATOM     31  N   UNL     1      46.987   3.732  16.321  0.00  0.00    +0.000 N 
ATOM     32  C   UNL     1      47.760   4.783  15.875  0.00  0.00    +0.000 A 
ATOM     33  O   UNL     1      47.681   5.190  14.720  0.00  0.00    +0.000 OA
ATOM     34  C   UNL     1      48.737   5.242  16.846  0.00  0.00    +0.000 A 
ATOM     35  H   UNL     1      46.287   3.391  15.680  0.00  0.00    +0.000 HD
ENDBRANCH  23  25
ENDBRANCH  22  23
ENDBRANCH  19  22
ENDBRANCH   1  19
TORSDOF 10
ENDMDL
MODEL 4
REMARK VINA RESULT:    -7.344      2.084      2.905
REMARK INTER + INTRA:         -12.090
REMARK INTER:                 -11.016
REMARK INTRA:                  -1.075
REMARK UNBOUND:                -0.882
REMARK  Name = 
REMARK  11 active torsions:
REMARK  status: ('A' for Active; 'I' for Inactive)
REMARK    1  A    between atoms: C_1  and  C_2
REMARK    2  A    between atoms: C_2  and  N_3
REMARK    3  A    between atoms: C_2  and  C_20
REMARK    4  A    between atoms: N_3  and  C_4
REMARK    5  A    between atoms: C_4  and  C_5
REMARK    6  A    between atoms: C_8  and  C_9
REMARK    7  A    between atoms: C_9  and  O_10
REMARK    8  A    between atoms: C_9  and  C_11
REMARK    9  A    between atoms: C_11  and  N_12
REMARK   10  A    between atoms: C_15  and  O_16
REMARK   11  A    between atoms: C_20  and  C_22
REMARK                            x       y       z     vdW  Elec       q    Type
REMARK                         _______ _______ _______ _____ _____    ______ ____
ROOT
ATOM      1  C   UNL     1      47.590   5.565  14.825  0.00  0.00    +0.000 C 
ENDROOT
BRANCH   1   2
ATOM      2  C   UNL     1      46.755   5.278  13.614  0.00  0.00    +0.000 A 
ATOM      3  C   UNL     1      46.654   6.199  12.567  0.00  0.00    +0.000 A 
ATOM      4  C   UNL     1      45.947   5.870  11.407  0.00  0.00    +0.000 A 
ATOM      5  C   UNL     1      45.322   4.621  11.285  0.00  0.00    +0.000 A 
ATOM      6  C   UNL     1      45.430   3.707  12.343  0.00  0.00    +0.000 A 
ATOM      7  C   UNL     1      46.127   4.034  13.497  0.00  0.00    +0.000 A 
BRANCH   5   8
ATOM      8  C   UNL     1      44.585   4.270  10.008  0.00  0.00    +0.000 C 
BRANCH   8   9
ATOM      9  O   UNL     1      43.477   5.170   9.867  0.00  0.00    +0.000 OA
ATOM     10  H   UNL     1      42.708   4.633   9.606  0.00  0.00    +0.000 HD
ENDBRANCH   8   9
BRANCH   8  11
ATOM     11  C   UNL     1      45.429   4.343   8.701  0.00  0.00    +0.000 C 
BRANCH  11  12
ATOM     12  N   UNL     1      45.110   3.341   7.667  0.00  0.00    +0.000 NA
ATOM     13  C   UNL     1      46.083   3.325   6.565  0.00  0.00    +0.000 C 
ATOM     14  C   UNL     1      46.993   2.117   6.757  0.00  0.00    +0.000 C 
ATOM     15  C   UNL     1      46.523   1.457   8.042  0.00  0.00    +0.000 C 
ATOM     16  C   UNL     1      45.103   1.979   8.218  0.00  0.00    +0.000 C 
BRANCH  15  17
ATOM     17  O   UNL     1      46.580   0.042   7.946  0.00  0.00    +0.000 OA
ATOM     18  H   UNL     1      45.826  -0.252   7.405  0.00  0.00    +0.000 HD
ENDBRANCH  15  17
ENDBRANCH  11  12
ENDBRANCH   8  11
ENDBRANCH   5   8
ENDBRANCH   1   2
BRANCH   1  19
ATOM     19  N   UNL     1      47.959   4.348  15.548  0.00  0.00    +0.000 NA
ATOM     20  H   UNL     1      48.979   4.339  15.656  0.00  0.00    +0.000 HD
BRANCH  19  22
ATOM     21  C   UNL     1      47.214   2.937  17.402  0.00  0.00    +0.000 C 
ATOM     22  C   UNL     1      47.341   4.367  16.891  0.00  0.00    +0.000 C 
BRANCH  22  23
ATOM     23  C   UNL     1      48.174   5.246  17.869  0.00  0.00    +0.000 C 
ATOM     24  O   UNL     1      47.629   5.963  18.701  0.00  0.00    +0.000 OA
BRANCH  23  25
ATOM     25  C   UNL     1      49.642   5.186  17.761  0.00  0.00    +0.000 A 
ATOM     26  C   UNL     1      50.390   4.144  18.288  0.00  0.00    +0.000 A 
ATOM     27  S   UNL     1      52.047   4.240  17.897  0.00  0.00    +0.000 S 
ATOM     28  C   UNL     1      51.814   5.677  17.016  0.00  0.00    +0.000 A 
ATOM     29  N   UNL     1      52.839   6.262  16.345  0.00  0.00    +0.000 NA
ATOM     30  C   UNL     1      52.504   7.323  15.688  0.00  0.00    +0.000 A 
ATOM     31  N   UNL     1      51.247   7.879  15.684  0.00  0.00    +0.000 N 
ATOM     32  C   UNL     1      50.234   7.420  16.499  0.00  0.00    +0.000 A 
ATOM     33  O   UNL     1      49.260   8.118  16.764  0.00  0.00    +0.000 OA
ATOM     34  C   UNL     1      50.508   6.125  17.097  0.00  0.00    +0.000 A 
ATOM     35  H   UNL     1      51.090   8.771  15.241  0.00  0.00    +0.000 HD
ENDBRANCH  23  25
ENDBRANCH  22  23
ENDBRANCH  19  22
ENDBRANCH   1  19
TORSDOF 10
ENDMDL
MODEL 5
REMARK VINA RESULT:    -7.232      2.180      2.939
REMARK INTER + INTRA:         -11.920
REMARK INTER:                 -10.737
REMARK INTRA:                  -1.183
REMARK UNBOUND:                -0.882
REMARK  Name = 
REMARK  11 active torsions:
REMARK  status: ('A' for Active; 'I' for Inactive)
REMARK    1  A    between atoms: C_1  and  C_2
REMARK    2  A    between atoms: C_2  and  N_3
REMARK    3  A    between atoms: C_2  and  C_20
REMARK    4  A    between atoms: N_3  and  C_4
REMARK    5  A    between atoms: C_4  and  C_5
REMARK    6  A    between atoms: C_8  and  C_9
REMARK    7  A    between atoms: C_9  and  O_10
REMARK    8  A    between atoms: C_9  and  C_11
REMARK    9  A    between atoms: C_11  and  N_12
REMARK   10  A    between atoms: C_15  and  O_16
REMARK   11  A    between atoms: C_20  and  C_22
REMARK                            x       y       z     vdW  Elec       q    Type
REMARK                         _______ _______ _______ _____ _____    ______ ____
ROOT
ATOM      1  C   UNL     1      48.775   7.631  13.899  0.00  0.00    +0.000 C 
ENDROOT
BRANCH   1   2
ATOM      2  C   UNL     1      47.496   7.141  13.290  0.00  0.00    +0.000 A 
ATOM      3  C   UNL     1      46.952   5.902  13.642  0.00  0.00    +0.000 A 
ATOM      4  C   UNL     1      45.712   5.509  13.132  0.00  0.00    +0.000 A 
ATOM      5  C   UNL     1      45.005   6.344  12.255  0.00  0.00    +0.000 A 
ATOM      6  C   UNL     1      45.562   7.584  11.910  0.00  0.00    +0.000 A 
ATOM      7  C   UNL     1      46.796   7.973  12.411  0.00  0.00    +0.000 A 
BRANCH   5   8
ATOM      8  C   UNL     1      43.648   5.914  11.737  0.00  0.00    +0.000 C 
BRANCH   8   9
ATOM      9  O   UNL     1      42.965   7.076  11.245  0.00  0.00    +0.000 OA
ATOM     10  H   UNL     1      42.904   6.979  10.278  0.00  0.00    +0.000 HD
ENDBRANCH   8   9
BRANCH   8  11
ATOM     11  C   UNL     1      43.667   4.853  10.596  0.00  0.00    +0.000 C 
BRANCH  11  12
ATOM     12  N   UNL     1      44.969   4.217  10.324  0.00  0.00    +0.000 NA
ATOM     13  C   UNL     1      44.878   2.756  10.192  0.00  0.00    +0.000 C 
ATOM     14  C   UNL     1      44.953   2.410   8.710  0.00  0.00    +0.000 C 
ATOM     15  C   UNL     1      45.056   3.743   7.987  0.00  0.00    +0.000 C 
ATOM     16  C   UNL     1      45.554   4.699   9.064  0.00  0.00    +0.000 C 
BRANCH  15  17
ATOM     17  O   UNL     1      45.935   3.662   6.876  0.00  0.00    +0.000 OA
ATOM     18  H   UNL     1      46.720   3.158   7.152  0.00  0.00    +0.000 HD
ENDBRANCH  15  17
ENDBRANCH  11  12
ENDBRANCH   8  11
ENDBRANCH   5   8
ENDBRANCH   1   2
BRANCH   1  19
ATOM     19  N   UNL     1      49.406   6.626  14.753  0.00  0.00    +0.000 NA
ATOM     20  H   UNL     1      50.245   6.282  14.274  0.00  0.00    +0.000 HD
BRANCH  19  22
ATOM     21  C   UNL     1      49.613   8.760  15.932  0.00  0.00    +0.000 C 
ATOM     22  C   UNL     1      49.813   7.252  16.030  0.00  0.00    +0.000 C 
BRANCH  22  23
ATOM     23  C   UNL     1      49.010   6.650  17.220  0.00  0.00    +0.000 C 
ATOM     24  O   UNL     1      48.537   7.368  18.095  0.00  0.00    +0.000 OA
BRANCH  23  25
ATOM     25  C   UNL     1      48.835   5.188  17.257  0.00  0.00    +0.000 A 
ATOM     26  C   UNL     1      47.607   4.575  17.064  0.00  0.00    +0.000 A 
ATOM     27  S   UNL     1      47.706   2.873  17.009  0.00  0.00    +0.000 S 
ATOM     28  C   UNL     1      49.390   2.907  17.246  0.00  0.00    +0.000 A 
ATOM     29  N   UNL     1      50.124   1.764  17.226  0.00  0.00    +0.000 NA
ATOM     30  C   UNL     1      51.394   1.948  17.378  0.00  0.00    +0.000 A 
ATOM     31  N   UNL     1      51.988   3.168  17.599  0.00  0.00    +0.000 N 
ATOM     32  C   UNL     1      51.258   4.318  17.810  0.00  0.00    +0.000 A 
ATOM     33  O   UNL     1      51.754   5.299  18.356  0.00  0.00    +0.000 OA
ATOM     34  C   UNL     1      49.856   4.192  17.455  0.00  0.00    +0.000 A 
ATOM     35  H   UNL     1      52.971   3.217  17.823  0.00  0.00    +0.000 HD
ENDBRANCH  23  25
ENDBRANCH  22  23
ENDBRANCH  19  22
ENDBRANCH   1  19
TORSDOF 10
ENDMDL
MODEL 6
REMARK VINA RESULT:    -6.963      1.544      2.139
REMARK INTER + INTRA:         -11.509
REMARK INTER:                 -10.809
REMARK INTRA:                  -0.700
REMARK UNBOUND:                -0.882
REMARK  Name = 
REMARK  11 active torsions:
REMARK  status: ('A' for Active; 'I' for Inactive)
REMARK    1  A    between atoms: C_1  and  C_2
REMARK    2  A    between atoms: C_2  and  N_3
REMARK    3  A    between atoms: C_2  and  C_20
REMARK    4  A    between atoms: N_3  and  C_4
REMARK    5  A    between atoms: C_4  and  C_5
REMARK    6  A    between atoms: C_8  and  C_9
REMARK    7  A    between atoms: C_9  and  O_10
REMARK    8  A    between atoms: C_9  and  C_11
REMARK    9  A    between atoms: C_11  and  N_12
REMARK   10  A    between atoms: C_15  and  O_16
REMARK   11  A    between atoms: C_20  and  C_22
REMARK                            x       y       z     vdW  Elec       q    Type
REMARK                         _______ _______ _______ _____ _____    ______ ____
ROOT
ATOM      1  C   UNL     1      47.610   6.269  14.821  0.00  0.00    +0.000 C 
ENDROOT
BRANCH   1   2
ATOM      2  C   UNL     1      46.934   5.736  13.594  0.00  0.00    +0.000 A 
ATOM      3  C   UNL     1      46.234   4.525  13.618  0.00  0.00    +0.000 A 
ATOM      4  C   UNL     1      45.534   4.096  12.488  0.00  0.00    +0.000 A 
ATOM      5  C   UNL     1      45.534   4.866  11.315  0.00  0.00    +0.000 A 
ATOM      6  C   UNL     1      46.240   6.078  11.304  0.00  0.00    +0.000 A 
ATOM      7  C   UNL     1      46.941   6.502  12.424  0.00  0.00    +0.000 A 
BRANCH   5   8
ATOM      8  C   UNL     1      44.744   4.399  10.109  0.00  0.00    +0.000 C 
BRANCH   8   9
ATOM      9  O   UNL     1      43.570   5.216   9.997  0.00  0.00    +0.000 OA
ATOM     10  H   UNL     1      43.072   5.110  10.827  0.00  0.00    +0.000 HD
ENDBRANCH   8   9
BRANCH   8  11
ATOM     11  C   UNL     1      45.497   4.457   8.746  0.00  0.00    +0.000 C 
BRANCH  11  12
ATOM     12  N   UNL     1      45.110   3.442   7.748  0.00  0.00    +0.000 NA
ATOM     13  C   UNL     1      46.044   3.366   6.616  0.00  0.00    +0.000 C 
ATOM     14  C   UNL     1      46.918   2.132   6.807  0.00  0.00    +0.000 C 
ATOM     15  C   UNL     1      46.470   1.519   8.123  0.00  0.00    +0.000 C 
ATOM     16  C   UNL     1      45.075   2.094   8.333  0.00  0.00    +0.000 C 
BRANCH  15  17
ATOM     17  O   UNL     1      46.476   0.101   8.060  0.00  0.00    +0.000 OA
ATOM     18  H   UNL     1      47.385  -0.187   7.870  0.00  0.00    +0.000 HD
ENDBRANCH  15  17
ENDBRANCH  11  12
ENDBRANCH   8  11
ENDBRANCH   5   8
ENDBRANCH   1   2
BRANCH   1  19
ATOM     19  N   UNL     1      49.066   6.289  14.691  0.00  0.00    +0.000 NA
ATOM     20  H   UNL     1      49.311   6.960  13.954  0.00  0.00    +0.000 HD
BRANCH  19  22
ATOM     21  C   UNL     1      49.452   8.245  16.107  0.00  0.00    +0.000 C 
ATOM     22  C   UNL     1      49.668   6.744  15.963  0.00  0.00    +0.000 C 
BRANCH  22  23
ATOM     23  C   UNL     1      49.061   5.966  17.167  0.00  0.00    +0.000 C 
ATOM     24  O   UNL     1      48.510   6.555  18.092  0.00  0.00    +0.000 OA
BRANCH  23  25
ATOM     25  C   UNL     1      49.170   4.497  17.158  0.00  0.00    +0.000 A 
ATOM     26  C   UNL     1      48.122   3.670  16.786  0.00  0.00    +0.000 A 
ATOM     27  S   UNL     1      48.556   2.022  16.719  0.00  0.00    +0.000 S 
ATOM     28  C   UNL     1      50.154   2.365  17.190  0.00  0.00    +0.000 A 
ATOM     29  N   UNL     1      51.092   1.385  17.255  0.00  0.00    +0.000 NA
ATOM     30  C   UNL     1      52.270   1.801  17.586  0.00  0.00    +0.000 A 
ATOM     31  N   UNL     1      52.581   3.101  17.907  0.00  0.00    +0.000 N 
ATOM     32  C   UNL     1      51.620   4.081  18.031  0.00  0.00    +0.000 A 
ATOM     33  O   UNL     1      51.838   5.115  18.655  0.00  0.00    +0.000 OA
ATOM     34  C   UNL     1      50.329   3.706  17.481  0.00  0.00    +0.000 A 
ATOM     35  H   UNL     1      53.496   3.327  18.266  0.00  0.00    +0.000 HD
ENDBRANCH  23  25
ENDBRANCH  22  23
ENDBRANCH  19  22
ENDBRANCH   1  19
TORSDOF 10
ENDMDL
MODEL 7
REMARK VINA RESULT:    -6.879      3.073      3.776
REMARK INTER + INTRA:         -11.380
REMARK INTER:                  -9.966
REMARK INTRA:                  -1.415
REMARK UNBOUND:                -0.882
REMARK  Name = 
REMARK  11 active torsions:
REMARK  status: ('A' for Active; 'I' for Inactive)
REMARK    1  A    between atoms: C_1  and  C_2
REMARK    2  A    between atoms: C_2  and  N_3
REMARK    3  A    between atoms: C_2  and  C_20
REMARK    4  A    between atoms: N_3  and  C_4
REMARK    5  A    between atoms: C_4  and  C_5
REMARK    6  A    between atoms: C_8  and  C_9
REMARK    7  A    between atoms: C_9  and  O_10
REMARK    8  A    between atoms: C_9  and  C_11
REMARK    9  A    between atoms: C_11  and  N_12
REMARK   10  A    between atoms: C_15  and  O_16
REMARK   11  A    between atoms: C_20  and  C_22
REMARK                            x       y       z     vdW  Elec       q    Type
REMARK                         _______ _______ _______ _____ _____    ______ ____
ROOT
ATOM      1  C   UNL     1      48.807   7.929  13.614  0.00  0.00    +0.000 C 
ENDROOT
BRANCH   1   2
ATOM      2  C   UNL     1      47.543   7.287  13.129  0.00  0.00    +0.000 A 
ATOM      3  C   UNL     1      47.079   6.089  13.682  0.00  0.00    +0.000 A 
ATOM      4  C   UNL     1      45.850   5.560  13.279  0.00  0.00    +0.000 A 
ATOM      5  C   UNL     1      45.075   6.215  12.311  0.00  0.00    +0.000 A 
ATOM      6  C   UNL     1      45.552   7.415  11.765  0.00  0.00    +0.000 A 
ATOM      7  C   UNL     1      46.775   7.939  12.159  0.00  0.00    +0.000 A 
BRANCH   5   8
ATOM      8  C   UNL     1      43.731   5.642  11.910  0.00  0.00    +0.000 C 
BRANCH   8   9
ATOM      9  O   UNL     1      42.817   6.730  11.716  0.00  0.00    +0.000 OA
ATOM     10  H   UNL     1      42.075   6.385  11.189  0.00  0.00    +0.000 HD
ENDBRANCH   8   9
BRANCH   8  11
ATOM     11  C   UNL     1      43.726   4.779  10.612  0.00  0.00    +0.000 C 
BRANCH  11  12
ATOM     12  N   UNL     1      44.985   4.079  10.295  0.00  0.00    +0.000 NA
ATOM     13  C   UNL     1      44.799   2.639  10.064  0.00  0.00    +0.000 C 
ATOM     14  C   UNL     1      44.855   2.391   8.562  0.00  0.00    +0.000 C 
ATOM     15  C   UNL     1      45.045   3.759   7.931  0.00  0.00    +0.000 C 
ATOM     16  C   UNL     1      45.602   4.606   9.069  0.00  0.00    +0.000 C 
BRANCH  15  17
ATOM     17  O   UNL     1      45.919   3.697   6.815  0.00  0.00    +0.000 OA
ATOM     18  H   UNL     1      45.378   3.741   6.008  0.00  0.00    +0.000 HD
ENDBRANCH  15  17
ENDBRANCH  11  12
ENDBRANCH   8  11
ENDBRANCH   5   8
ENDBRANCH   1   2
BRANCH   1  19
ATOM     19  N   UNL     1      49.689   6.981  14.294  0.00  0.00    +0.000 NA
ATOM     20  H   UNL     1      50.176   6.430  13.579  0.00  0.00    +0.000 HD
BRANCH  19  22
ATOM     21  C   UNL     1      50.074   9.025  15.581  0.00  0.00    +0.000 C 
ATOM     22  C   UNL     1      50.693   7.724  15.086  0.00  0.00    +0.000 C 
BRANCH  22  23
ATOM     23  C   UNL     1      51.212   6.857  16.270  0.00  0.00    +0.000 C 
ATOM     24  O   UNL     1      52.207   6.148  16.151  0.00  0.00    +0.000 OA
BRANCH  23  25
ATOM     25  C   UNL     1      50.469   6.917  17.540  0.00  0.00    +0.000 A 
ATOM     26  C   UNL     1      50.889   7.678  18.620  0.00  0.00    +0.000 A 
ATOM     27  S   UNL     1      49.774   7.691  19.909  0.00  0.00    +0.000 S 
ATOM     28  C   UNL     1      48.700   6.677  19.065  0.00  0.00    +0.000 A 
ATOM     29  N   UNL     1      47.488   6.351  19.585  0.00  0.00    +0.000 NA
ATOM     30  C   UNL     1      46.764   5.609  18.814  0.00  0.00    +0.000 A 
ATOM     31  N   UNL     1      47.164   5.122  17.592  0.00  0.00    +0.000 N 
ATOM     32  C   UNL     1      48.450   5.279  17.120  0.00  0.00    +0.000 A 
ATOM     33  O   UNL     1      48.899   4.556  16.236  0.00  0.00    +0.000 OA
ATOM     34  C   UNL     1      49.226   6.262  17.855  0.00  0.00    +0.000 A 
ATOM     35  H   UNL     1      46.588   4.456  17.101  0.00  0.00    +0.000 HD
ENDBRANCH  23  25
ENDBRANCH  22  23
ENDBRANCH  19  22
ENDBRANCH   1  19
TORSDOF 10
ENDMDL
MODEL 8
REMARK VINA RESULT:    -6.872      2.279      3.070
REMARK INTER + INTRA:         -11.370
REMARK INTER:                  -9.920
REMARK INTRA:                  -1.451
REMARK UNBOUND:                -0.882
REMARK  Name = 
REMARK  11 active torsions:
REMARK  status: ('A' for Active; 'I' for Inactive)
REMARK    1  A    between atoms: C_1  and  C_2
REMARK    2  A    between atoms: C_2  and  N_3
REMARK    3  A    between atoms: C_2  and  C_20
REMARK    4  A    between atoms: N_3  and  C_4
REMARK    5  A    between atoms: C_4  and  C_5
REMARK    6  A    between atoms: C_8  and  C_9
REMARK    7  A    between atoms: C_9  and  O_10
REMARK    8  A    between atoms: C_9  and  C_11
REMARK    9  A    between atoms: C_11  and  N_12
REMARK   10  A    between atoms: C_15  and  O_16
REMARK   11  A    between atoms: C_20  and  C_22
REMARK                            x       y       z     vdW  Elec       q    Type
REMARK                         _______ _______ _______ _____ _____    ______ ____
ROOT
ATOM      1  C   UNL     1      48.995   7.954  15.294  0.00  0.00    +0.000 C 
ENDROOT
BRANCH   1   2
ATOM      2  C   UNL     1      47.992   7.605  14.237  0.00  0.00    +0.000 A 
ATOM      3  C   UNL     1      47.922   6.317  13.698  0.00  0.00    +0.000 A 
ATOM      4  C   UNL     1      46.918   5.991  12.783  0.00  0.00    +0.000 A 
ATOM      5  C   UNL     1      45.977   6.953  12.386  0.00  0.00    +0.000 A 
ATOM      6  C   UNL     1      46.058   8.241  12.934  0.00  0.00    +0.000 A 
ATOM      7  C   UNL     1      47.059   8.568  13.838  0.00  0.00    +0.000 A 
BRANCH   5   8
ATOM      8  C   UNL     1      44.876   6.573  11.417  0.00  0.00    +0.000 C 
BRANCH   8   9
ATOM      9  O   UNL     1      44.379   7.774  10.808  0.00  0.00    +0.000 OA
ATOM     10  H   UNL     1      44.199   7.563   9.875  0.00  0.00    +0.000 HD
ENDBRANCH   8   9
BRANCH   8  11
ATOM     11  C   UNL     1      45.290   5.596  10.276  0.00  0.00    +0.000 C 
BRANCH  11  12
ATOM     12  N   UNL     1      44.211   4.767   9.710  0.00  0.00    +0.000 NA
ATOM     13  C   UNL     1      44.712   3.644   8.904  0.00  0.00    +0.000 C 
ATOM     14  C   UNL     1      44.585   2.373   9.735  0.00  0.00    +0.000 C 
ATOM     15  C   UNL     1      44.020   2.818  11.073  0.00  0.00    +0.000 C 
ATOM     16  C   UNL     1      43.381   4.166  10.763  0.00  0.00    +0.000 C 
BRANCH  15  17
ATOM     17  O   UNL     1      43.091   1.874  11.581  0.00  0.00    +0.000 OA
ATOM     18  H   UNL     1      42.195   2.209  11.403  0.00  0.00    +0.000 HD
ENDBRANCH  15  17
ENDBRANCH  11  12
ENDBRANCH   8  11
ENDBRANCH   5   8
ENDBRANCH   1   2
BRANCH   1  19
ATOM     19  N   UNL     1      48.365   8.304  16.567  0.00  0.00    +0.000 NA
ATOM     20  H   UNL     1      47.699   7.562  16.808  0.00  0.00    +0.000 HD
BRANCH  19  22
ATOM     21  C   UNL     1      49.176   9.635  18.452  0.00  0.00    +0.000 C 
ATOM     22  C   UNL     1      49.397   8.375  17.624  0.00  0.00    +0.000 C 
BRANCH  22  23
ATOM     23  C   UNL     1      49.362   7.099  18.515  0.00  0.00    +0.000 C 
ATOM     24  O   UNL     1      48.681   7.054  19.534  0.00  0.00    +0.000 OA
BRANCH  23  25
ATOM     25  C   UNL     1      50.173   5.945  18.090  0.00  0.00    +0.000 A 
ATOM     26  C   UNL     1      51.551   5.903  18.236  0.00  0.00    +0.000 A 
ATOM     27  S   UNL     1      52.228   4.399  17.804  0.00  0.00    +0.000 S 
ATOM     28  C   UNL     1      50.701   3.762  17.406  0.00  0.00    +0.000 A 
ATOM     29  N   UNL     1      50.559   2.465  17.028  0.00  0.00    +0.000 NA
ATOM     30  C   UNL     1      49.338   2.112  16.797  0.00  0.00    +0.000 A 
ATOM     31  N   UNL     1      48.253   2.954  16.862  0.00  0.00    +0.000 N 
ATOM     32  C   UNL     1      48.382   4.312  17.060  0.00  0.00    +0.000 A 
ATOM     33  O   UNL     1      47.483   5.091  16.759  0.00  0.00    +0.000 OA
ATOM     34  C   UNL     1      49.702   4.712  17.515  0.00  0.00    +0.000 A 
ATOM     35  H   UNL     1      47.346   2.633  16.557  0.00  0.00    +0.000 HD
ENDBRANCH  23  25
ENDBRANCH  22  23
ENDBRANCH  19  22
ENDBRANCH   1  19
TORSDOF 10
ENDMDL
MODEL 9
REMARK VINA RESULT:    -6.719      2.699      4.203
REMARK INTER + INTRA:         -11.136
REMARK INTER:                  -9.779
REMARK INTRA:                  -1.357
REMARK UNBOUND:                -0.882
REMARK  Name = 
REMARK  11 active torsions:
REMARK  status: ('A' for Active; 'I' for Inactive)
REMARK    1  A    between atoms: C_1  and  C_2
REMARK    2  A    between atoms: C_2  and  N_3
REMARK    3  A    between atoms: C_2  and  C_20
REMARK    4  A    between atoms: N_3  and  C_4
REMARK    5  A    between atoms: C_4  and  C_5
REMARK    6  A    between atoms: C_8  and  C_9
REMARK    7  A    between atoms: C_9  and  O_10
REMARK    8  A    between atoms: C_9  and  C_11
REMARK    9  A    between atoms: C_11  and  N_12
REMARK   10  A    between atoms: C_15  and  O_16
REMARK   11  A    between atoms: C_20  and  C_22
REMARK                            x       y       z     vdW  Elec       q    Type
REMARK                         _______ _______ _______ _____ _____    ______ ____
ROOT
ATOM      1  C   UNL     1      48.930   5.818  19.308  0.00  0.00    +0.000 C 
ENDROOT
BRANCH   1   2
ATOM      2  C   UNL     1      48.377   5.526  17.946  0.00  0.00    +0.000 A 
ATOM      3  C   UNL     1      48.708   6.318  16.842  0.00  0.00    +0.000 A 
ATOM      4  C   UNL     1      48.256   5.969  15.567  0.00  0.00    +0.000 A 
ATOM      5  C   UNL     1      47.457   4.831  15.381  0.00  0.00    +0.000 A 
ATOM      6  C   UNL     1      47.132   4.046  16.496  0.00  0.00    +0.000 A 
ATOM      7  C   UNL     1      47.576   4.394  17.765  0.00  0.00    +0.000 A 
BRANCH   5   8
ATOM      8  C   UNL     1      47.001   4.452  13.986  0.00  0.00    +0.000 C 
BRANCH   8   9
ATOM      9  O   UNL     1      46.984   3.021  13.892  0.00  0.00    +0.000 OA
ATOM     10  H   UNL     1      46.731   2.801  12.978  0.00  0.00    +0.000 HD
ENDBRANCH   8   9
BRANCH   8  11
ATOM     11  C   UNL     1      45.592   4.973  13.572  0.00  0.00    +0.000 C 
BRANCH  11  12
ATOM     12  N   UNL     1      44.740   4.023  12.834  0.00  0.00    +0.000 NA
ATOM     13  C   UNL     1      43.304   4.254  13.048  0.00  0.00    +0.000 C 
ATOM     14  C   UNL     1      42.750   4.952  11.811  0.00  0.00    +0.000 C 
ATOM     15  C   UNL     1      43.940   5.146  10.888  0.00  0.00    +0.000 C 
ATOM     16  C   UNL     1      44.952   4.120  11.383  0.00  0.00    +0.000 C 
BRANCH  15  17
ATOM     17  O   UNL     1      43.578   4.948   9.530  0.00  0.00    +0.000 OA
ATOM     18  H   UNL     1      44.391   4.770   9.026  0.00  0.00    +0.000 HD
ENDBRANCH  15  17
ENDBRANCH  11  12
ENDBRANCH   8  11
ENDBRANCH   5   8
ENDBRANCH   1   2
BRANCH   1  19
ATOM     19  N   UNL     1      50.050   6.759  19.264  0.00  0.00    +0.000 NA
ATOM     20  H   UNL     1      49.879   7.491  19.961  0.00  0.00    +0.000 HD
BRANCH  19  22
ATOM     21  C   UNL     1      50.966   4.867  20.515  0.00  0.00    +0.000 C 
ATOM     22  C   UNL     1      51.300   6.052  19.617  0.00  0.00    +0.000 C 
BRANCH  22  23
ATOM     23  C   UNL     1      52.056   5.596  18.334  0.00  0.00    +0.000 C 
ATOM     24  O   UNL     1      51.935   6.204  17.276  0.00  0.00    +0.000 OA
BRANCH  23  25
ATOM     25  C   UNL     1      52.922   4.409  18.436  0.00  0.00    +0.000 A 
ATOM     26  C   UNL     1      54.226   4.471  18.903  0.00  0.00    +0.000 A 
ATOM     27  S   UNL     1      54.957   2.938  19.061  0.00  0.00    +0.000 S 
ATOM     28  C   UNL     1      53.556   2.149  18.507  0.00  0.00    +0.000 A 
ATOM     29  N   UNL     1      53.483   0.793  18.470  0.00  0.00    +0.000 NA
ATOM     30  C   UNL     1      52.343   0.336  18.067  0.00  0.00    +0.000 A 
ATOM     31  N   UNL     1      51.289   1.114  17.649  0.00  0.00    +0.000 N 
ATOM     32  C   UNL     1      51.394   2.480  17.499  0.00  0.00    +0.000 A 
ATOM     33  O   UNL     1      50.605   3.109  16.799  0.00  0.00    +0.000 OA
ATOM     34  C   UNL     1      52.577   3.047  18.121  0.00  0.00    +0.000 A 
ATOM     35  H   UNL     1      50.474   0.682  17.240  0.00  0.00    +0.000 HD
ENDBRANCH  23  25
ENDBRANCH  22  23
ENDBRANCH  19  22
ENDBRANCH   1  19
TORSDOF 10
ENDMDL
