MODEL 1
REMARK VINA RESULT:    -5.473      0.000      0.000
REMARK INTER + INTRA:          -6.871
REMARK INTER:                  -6.593
REMARK INTRA:                  -0.278
REMARK UNBOUND:                -0.278
REMARK  Name = 
REMARK  4 active torsions:
REMARK  status: ('A' for Active; 'I' for Inactive)
REMARK    1  A    between atoms: N_1  and  C_2
REMARK    2  A    between atoms: C_2  and  C_3
REMARK    3  A    between atoms: C_6  and  C_7
REMARK    4  A    between atoms: C_8  and  C_9
REMARK                            x       y       z     vdW  Elec       q    Type
REMARK                         _______ _______ _______ _____ _____    ______ ____
ROOT
ATOM      1  C   UNL     1      44.978   4.290  10.139  0.00  0.00    +0.000 A 
ATOM      2  C   UNL     1      45.537   5.517  10.518  0.00  0.00    +0.000 A 
ATOM      3  C   UNL     1      46.000   5.723  11.821  0.00  0.00    +0.000 A 
ATOM      4  C   UNL     1      45.904   4.709  12.780  0.00  0.00    +0.000 A 
ATOM      5  C   UNL     1      45.350   3.479  12.400  0.00  0.00    +0.000 A 
ATOM      6  C   UNL     1      44.886   3.272  11.094  0.00  0.00    +0.000 A 
ENDROOT
BRANCH   4   7
ATOM      7  C   UNL     1      46.439   4.855  14.143  0.00  0.00    +0.000 C 
ATOM      8  C   UNL     1      47.129   3.908  14.800  0.00  0.00    +0.000 C 
BRANCH   8   9
ATOM      9  C   UNL     1      47.625   4.056  16.172  0.00  0.00    +0.000 A 
ATOM     10  C   UNL     1      47.606   3.052  17.126  0.00  0.00    +0.000 A 
ATOM     11  N   UNL     1      48.110   3.174  18.373  0.00  0.00    +0.000 NA
ATOM     12  C   UNL     1      48.671   4.358  18.658  0.00  0.00    +0.000 A 
ATOM     13  N   UNL     1      48.765   5.405  17.826  0.00  0.00    +0.000 NA
ATOM     14  C   UNL     1      48.240   5.221  16.595  0.00  0.00    +0.000 A 
ENDBRANCH   8   9
ENDBRANCH   4   7
BRANCH   1  15
ATOM     15  C   UNL     1      44.494   4.084   8.726  0.00  0.00    +0.000 C 
BRANCH  15  16
ATOM     16  N   UNL     1      45.599   4.135   7.775  0.00  0.00    +0.000 NA
ATOM     17  H   UNL     1      45.708   3.224   7.334  0.00  0.00    +0.000 HD
ATOM     18  H   UNL     1      46.461   4.319   8.284  0.00  0.00    +0.000 HD
ENDBRANCH  15  16
ENDBRANCH   1  15
TORSDOF 4
ENDMDL
MODEL 2
REMARK VINA RESULT:    -5.173      1.444      7.473
REMARK INTER + INTRA:          -6.510
REMARK INTER:                  -6.246
REMARK INTRA:                  -0.264
REMARK UNBOUND:                -0.278
REMARK  Name = 
REMARK  4 active torsions:
REMARK  status: ('A' for Active; 'I' for Inactive)
REMARK    1  A    between atoms: N_1  and  C_2
REMARK    2  A    between atoms: C_2  and  C_3
REMARK    3  A    between atoms: C_6  and  C_7
REMARK    4  A    between atoms: C_8  and  C_9
REMARK                            x       y       z     vdW  Elec       q    Type
REMARK                         _______ _______ _______ _____ _____    ______ ____
ROOT
ATOM      1  C   UNL     1      48.541   4.527  18.387  0.00  0.00    +0.000 A 
ATOM      2  C   UNL     1      48.614   5.581  17.468  0.00  0.00    +0.000 A 
ATOM      3  C   UNL     1      48.160   5.422  16.155  0.00  0.00    +0.000 A 
ATOM      4  C   UNL     1      47.634   4.198  15.728  0.00  0.00    +0.000 A 
ATOM      5  C   UNL     1      47.555   3.144  16.648  0.00  0.00    +0.000 A 
ATOM      6  C   UNL     1      48.010   3.304  17.964  0.00  0.00    +0.000 A 
ENDROOT
BRANCH   4   7
ATOM      7  C   UNL     1      47.081   4.004  14.377  0.00  0.00    +0.000 C 
ATOM      8  C   UNL     1      46.042   4.688  13.870  0.00  0.00    +0.000 C 
BRANCH   8   9
ATOM      9  C   UNL     1      45.480   4.457  12.535  0.00  0.00    +0.000 A 
ATOM     10  C   UNL     1      44.652   3.397  12.205  0.00  0.00    +0.000 A 
ATOM     11  N   UNL     1      44.094   3.213  10.989  0.00  0.00    +0.000 NA
ATOM     12  C   UNL     1      44.374   4.153  10.075  0.00  0.00    +0.000 A 
ATOM     13  N   UNL     1      45.148   5.232  10.267  0.00  0.00    +0.000 NA
ATOM     14  C   UNL     1      45.679   5.357  11.503  0.00  0.00    +0.000 A 
ENDBRANCH   8   9
ENDBRANCH   4   7
BRANCH   1  15
ATOM     15  C   UNL     1      49.026   4.722  19.801  0.00  0.00    +0.000 C 
BRANCH  15  16
ATOM     16  N   UNL     1      48.387   3.781  20.714  0.00  0.00    +0.000 NA
ATOM     17  H   UNL     1      48.783   2.854  20.575  0.00  0.00    +0.000 HD
ATOM     18  H   UNL     1      47.399   3.716  20.479  0.00  0.00    +0.000 HD
ENDBRANCH  15  16
ENDBRANCH   1  15
TORSDOF 4
ENDMDL
MODEL 3
REMARK VINA RESULT:    -4.973      4.246      6.689
REMARK INTER + INTRA:          -6.269
REMARK INTER:                  -5.992
REMARK INTRA:                  -0.276
REMARK UNBOUND:                -0.278
REMARK  Name = 
REMARK  4 active torsions:
REMARK  status: ('A' for Active; 'I' for Inactive)
REMARK    1  A    between atoms: N_1  and  C_2
REMARK    2  A    between atoms: C_2  and  C_3
REMARK    3  A    between atoms: C_6  and  C_7
REMARK    4  A    between atoms: C_8  and  C_9
REMARK                            x       y       z     vdW  Elec       q    Type
REMARK                         _______ _______ _______ _____ _____    ______ ____
ROOT
ATOM      1  C   UNL     1      49.533   9.784  11.656  0.00  0.00    +0.000 A 
ATOM      2  C   UNL     1      50.045   8.484  11.558  0.00  0.00    +0.000 A 
ATOM      3  C   UNL     1      49.220   7.371  11.744  0.00  0.00    +0.000 A 
ATOM      4  C   UNL     1      47.863   7.533  12.047  0.00  0.00    +0.000 A 
ATOM      5  C   UNL     1      47.349   8.834  12.141  0.00  0.00    +0.000 A 
ATOM      6  C   UNL     1      48.176   9.949  11.953  0.00  0.00    +0.000 A 
ENDROOT
BRANCH   4   7
ATOM      7  C   UNL     1      46.942   6.393  12.185  0.00  0.00    +0.000 C 
ATOM      8  C   UNL     1      45.953   6.101  11.323  0.00  0.00    +0.000 C 
BRANCH   8   9
ATOM      9  C   UNL     1      45.021   4.982  11.493  0.00  0.00    +0.000 A 
ATOM     10  C   UNL     1      44.468   4.256  10.452  0.00  0.00    +0.000 A 
ATOM     11  N   UNL     1      43.650   3.194  10.610  0.00  0.00    +0.000 NA
ATOM     12  C   UNL     1      43.395   2.843  11.879  0.00  0.00    +0.000 A 
ATOM     13  N   UNL     1      43.873   3.451  12.975  0.00  0.00    +0.000 NA
ATOM     14  C   UNL     1      44.684   4.508  12.749  0.00  0.00    +0.000 A 
ENDBRANCH   8   9
ENDBRANCH   4   7
BRANCH   1  15
ATOM     15  C   UNL     1      50.437  10.970  11.441  0.00  0.00    +0.000 C 
BRANCH  15  16
ATOM     16  N   UNL     1      51.246  10.808  10.238  0.00  0.00    +0.000 NA
ATOM     17  H   UNL     1      51.212   9.836   9.936  0.00  0.00    +0.000 HD
ATOM     18  H   UNL     1      52.218  11.010  10.467  0.00  0.00    +0.000 HD
ENDBRANCH  15  16
ENDBRANCH   1  15
TORSDOF 4
ENDMDL
MODEL 4
REMARK VINA RESULT:    -4.922      4.186      6.773
REMARK INTER + INTRA:          -6.208
REMARK INTER:                  -5.939
REMARK INTRA:                  -0.269
REMARK UNBOUND:                -0.278
REMARK  Name = 
REMARK  4 active torsions:
REMARK  status: ('A' for Active; 'I' for Inactive)
REMARK    1  A    between atoms: N_1  and  C_2
REMARK    2  A    between atoms: C_2  and  C_3
REMARK    3  A    between atoms: C_6  and  C_7
REMARK    4  A    between atoms: C_8  and  C_9
REMARK                            x       y       z     vdW  Elec       q    Type
REMARK                         _______ _______ _______ _____ _____    ______ ____
ROOT
ATOM      1  C   UNL     1      49.408   9.965  11.733  0.00  0.00    +0.000 A 
ATOM      2  C   UNL     1      48.061  10.224  12.016  0.00  0.00    +0.000 A 
ATOM      3  C   UNL     1      47.142   9.179  12.148  0.00  0.00    +0.000 A 
ATOM      4  C   UNL     1      47.547   7.850  11.987  0.00  0.00    +0.000 A 
ATOM      5  C   UNL     1      48.896   7.590  11.709  0.00  0.00    +0.000 A 
ATOM      6  C   UNL     1      49.817   8.636  11.577  0.00  0.00    +0.000 A 
ENDROOT
BRANCH   4   7
ATOM      7  C   UNL     1      46.631   6.714  12.184  0.00  0.00    +0.000 C 
ATOM      8  C   UNL     1      45.991   6.067  11.196  0.00  0.00    +0.000 C 
BRANCH   8   9
ATOM      9  C   UNL     1      45.054   4.960  11.412  0.00  0.00    +0.000 A 
ATOM     10  C   UNL     1      44.289   4.374  10.417  0.00  0.00    +0.000 A 
ATOM     11  N   UNL     1      43.464   3.322  10.607  0.00  0.00    +0.000 NA
ATOM     12  C   UNL     1      43.426   2.833  11.854  0.00  0.00    +0.000 A 
ATOM     13  N   UNL     1      44.122   3.297  12.903  0.00  0.00    +0.000 NA
ATOM     14  C   UNL     1      44.927   4.353  12.649  0.00  0.00    +0.000 A 
ENDBRANCH   8   9
ENDBRANCH   4   7
BRANCH   1  15
ATOM     15  C   UNL     1      50.386  11.105  11.604  0.00  0.00    +0.000 C 
BRANCH  15  16
ATOM     16  N   UNL     1      51.754  10.658  11.839  0.00  0.00    +0.000 NA
ATOM     17  H   UNL     1      52.356  11.006  11.095  0.00  0.00    +0.000 HD
ATOM     18  H   UNL     1      51.780   9.642  11.786  0.00  0.00    +0.000 HD
ENDBRANCH  15  16
ENDBRANCH   1  15
TORSDOF 4
ENDMDL
MODEL 5
REMARK VINA RESULT:    -4.817      4.078      5.321
REMARK INTER + INTRA:          -6.081
REMARK INTER:                  -5.810
REMARK INTRA:                  -0.272
REMARK UNBOUND:                -0.278
REMARK  Name = 
REMARK  4 active torsions:
REMARK  status: ('A' for Active; 'I' for Inactive)
REMARK    1  A    between atoms: N_1  and  C_2
REMARK    2  A    between atoms: C_2  and  C_3
REMARK    3  A    between atoms: C_6  and  C_7
REMARK    4  A    between atoms: C_8  and  C_9
REMARK                            x       y       z     vdW  Elec       q    Type
REMARK                         _______ _______ _______ _____ _____    ______ ____
ROOT
ATOM      1  C   UNL     1      44.769   3.886  11.091  0.00  0.00    +0.000 A 
ATOM      2  C   UNL     1      45.255   3.898  12.405  0.00  0.00    +0.000 A 
ATOM      3  C   UNL     1      46.092   4.926  12.851  0.00  0.00    +0.000 A 
ATOM      4  C   UNL     1      46.473   5.959  11.988  0.00  0.00    +0.000 A 
ATOM      5  C   UNL     1      45.982   5.950  10.675  0.00  0.00    +0.000 A 
ATOM      6  C   UNL     1      45.143   4.921  10.228  0.00  0.00    +0.000 A 
ENDROOT
BRANCH   4   7
ATOM      7  C   UNL     1      47.295   7.097  12.431  0.00  0.00    +0.000 C 
ATOM      8  C   UNL     1      48.302   7.635  11.722  0.00  0.00    +0.000 C 
BRANCH   8   9
ATOM      9  C   UNL     1      49.135   8.746  12.193  0.00  0.00    +0.000 A 
ATOM     10  C   UNL     1      49.201   9.989  11.587  0.00  0.00    +0.000 A 
ATOM     11  N   UNL     1      49.929  11.028  12.051  0.00  0.00    +0.000 NA
ATOM     12  C   UNL     1      50.605  10.800  13.186  0.00  0.00    +0.000 A 
ATOM     13  N   UNL     1      50.618   9.651  13.878  0.00  0.00    +0.000 NA
ATOM     14  C   UNL     1      49.873   8.650  13.360  0.00  0.00    +0.000 A 
ENDBRANCH   8   9
ENDBRANCH   4   7
BRANCH   1  15
ATOM     15  C   UNL     1      43.859   2.775  10.633  0.00  0.00    +0.000 C 
BRANCH  15  16
ATOM     16  N   UNL     1      43.076   2.241  11.742  0.00  0.00    +0.000 NA
ATOM     17  H   UNL     1      43.697   1.778  12.402  0.00  0.00    +0.000 HD
ATOM     18  H   UNL     1      42.445   1.527  11.383  0.00  0.00    +0.000 HD
ENDBRANCH  15  16
ENDBRANCH   1  15
TORSDOF 4
ENDMDL
MODEL 6
REMARK VINA RESULT:    -4.467      2.639      3.354
REMARK INTER + INTRA:          -5.659
REMARK INTER:                  -5.401
REMARK INTRA:                  -0.258
REMARK UNBOUND:                -0.278
REMARK  Name = 
REMARK  4 active torsions:
REMARK  status: ('A' for Active; 'I' for Inactive)
REMARK    1  A    between atoms: N_1  and  C_2
REMARK    2  A    between atoms: C_2  and  C_3
REMARK    3  A    between atoms: C_6  and  C_7
REMARK    4  A    between atoms: C_8  and  C_9
REMARK                            x       y       z     vdW  Elec       q    Type
REMARK                         _______ _______ _______ _____ _____    ______ ____
ROOT
ATOM      1  C   UNL     1      44.960   3.866  10.103  0.00  0.00    +0.000 A 
ATOM      2  C   UNL     1      44.991   3.420  11.430  0.00  0.00    +0.000 A 
ATOM      3  C   UNL     1      45.514   4.227  12.446  0.00  0.00    +0.000 A 
ATOM      4  C   UNL     1      46.030   5.494  12.155  0.00  0.00    +0.000 A 
ATOM      5  C   UNL     1      45.994   5.943  10.828  0.00  0.00    +0.000 A 
ATOM      6  C   UNL     1      45.470   5.136   9.810  0.00  0.00    +0.000 A 
ENDROOT
BRANCH   4   7
ATOM      7  C   UNL     1      46.528   6.405  13.199  0.00  0.00    +0.000 C 
ATOM      8  C   UNL     1      47.825   6.600  13.490  0.00  0.00    +0.000 C 
BRANCH   8   9
ATOM      9  C   UNL     1      48.303   7.483  14.558  0.00  0.00    +0.000 A 
ATOM     10  C   UNL     1      49.001   7.057  15.675  0.00  0.00    +0.000 A 
ATOM     11  N   UNL     1      49.486   7.877  16.632  0.00  0.00    +0.000 NA
ATOM     12  C   UNL     1      49.267   9.186  16.439  0.00  0.00    +0.000 A 
ATOM     13  N   UNL     1      48.619   9.731  15.399  0.00  0.00    +0.000 NA
ATOM     14  C   UNL     1      48.156   8.857  14.478  0.00  0.00    +0.000 A 
ENDBRANCH   8   9
ENDBRANCH   4   7
BRANCH   1  15
ATOM     15  C   UNL     1      44.382   2.986   9.024  0.00  0.00    +0.000 C 
BRANCH  15  16
ATOM     16  N   UNL     1      44.807   1.600   9.188  0.00  0.00    +0.000 NA
ATOM     17  H   UNL     1      44.053   0.980   8.901  0.00  0.00    +0.000 HD
ATOM     18  H   UNL     1      44.973   1.423  10.176  0.00  0.00    +0.000 HD
ENDBRANCH  15  16
ENDBRANCH   1  15
TORSDOF 4
ENDMDL
MODEL 7
REMARK VINA RESULT:    -4.418      4.424      7.013
REMARK INTER + INTRA:          -5.601
REMARK INTER:                  -5.331
REMARK INTRA:                  -0.270
REMARK UNBOUND:                -0.278
REMARK  Name = 
REMARK  4 active torsions:
REMARK  status: ('A' for Active; 'I' for Inactive)
REMARK    1  A    between atoms: N_1  and  C_2
REMARK    2  A    between atoms: C_2  and  C_3
REMARK    3  A    between atoms: C_6  and  C_7
REMARK    4  A    between atoms: C_8  and  C_9
REMARK                            x       y       z     vdW  Elec       q    Type
REMARK                         _______ _______ _______ _____ _____    ______ ____
ROOT
ATOM      1  C   UNL     1      51.211   8.536  12.679  0.00  0.00    +0.000 A 
ATOM      2  C   UNL     1      50.507   8.324  11.488  0.00  0.00    +0.000 A 
ATOM      3  C   UNL     1      49.252   7.707  11.495  0.00  0.00    +0.000 A 
ATOM      4  C   UNL     1      48.679   7.275  12.696  0.00  0.00    +0.000 A 
ATOM      5  C   UNL     1      49.381   7.491  13.889  0.00  0.00    +0.000 A 
ATOM      6  C   UNL     1      50.637   8.110  13.882  0.00  0.00    +0.000 A 
ENDROOT
BRANCH   4   7
ATOM      7  C   UNL     1      47.332   6.683  12.761  0.00  0.00    +0.000 C 
ATOM      8  C   UNL     1      46.619   6.284  11.694  0.00  0.00    +0.000 C 
BRANCH   8   9
ATOM      9  C   UNL     1      45.265   5.730  11.774  0.00  0.00    +0.000 A 
ATOM     10  C   UNL     1      44.466   5.768  12.904  0.00  0.00    +0.000 A 
ATOM     11  N   UNL     1      43.199   5.304  12.962  0.00  0.00    +0.000 NA
ATOM     12  C   UNL     1      42.717   4.793  11.820  0.00  0.00    +0.000 A 
ATOM     13  N   UNL     1      43.378   4.706  10.656  0.00  0.00    +0.000 NA
ATOM     14  C   UNL     1      44.641   5.186  10.664  0.00  0.00    +0.000 A 
ENDBRANCH   8   9
ENDBRANCH   4   7
BRANCH   1  15
ATOM     15  C   UNL     1      52.558   9.212  12.651  0.00  0.00    +0.000 C 
BRANCH  15  16
ATOM     16  N   UNL     1      52.590  10.286  11.664  0.00  0.00    +0.000 NA
ATOM     17  H   UNL     1      52.790   9.894  10.746  0.00  0.00    +0.000 HD
ATOM     18  H   UNL     1      53.360  10.914  11.888  0.00  0.00    +0.000 HD
ENDBRANCH  15  16
ENDBRANCH   1  15
TORSDOF 4
ENDMDL
MODEL 8
REMARK VINA RESULT:    -4.103      5.100      6.873
REMARK INTER + INTRA:          -5.221
REMARK INTER:                  -4.958
REMARK INTRA:                  -0.263
REMARK UNBOUND:                -0.278
REMARK  Name = 
REMARK  4 active torsions:
REMARK  status: ('A' for Active; 'I' for Inactive)
REMARK    1  A    between atoms: N_1  and  C_2
REMARK    2  A    between atoms: C_2  and  C_3
REMARK    3  A    between atoms: C_6  and  C_7
REMARK    4  A    between atoms: C_8  and  C_9
REMARK                            x       y       z     vdW  Elec       q    Type
REMARK                         _______ _______ _______ _____ _____    ______ ____
ROOT
ATOM      1  C   UNL     1      51.423   9.836  11.367  0.00  0.00    +0.000 A 
ATOM      2  C   UNL     1      50.170  10.425  11.573  0.00  0.00    +0.000 A 
ATOM      3  C   UNL     1      49.016   9.642  11.667  0.00  0.00    +0.000 A 
ATOM      4  C   UNL     1      49.088   8.250  11.545  0.00  0.00    +0.000 A 
ATOM      5  C   UNL     1      50.343   7.660  11.344  0.00  0.00    +0.000 A 
ATOM      6  C   UNL     1      51.499   8.444  11.250  0.00  0.00    +0.000 A 
ENDROOT
BRANCH   4   7
ATOM      7  C   UNL     1      47.911   7.380  11.705  0.00  0.00    +0.000 C 
ATOM      8  C   UNL     1      47.334   7.083  12.881  0.00  0.00    +0.000 C 
BRANCH   8   9
ATOM      9  C   UNL     1      46.184   6.186  13.028  0.00  0.00    +0.000 A 
ATOM     10  C   UNL     1      44.903   6.472  12.585  0.00  0.00    +0.000 A 
ATOM     11  N   UNL     1      43.856   5.624  12.673  0.00  0.00    +0.000 NA
ATOM     12  C   UNL     1      44.123   4.429  13.220  0.00  0.00    +0.000 A 
ATOM     13  N   UNL     1      45.316   4.021  13.676  0.00  0.00    +0.000 NA
ATOM     14  C   UNL     1      46.322   4.916  13.561  0.00  0.00    +0.000 A 
ENDBRANCH   8   9
ENDBRANCH   4   7
BRANCH   1  15
ATOM     15  C   UNL     1      52.657  10.698  11.279  0.00  0.00    +0.000 C 
BRANCH  15  16
ATOM     16  N   UNL     1      53.770  10.105  12.013  0.00  0.00    +0.000 NA
ATOM     17  H   UNL     1      53.553  10.098  13.008  0.00  0.00    +0.000 HD
ATOM     18  H   UNL     1      54.591  10.697  11.897  0.00  0.00    +0.000 HD
ENDBRANCH  15  16
ENDBRANCH   1  15
TORSDOF 4
ENDMDL
MODEL 9
REMARK VINA RESULT:    -3.853      9.848     11.887
REMARK INTER + INTRA:          -4.920
REMARK INTER:                  -4.644
REMARK INTRA:                  -0.276
REMARK UNBOUND:                -0.278
REMARK  Name = 
REMARK  4 active torsions:
REMARK  status: ('A' for Active; 'I' for Inactive)
REMARK    1  A    between atoms: N_1  and  C_2
REMARK    2  A    between atoms: C_2  and  C_3
REMARK    3  A    between atoms: C_6  and  C_7
REMARK    4  A    between atoms: C_8  and  C_9
REMARK                            x       y       z     vdW  Elec       q    Type
REMARK                         _______ _______ _______ _____ _____    ______ ____
ROOT
ATOM      1  C   UNL     1      45.787  -6.664  17.858  0.00  0.00    +0.000 A 
ATOM      2  C   UNL     1      44.660  -7.014  17.104  0.00  0.00    +0.000 A 
ATOM      3  C   UNL     1      43.549  -6.168  17.040  0.00  0.00    +0.000 A 
ATOM      4  C   UNL     1      43.534  -4.957  17.740  0.00  0.00    +0.000 A 
ATOM      5  C   UNL     1      44.664  -4.604  18.490  0.00  0.00    +0.000 A 
ATOM      6  C   UNL     1      45.778  -5.451  18.554  0.00  0.00    +0.000 A 
ENDROOT
BRANCH   4   7
ATOM      7  C   UNL     1      42.416  -4.003  17.647  0.00  0.00    +0.000 C 
ATOM      8  C   UNL     1      41.754  -3.708  16.516  0.00  0.00    +0.000 C 
BRANCH   8   9
ATOM      9  C   UNL     1      40.666  -2.728  16.434  0.00  0.00    +0.000 A 
ATOM     10  C   UNL     1      40.116  -2.073  17.524  0.00  0.00    +0.000 A 
ATOM     11  N   UNL     1      39.150  -1.134  17.443  0.00  0.00    +0.000 NA
ATOM     12  C   UNL     1      38.735  -0.834  16.204  0.00  0.00    +0.000 A 
ATOM     13  N   UNL     1      39.191  -1.383  15.067  0.00  0.00    +0.000 NA
ATOM     14  C   UNL     1      40.155  -2.318  15.216  0.00  0.00    +0.000 A 
ENDBRANCH   8   9
ENDBRANCH   4   7
BRANCH   1  15
ATOM     15  C   UNL     1      46.980  -7.585  17.906  0.00  0.00    +0.000 C 
BRANCH  15  16
ATOM     16  N   UNL     1      48.129  -6.931  18.522  0.00  0.00    +0.000 NA
ATOM     17  H   UNL     1      48.310  -7.353  19.431  0.00  0.00    +0.000 HD
ATOM     18  H   UNL     1      47.897  -5.955  18.693  0.00  0.00    +0.000 HD
ENDBRANCH  15  16
ENDBRANCH   1  15
TORSDOF 4
ENDMDL
