MODEL 1
REMARK VINA RESULT:    -6.679      0.000      0.000
REMARK INTER + INTRA:          -8.765
REMARK INTER:                  -8.436
REMARK INTRA:                  -0.329
REMARK UNBOUND:                -0.329
REMARK  Name = 
REMARK  5 active torsions:
REMARK  status: ('A' for Active; 'I' for Inactive)
REMARK    1  A    between atoms: N_1  and  C_2
REMARK    2  A    between atoms: C_2  and  C_3
REMARK    3  A    between atoms: C_6  and  O_7
REMARK    4  A    between atoms: O_7  and  C_8
REMARK    5  A    between atoms: C_8  and  C_9
REMARK                            x       y       z     vdW  Elec       q    Type
REMARK                         _______ _______ _______ _____ _____    ______ ____
ROOT
ATOM      1  C   UNL     1      46.401   2.091   7.780  0.00  0.00    +0.000 A 
ATOM      2  C   UNL     1      46.381   3.442   7.432  0.00  0.00    +0.000 A 
ATOM      3  N   UNL     1      45.567   4.354   8.025  0.00  0.00    +0.000 NA
ATOM      4  C   UNL     1      44.767   3.856   8.994  0.00  0.00    +0.000 A 
ATOM      5  C   UNL     1      44.793   2.517   9.356  0.00  0.00    +0.000 A 
ATOM      6  N   UNL     1      45.604   1.605   8.764  0.00  0.00    +0.000 NA
ENDROOT
BRANCH   1   7
ATOM      7  C   UNL     1      47.288   1.115   7.045  0.00  0.00    +0.000 C 
BRANCH   7   8
ATOM      8  N   UNL     1      48.275   1.766   6.180  0.00  0.00    +0.000 NA
ATOM      9  H   UNL     1      47.806   2.071   5.327  0.00  0.00    +0.000 HD
ATOM     10  H   UNL     1      48.952   1.062   5.882  0.00  0.00    +0.000 HD
ENDBRANCH   7   8
ENDBRANCH   1   7
BRANCH   4  11
ATOM     11  O   UNL     1      43.879   4.665   9.668  0.00  0.00    +0.000 OA
BRANCH  11  12
ATOM     12  C   UNL     1      43.436   4.141  10.922  0.00  0.00    +0.000 C 
BRANCH  12  13
ATOM     13  C   UNL     1      44.094   4.977  12.031  0.00  0.00    +0.000 C 
ATOM     14  C   UNL     1      44.524   6.359  11.512  0.00  0.00    +0.000 C 
ATOM     15  C   UNL     1      45.310   7.125  12.569  0.00  0.00    +0.000 C 
ATOM     16  O   UNL     1      46.426   6.361  13.019  0.00  0.00    +0.000 OA
ATOM     17  C   UNL     1      46.025   5.141  13.639  0.00  0.00    +0.000 C 
ATOM     18  C   UNL     1      45.293   4.247  12.647  0.00  0.00    +0.000 C 
ENDBRANCH  12  13
ENDBRANCH  11  12
ENDBRANCH   4  11
TORSDOF 5
ENDMDL
MODEL 2
REMARK VINA RESULT:    -6.659      2.823      5.912
REMARK INTER + INTRA:          -8.740
REMARK INTER:                  -8.602
REMARK INTRA:                  -0.138
REMARK UNBOUND:                -0.329
REMARK  Name = 
REMARK  5 active torsions:
REMARK  status: ('A' for Active; 'I' for Inactive)
REMARK    1  A    between atoms: N_1  and  C_2
REMARK    2  A    between atoms: C_2  and  C_3
REMARK    3  A    between atoms: C_6  and  O_7
REMARK    4  A    between atoms: O_7  and  C_8
REMARK    5  A    between atoms: C_8  and  C_9
REMARK                            x       y       z     vdW  Elec       q    Type
REMARK                         _______ _______ _______ _____ _____    ______ ____
ROOT
ATOM      1  C   UNL     1      46.054   4.573  13.049  0.00  0.00    +0.000 A 
ATOM      2  C   UNL     1      45.921   5.510  12.024  0.00  0.00    +0.000 A 
ATOM      3  N   UNL     1      45.382   5.220  10.811  0.00  0.00    +0.000 NA
ATOM      4  C   UNL     1      44.971   3.940  10.665  0.00  0.00    +0.000 A 
ATOM      5  C   UNL     1      45.084   3.008  11.685  0.00  0.00    +0.000 A 
ATOM      6  N   UNL     1      45.625   3.295  12.895  0.00  0.00    +0.000 NA
ENDROOT
BRANCH   1   7
ATOM      7  C   UNL     1      46.715   4.943  14.355  0.00  0.00    +0.000 C 
BRANCH   7   8
ATOM      8  N   UNL     1      47.275   3.793  15.068  0.00  0.00    +0.000 NA
ATOM      9  H   UNL     1      48.085   4.108  15.602  0.00  0.00    +0.000 HD
ATOM     10  H   UNL     1      47.643   3.137  14.378  0.00  0.00    +0.000 HD
ENDBRANCH   7   8
ENDBRANCH   1   7
BRANCH   4  11
ATOM     11  O   UNL     1      44.419   3.503   9.481  0.00  0.00    +0.000 OA
BRANCH  11  12
ATOM     12  C   UNL     1      44.974   4.107   8.311  0.00  0.00    +0.000 C 
BRANCH  12  13
ATOM     13  C   UNL     1      45.625   2.991   7.477  0.00  0.00    +0.000 C 
ATOM     14  C   UNL     1      46.036   1.800   8.358  0.00  0.00    +0.000 C 
ATOM     15  C   UNL     1      46.815   0.765   7.557  0.00  0.00    +0.000 C 
ATOM     16  O   UNL     1      47.943   1.363   6.923  0.00  0.00    +0.000 OA
ATOM     17  C   UNL     1      47.559   2.371   5.989  0.00  0.00    +0.000 C 
ATOM     18  C   UNL     1      46.836   3.511   6.694  0.00  0.00    +0.000 C 
ENDBRANCH  12  13
ENDBRANCH  11  12
ENDBRANCH   4  11
TORSDOF 5
ENDMDL
MODEL 3
REMARK VINA RESULT:    -5.937      2.906      5.874
REMARK INTER + INTRA:          -7.827
REMARK INTER:                  -7.537
REMARK INTRA:                  -0.290
REMARK UNBOUND:                -0.329
REMARK  Name = 
REMARK  5 active torsions:
REMARK  status: ('A' for Active; 'I' for Inactive)
REMARK    1  A    between atoms: N_1  and  C_2
REMARK    2  A    between atoms: C_2  and  C_3
REMARK    3  A    between atoms: C_6  and  O_7
REMARK    4  A    between atoms: O_7  and  C_8
REMARK    5  A    between atoms: C_8  and  C_9
REMARK                            x       y       z     vdW  Elec       q    Type
REMARK                         _______ _______ _______ _____ _____    ______ ____
ROOT
ATOM      1  C   UNL     1      46.580   4.704  13.721  0.00  0.00    +0.000 A 
ATOM      2  C   UNL     1      46.038   3.539  13.177  0.00  0.00    +0.000 A 
ATOM      3  N   UNL     1      45.400   3.500  11.978  0.00  0.00    +0.000 NA
ATOM      4  C   UNL     1      45.329   4.687  11.335  0.00  0.00    +0.000 A 
ATOM      5  C   UNL     1      45.880   5.846  11.862  0.00  0.00    +0.000 A 
ATOM      6  N   UNL     1      46.515   5.887  13.059  0.00  0.00    +0.000 NA
ENDROOT
BRANCH   1   7
ATOM      7  C   UNL     1      47.227   4.694  15.085  0.00  0.00    +0.000 C 
BRANCH   7   8
ATOM      8  N   UNL     1      47.572   3.350  15.554  0.00  0.00    +0.000 NA
ATOM      9  H   UNL     1      47.724   2.753  14.740  0.00  0.00    +0.000 HD
ATOM     10  H   UNL     1      46.757   2.959  16.029  0.00  0.00    +0.000 HD
ENDBRANCH   7   8
ENDBRANCH   1   7
BRANCH   4  11
ATOM     11  O   UNL     1      44.696   4.797  10.117  0.00  0.00    +0.000 OA
BRANCH  11  12
ATOM     12  C   UNL     1      44.083   3.590   9.658  0.00  0.00    +0.000 C 
BRANCH  12  13
ATOM     13  C   UNL     1      44.890   3.092   8.448  0.00  0.00    +0.000 C 
ATOM     14  C   UNL     1      45.645   1.793   8.772  0.00  0.00    +0.000 C 
ATOM     15  C   UNL     1      46.560   1.386   7.625  0.00  0.00    +0.000 C 
ATOM     16  O   UNL     1      47.455   2.446   7.294  0.00  0.00    +0.000 OA
ATOM     17  C   UNL     1      46.763   3.610   6.847  0.00  0.00    +0.000 C 
ATOM     18  C   UNL     1      45.868   4.162   7.948  0.00  0.00    +0.000 C 
ENDBRANCH  12  13
ENDBRANCH  11  12
ENDBRANCH   4  11
TORSDOF 5
ENDMDL
MODEL 4
REMARK VINA RESULT:    -5.865      2.853      6.267
REMARK INTER + INTRA:          -7.737
REMARK INTER:                  -7.627
REMARK INTRA:                  -0.110
REMARK UNBOUND:                -0.329
REMARK  Name = 
REMARK  5 active torsions:
REMARK  status: ('A' for Active; 'I' for Inactive)
REMARK    1  A    between atoms: N_1  and  C_2
REMARK    2  A    between atoms: C_2  and  C_3
REMARK    3  A    between atoms: C_6  and  O_7
REMARK    4  A    between atoms: O_7  and  C_8
REMARK    5  A    between atoms: C_8  and  C_9
REMARK                            x       y       z     vdW  Elec       q    Type
REMARK                         _______ _______ _______ _____ _____    ______ ____
ROOT
ATOM      1  C   UNL     1      45.190   6.816  12.081  0.00  0.00    +0.000 A 
ATOM      2  C   UNL     1      44.199   5.908  12.454  0.00  0.00    +0.000 A 
ATOM      3  N   UNL     1      43.907   4.787  11.743  0.00  0.00    +0.000 NA
ATOM      4  C   UNL     1      44.659   4.607  10.634  0.00  0.00    +0.000 A 
ATOM      5  C   UNL     1      45.658   5.497  10.267  0.00  0.00    +0.000 A 
ATOM      6  N   UNL     1      45.948   6.617  10.974  0.00  0.00    +0.000 NA
ENDROOT
BRANCH   1   7
ATOM      7  C   UNL     1      45.429   8.074  12.882  0.00  0.00    +0.000 C 
BRANCH   7   8
ATOM      8  N   UNL     1      44.641   9.217  12.416  0.00  0.00    +0.000 NA
ATOM      9  H   UNL     1      45.047   9.555  11.543  0.00  0.00    +0.000 HD
ATOM     10  H   UNL     1      44.759   9.980  13.084  0.00  0.00    +0.000 HD
ENDBRANCH   7   8
ENDBRANCH   1   7
BRANCH   4  11
ATOM     11  O   UNL     1      44.461   3.520   9.811  0.00  0.00    +0.000 OA
BRANCH  11  12
ATOM     12  C   UNL     1      44.728   3.770   8.429  0.00  0.00    +0.000 C 
BRANCH  12  13
ATOM     13  C   UNL     1      45.990   2.977   8.051  0.00  0.00    +0.000 C 
ATOM     14  C   UNL     1      46.448   3.299   6.620  0.00  0.00    +0.000 C 
ATOM     15  C   UNL     1      47.604   2.402   6.195  0.00  0.00    +0.000 C 
ATOM     16  O   UNL     1      47.254   1.028   6.338  0.00  0.00    +0.000 OA
ATOM     17  C   UNL     1      46.972   0.686   7.694  0.00  0.00    +0.000 C 
ATOM     18  C   UNL     1      45.771   1.467   8.208  0.00  0.00    +0.000 C 
ENDBRANCH  12  13
ENDBRANCH  11  12
ENDBRANCH   4  11
TORSDOF 5
ENDMDL
MODEL 5
REMARK VINA RESULT:    -5.351      5.182      7.936
REMARK INTER + INTRA:          -7.087
REMARK INTER:                  -6.845
REMARK INTRA:                  -0.242
REMARK UNBOUND:                -0.329
REMARK  Name = 
REMARK  5 active torsions:
REMARK  status: ('A' for Active; 'I' for Inactive)
REMARK    1  A    between atoms: N_1  and  C_2
REMARK    2  A    between atoms: C_2  and  C_3
REMARK    3  A    between atoms: C_6  and  O_7
REMARK    4  A    between atoms: O_7  and  C_8
REMARK    5  A    between atoms: C_8  and  C_9
REMARK                            x       y       z     vdW  Elec       q    Type
REMARK                         _______ _______ _______ _____ _____    ______ ____
ROOT
ATOM      1  C   UNL     1      48.112   4.794  18.100  0.00  0.00    +0.000 A 
ATOM      2  C   UNL     1      47.296   3.682  17.886  0.00  0.00    +0.000 A 
ATOM      3  N   UNL     1      46.822   3.329  16.663  0.00  0.00    +0.000 NA
ATOM      4  C   UNL     1      47.204   4.139  15.650  0.00  0.00    +0.000 A 
ATOM      5  C   UNL     1      48.029   5.235  15.854  0.00  0.00    +0.000 A 
ATOM      6  N   UNL     1      48.501   5.590  17.074  0.00  0.00    +0.000 NA
ENDROOT
BRANCH   1   7
ATOM      7  C   UNL     1      48.561   5.167  19.493  0.00  0.00    +0.000 C 
BRANCH   7   8
ATOM      8  N   UNL     1      48.575   4.035  20.422  0.00  0.00    +0.000 NA
ATOM      9  H   UNL     1      49.545   3.809  20.642  0.00  0.00    +0.000 HD
ATOM     10  H   UNL     1      48.209   3.216  19.933  0.00  0.00    +0.000 HD
ENDBRANCH   7   8
ENDBRANCH   1   7
BRANCH   4  11
ATOM     11  O   UNL     1      46.784   3.908  14.359  0.00  0.00    +0.000 OA
BRANCH  11  12
ATOM     12  C   UNL     1      46.132   5.020  13.742  0.00  0.00    +0.000 C 
BRANCH  12  13
ATOM     13  C   UNL     1      44.754   4.540  13.259  0.00  0.00    +0.000 C 
ATOM     14  C   UNL     1      44.882   3.362  12.279  0.00  0.00    +0.000 C 
ATOM     15  C   UNL     1      43.529   2.989  11.686  0.00  0.00    +0.000 C 
ATOM     16  O   UNL     1      42.919   4.121  11.071  0.00  0.00    +0.000 OA
ATOM     17  C   UNL     1      42.659   5.164  12.009  0.00  0.00    +0.000 C 
ATOM     18  C   UNL     1      43.957   5.680  12.614  0.00  0.00    +0.000 C 
ENDBRANCH  12  13
ENDBRANCH  11  12
ENDBRANCH   4  11
TORSDOF 5
ENDMDL
MODEL 6
REMARK VINA RESULT:    -5.309      4.162      6.332
REMARK INTER + INTRA:          -7.034
REMARK INTER:                  -6.772
REMARK INTRA:                  -0.262
REMARK UNBOUND:                -0.329
REMARK  Name = 
REMARK  5 active torsions:
REMARK  status: ('A' for Active; 'I' for Inactive)
REMARK    1  A    between atoms: N_1  and  C_2
REMARK    2  A    between atoms: C_2  and  C_3
REMARK    3  A    between atoms: C_6  and  O_7
REMARK    4  A    between atoms: O_7  and  C_8
REMARK    5  A    between atoms: C_8  and  C_9
REMARK                            x       y       z     vdW  Elec       q    Type
REMARK                         _______ _______ _______ _____ _____    ______ ____
ROOT
ATOM      1  C   UNL     1      44.383   4.737  11.956  0.00  0.00    +0.000 A 
ATOM      2  C   UNL     1      44.854   3.424  11.986  0.00  0.00    +0.000 A 
ATOM      3  N   UNL     1      45.817   2.995  12.845  0.00  0.00    +0.000 NA
ATOM      4  C   UNL     1      46.291   3.943  13.684  0.00  0.00    +0.000 A 
ATOM      5  C   UNL     1      45.815   5.245  13.671  0.00  0.00    +0.000 A 
ATOM      6  N   UNL     1      44.856   5.675  12.814  0.00  0.00    +0.000 NA
ENDROOT
BRANCH   1   7
ATOM      7  C   UNL     1      43.351   5.165  10.940  0.00  0.00    +0.000 C 
BRANCH   7   8
ATOM      8  N   UNL     1      42.267   5.963  11.515  0.00  0.00    +0.000 NA
ATOM      9  H   UNL     1      41.599   6.182  10.775  0.00  0.00    +0.000 HD
ATOM     10  H   UNL     1      42.652   6.863  11.807  0.00  0.00    +0.000 HD
ENDBRANCH   7   8
ENDBRANCH   1   7
BRANCH   4  11
ATOM     11  O   UNL     1      47.281   3.652  14.597  0.00  0.00    +0.000 OA
BRANCH  11  12
ATOM     12  C   UNL     1      47.145   4.325  15.850  0.00  0.00    +0.000 C 
BRANCH  12  13
ATOM     13  C   UNL     1      48.237   3.784  16.787  0.00  0.00    +0.000 C 
ATOM     14  C   UNL     1      49.346   4.823  17.017  0.00  0.00    +0.000 C 
ATOM     15  C   UNL     1      50.498   4.232  17.820  0.00  0.00    +0.000 C 
ATOM     16  O   UNL     1      51.001   3.057  17.188  0.00  0.00    +0.000 OA
ATOM     17  C   UNL     1      50.016   2.030  17.106  0.00  0.00    +0.000 C 
ATOM     18  C   UNL     1      48.839   2.479  16.252  0.00  0.00    +0.000 C 
ENDBRANCH  12  13
ENDBRANCH  11  12
ENDBRANCH   4  11
TORSDOF 5
ENDMDL
MODEL 7
REMARK VINA RESULT:    -5.191      3.652      6.594
REMARK INTER + INTRA:          -6.885
REMARK INTER:                  -6.568
REMARK INTRA:                  -0.317
REMARK UNBOUND:                -0.329
REMARK  Name = 
REMARK  5 active torsions:
REMARK  status: ('A' for Active; 'I' for Inactive)
REMARK    1  A    between atoms: N_1  and  C_2
REMARK    2  A    between atoms: C_2  and  C_3
REMARK    3  A    between atoms: C_6  and  O_7
REMARK    4  A    between atoms: O_7  and  C_8
REMARK    5  A    between atoms: C_8  and  C_9
REMARK                            x       y       z     vdW  Elec       q    Type
REMARK                         _______ _______ _______ _____ _____    ______ ____
ROOT
ATOM      1  C   UNL     1      47.587   7.630  13.911  0.00  0.00    +0.000 A 
ATOM      2  C   UNL     1      48.014   6.304  13.993  0.00  0.00    +0.000 A 
ATOM      3  N   UNL     1      47.384   5.276  13.366  0.00  0.00    +0.000 NA
ATOM      4  C   UNL     1      46.300   5.633  12.641  0.00  0.00    +0.000 A 
ATOM      5  C   UNL     1      45.880   6.951  12.541  0.00  0.00    +0.000 A 
ATOM      6  N   UNL     1      46.506   7.977  13.168  0.00  0.00    +0.000 NA
ENDROOT
BRANCH   1   7
ATOM      7  C   UNL     1      48.296   8.720  14.677  0.00  0.00    +0.000 C 
BRANCH   7   8
ATOM      8  N   UNL     1      47.515   9.242  15.801  0.00  0.00    +0.000 NA
ATOM      9  H   UNL     1      47.678   8.645  16.612  0.00  0.00    +0.000 HD
ATOM     10  H   UNL     1      46.524   9.134  15.579  0.00  0.00    +0.000 HD
ENDBRANCH   7   8
ENDBRANCH   1   7
BRANCH   4  11
ATOM     11  O   UNL     1      45.557   4.690  11.965  0.00  0.00    +0.000 OA
BRANCH  11  12
ATOM     12  C   UNL     1      44.601   5.235  11.052  0.00  0.00    +0.000 C 
BRANCH  12  13
ATOM     13  C   UNL     1      44.568   4.321   9.817  0.00  0.00    +0.000 C 
ATOM     14  C   UNL     1      44.651   2.838  10.213  0.00  0.00    +0.000 C 
ATOM     15  C   UNL     1      44.772   1.945   8.984  0.00  0.00    +0.000 C 
ATOM     16  O   UNL     1      45.883   2.338   8.183  0.00  0.00    +0.000 OA
ATOM     17  C   UNL     1      45.741   3.667   7.686  0.00  0.00    +0.000 C 
ATOM     18  C   UNL     1      45.691   4.668   8.832  0.00  0.00    +0.000 C 
ENDBRANCH  12  13
ENDBRANCH  11  12
ENDBRANCH   4  11
TORSDOF 5
ENDMDL
MODEL 8
REMARK VINA RESULT:    -5.182      3.431      5.194
REMARK INTER + INTRA:          -6.873
REMARK INTER:                  -6.650
REMARK INTRA:                  -0.224
REMARK UNBOUND:                -0.329
REMARK  Name = 
REMARK  5 active torsions:
REMARK  status: ('A' for Active; 'I' for Inactive)
REMARK    1  A    between atoms: N_1  and  C_2
REMARK    2  A    between atoms: C_2  and  C_3
REMARK    3  A    between atoms: C_6  and  O_7
REMARK    4  A    between atoms: O_7  and  C_8
REMARK    5  A    between atoms: C_8  and  C_9
REMARK                            x       y       z     vdW  Elec       q    Type
REMARK                         _______ _______ _______ _____ _____    ______ ____
ROOT
ATOM      1  C   UNL     1      44.881   4.316  10.569  0.00  0.00    +0.000 A 
ATOM      2  C   UNL     1      44.501   3.268  11.409  0.00  0.00    +0.000 A 
ATOM      3  N   UNL     1      44.812   3.219  12.730  0.00  0.00    +0.000 NA
ATOM      4  C   UNL     1      45.523   4.275  13.185  0.00  0.00    +0.000 A 
ATOM      5  C   UNL     1      45.890   5.328  12.360  0.00  0.00    +0.000 A 
ATOM      6  N   UNL     1      45.582   5.377  11.041  0.00  0.00    +0.000 NA
ENDROOT
BRANCH   1   7
ATOM      7  C   UNL     1      44.553   4.285   9.095  0.00  0.00    +0.000 C 
BRANCH   7   8
ATOM      8  N   UNL     1      45.591   4.889   8.257  0.00  0.00    +0.000 NA
ATOM      9  H   UNL     1      45.138   5.394   7.495  0.00  0.00    +0.000 HD
ATOM     10  H   UNL     1      46.118   4.137   7.810  0.00  0.00    +0.000 HD
ENDBRANCH   7   8
ENDBRANCH   1   7
BRANCH   4  11
ATOM     11  O   UNL     1      45.921   4.349  14.502  0.00  0.00    +0.000 OA
BRANCH  11  12
ATOM     12  C   UNL     1      47.292   4.709  14.686  0.00  0.00    +0.000 C 
BRANCH  12  13
ATOM     13  C   UNL     1      47.602   4.601  16.187  0.00  0.00    +0.000 C 
ATOM     14  C   UNL     1      48.717   5.573  16.602  0.00  0.00    +0.000 C 
ATOM     15  C   UNL     1      49.127   5.357  18.054  0.00  0.00    +0.000 C 
ATOM     16  O   UNL     1      49.504   4.000  18.273  0.00  0.00    +0.000 OA
ATOM     17  C   UNL     1      48.425   3.099  18.033  0.00  0.00    +0.000 C 
ATOM     18  C   UNL     1      47.978   3.167  16.579  0.00  0.00    +0.000 C 
ENDBRANCH  12  13
ENDBRANCH  11  12
ENDBRANCH   4  11
TORSDOF 5
ENDMDL
MODEL 9
REMARK VINA RESULT:    -4.978      4.061      6.314
REMARK INTER + INTRA:          -6.616
REMARK INTER:                  -6.324
REMARK INTRA:                  -0.293
REMARK UNBOUND:                -0.329
REMARK  Name = 
REMARK  5 active torsions:
REMARK  status: ('A' for Active; 'I' for Inactive)
REMARK    1  A    between atoms: N_1  and  C_2
REMARK    2  A    between atoms: C_2  and  C_3
REMARK    3  A    between atoms: C_6  and  O_7
REMARK    4  A    between atoms: O_7  and  C_8
REMARK    5  A    between atoms: C_8  and  C_9
REMARK                            x       y       z     vdW  Elec       q    Type
REMARK                         _______ _______ _______ _____ _____    ______ ____
ROOT
ATOM      1  C   UNL     1      44.232   4.823  12.125  0.00  0.00    +0.000 A 
ATOM      2  C   UNL     1      44.769   3.545  12.282  0.00  0.00    +0.000 A 
ATOM      3  N   UNL     1      45.869   3.285  13.037  0.00  0.00    +0.000 NA
ATOM      4  C   UNL     1      46.413   4.366  13.638  0.00  0.00    +0.000 A 
ATOM      5  C   UNL     1      45.874   5.637  13.499  0.00  0.00    +0.000 A 
ATOM      6  N   UNL     1      44.778   5.898  12.745  0.00  0.00    +0.000 NA
ENDROOT
BRANCH   1   7
ATOM      7  C   UNL     1      43.040   5.056  11.227  0.00  0.00    +0.000 C 
BRANCH   7   8
ATOM      8  N   UNL     1      42.139   6.101  11.718  0.00  0.00    +0.000 NA
ATOM      9  H   UNL     1      41.605   5.725  12.502  0.00  0.00    +0.000 HD
ATOM     10  H   UNL     1      41.451   6.297  10.990  0.00  0.00    +0.000 HD
ENDBRANCH   7   8
ENDBRANCH   1   7
BRANCH   4  11
ATOM     11  O   UNL     1      47.541   4.251  14.420  0.00  0.00    +0.000 OA
BRANCH  11  12
ATOM     12  C   UNL     1      47.284   3.899  15.781  0.00  0.00    +0.000 C 
BRANCH  12  13
ATOM     13  C   UNL     1      48.396   4.522  16.639  0.00  0.00    +0.000 C 
ATOM     14  C   UNL     1      48.088   4.392  18.140  0.00  0.00    +0.000 C 
ATOM     15  C   UNL     1      49.113   5.142  18.981  0.00  0.00    +0.000 C 
ATOM     16  O   UNL     1      49.193   6.507  18.577  0.00  0.00    +0.000 OA
ATOM     17  C   UNL     1      49.626   6.640  17.225  0.00  0.00    +0.000 C 
ATOM     18  C   UNL     1      48.629   5.993  16.274  0.00  0.00    +0.000 C 
ENDBRANCH  12  13
ENDBRANCH  11  12
ENDBRANCH   4  11
TORSDOF 5
ENDMDL
