MODEL 1
REMARK VINA RESULT:    -9.068      0.000      0.000
REMARK INTER + INTRA:         -11.883
REMARK INTER:                 -11.189
REMARK INTRA:                  -0.695
REMARK UNBOUND:                -0.695
REMARK  Name = 
REMARK  4 active torsions:
REMARK  status: ('A' for Active; 'I' for Inactive)
REMARK    1  A    between atoms: C_2  and  C_4
REMARK    2  A    between atoms: N_8  and  C_9
REMARK    3  A    between atoms: C_9  and  C_10
REMARK    4  A    between atoms: C_14  and  C_15
REMARK                            x       y       z     vdW  Elec       q    Type
REMARK                         _______ _______ _______ _____ _____    ______ ____
ROOT
ATOM      1  C   UNL     1      46.417   2.325   7.727  0.00  0.00    +0.000 A 
ATOM      2  C   UNL     1      45.534   1.888   8.683  0.00  0.00    +0.000 A 
ATOM      3  N   UNL     1      44.681   2.704   9.334  0.00  0.00    +0.000 NA
ATOM      4  C   UNL     1      44.720   4.010   9.027  0.00  0.00    +0.000 A 
ATOM      5  N   UNL     1      43.815   4.878   9.604  0.00  0.00    +0.000 N 
ATOM      6  N   UNL     1      45.567   4.538   8.133  0.00  0.00    +0.000 NA
ATOM      7  C   UNL     1      46.408   3.682   7.504  0.00  0.00    +0.000 A 
ATOM      8  H   UNL     1      44.121   5.827   9.416  0.00  0.00    +0.000 HD
ENDROOT
BRANCH   1  10
ATOM      9  N   UNL     1      48.443   2.004   6.436  0.00  0.00    +0.000 N 
ATOM     10  C   UNL     1      47.333   1.440   7.001  0.00  0.00    +0.000 C 
ATOM     11  O   UNL     1      47.126   0.235   6.932  0.00  0.00    +0.000 OA
ATOM     12  H   UNL     1      49.113   1.360   6.027  0.00  0.00    +0.000 HD
ATOM     13  H   UNL     1      48.786   2.923   6.678  0.00  0.00    +0.000 HD
ENDBRANCH   1  10
BRANCH   5  14
ATOM     14  C   UNL     1      43.490   4.607  10.988  0.00  0.00    +0.000 C 
BRANCH  14  15
ATOM     15  C   UNL     1      44.664   4.968  11.867  0.00  0.00    +0.000 A 
ATOM     16  C   UNL     1      45.249   3.993  12.688  0.00  0.00    +0.000 A 
ATOM     17  C   UNL     1      46.376   4.289  13.444  0.00  0.00    +0.000 A 
ATOM     18  C   UNL     1      46.959   5.554  13.352  0.00  0.00    +0.000 A 
ATOM     19  C   UNL     1      46.439   6.541  12.493  0.00  0.00    +0.000 A 
ATOM     20  C   UNL     1      45.256   6.238  11.792  0.00  0.00    +0.000 A 
BRANCH  19  21
ATOM     21  C   UNL     1      47.155   7.811  12.252  0.00  0.00    +0.000 A 
ATOM     22  C   UNL     1      48.504   7.832  11.894  0.00  0.00    +0.000 A 
ATOM     23  C   UNL     1      49.112   9.043  11.573  0.00  0.00    +0.000 A 
ATOM     24  C   UNL     1      48.364  10.209  11.618  0.00  0.00    +0.000 A 
ATOM     25  C   UNL     1      47.034  10.112  11.990  0.00  0.00    +0.000 A 
ATOM     26  N   UNL     1      46.416   8.947  12.299  0.00  0.00    +0.000 NA
ENDBRANCH  19  21
ENDBRANCH  14  15
ENDBRANCH   5  14
TORSDOF 4
ENDMDL
MODEL 2
REMARK VINA RESULT:    -8.965      2.112      3.808
REMARK INTER + INTRA:         -11.757
REMARK INTER:                 -11.091
REMARK INTRA:                  -0.666
REMARK UNBOUND:                -0.695
REMARK  Name = 
REMARK  4 active torsions:
REMARK  status: ('A' for Active; 'I' for Inactive)
REMARK    1  A    between atoms: C_2  and  C_4
REMARK    2  A    between atoms: N_8  and  C_9
REMARK    3  A    between atoms: C_9  and  C_10
REMARK    4  A    between atoms: C_14  and  C_15
REMARK                            x       y       z     vdW  Elec       q    Type
REMARK                         _______ _______ _______ _____ _____    ______ ____
ROOT
ATOM      1  C   UNL     1      46.421   2.326   7.667  0.00  0.00    +0.000 A 
ATOM      2  C   UNL     1      45.713   1.876   8.753  0.00  0.00    +0.000 A 
ATOM      3  N   UNL     1      44.920   2.668   9.502  0.00  0.00    +0.000 NA
ATOM      4  C   UNL     1      44.841   3.964   9.160  0.00  0.00    +0.000 A 
ATOM      5  N   UNL     1      43.984   4.803   9.842  0.00  0.00    +0.000 N 
ATOM      6  N   UNL     1      45.518   4.504   8.138  0.00  0.00    +0.000 NA
ATOM      7  C   UNL     1      46.305   3.673   7.414  0.00  0.00    +0.000 A 
ATOM      8  H   UNL     1      44.205   5.759   9.588  0.00  0.00    +0.000 HD
ENDROOT
BRANCH   1  10
ATOM      9  N   UNL     1      48.304   2.056   6.164  0.00  0.00    +0.000 N 
ATOM     10  C   UNL     1      47.269   1.466   6.836  0.00  0.00    +0.000 C 
ATOM     11  O   UNL     1      47.076   0.258   6.773  0.00  0.00    +0.000 OA
ATOM     12  H   UNL     1      48.937   1.428   5.677  0.00  0.00    +0.000 HD
ATOM     13  H   UNL     1      48.655   2.977   6.381  0.00  0.00    +0.000 HD
ENDBRANCH   1  10
BRANCH   5  14
ATOM     14  C   UNL     1      43.879   4.561  11.266  0.00  0.00    +0.000 C 
BRANCH  14  15
ATOM     15  C   UNL     1      45.077   5.151  11.972  0.00  0.00    +0.000 A 
ATOM     16  C   UNL     1      45.491   6.457  11.673  0.00  0.00    +0.000 A 
ATOM     17  C   UNL     1      46.543   7.041  12.368  0.00  0.00    +0.000 A 
ATOM     18  C   UNL     1      47.162   6.341  13.404  0.00  0.00    +0.000 A 
ATOM     19  C   UNL     1      46.735   5.052  13.777  0.00  0.00    +0.000 A 
ATOM     20  C   UNL     1      45.714   4.456  13.011  0.00  0.00    +0.000 A 
BRANCH  19  21
ATOM     21  C   UNL     1      47.258   4.383  14.986  0.00  0.00    +0.000 A 
ATOM     22  C   UNL     1      47.260   5.018  16.230  0.00  0.00    +0.000 A 
ATOM     23  C   UNL     1      47.664   4.315  17.361  0.00  0.00    +0.000 A 
ATOM     24  C   UNL     1      48.062   2.993  17.231  0.00  0.00    +0.000 A 
ATOM     25  C   UNL     1      48.043   2.433  15.965  0.00  0.00    +0.000 A 
ATOM     26  N   UNL     1      47.646   3.091  14.850  0.00  0.00    +0.000 NA
ENDBRANCH  19  21
ENDBRANCH  14  15
ENDBRANCH   5  14
TORSDOF 4
ENDMDL
MODEL 3
REMARK VINA RESULT:    -7.706      2.965      6.709
REMARK INTER + INTRA:         -10.203
REMARK INTER:                  -9.450
REMARK INTRA:                  -0.753
REMARK UNBOUND:                -0.695
REMARK  Name = 
REMARK  4 active torsions:
REMARK  status: ('A' for Active; 'I' for Inactive)
REMARK    1  A    between atoms: C_2  and  C_4
REMARK    2  A    between atoms: N_8  and  C_9
REMARK    3  A    between atoms: C_9  and  C_10
REMARK    4  A    between atoms: C_14  and  C_15
REMARK                            x       y       z     vdW  Elec       q    Type
REMARK                         _______ _______ _______ _____ _____    ______ ____
ROOT
ATOM      1  C   UNL     1      48.716   7.464  12.685  0.00  0.00    +0.000 A 
ATOM      2  C   UNL     1      47.893   7.859  11.661  0.00  0.00    +0.000 A 
ATOM      3  N   UNL     1      46.568   7.612  11.637  0.00  0.00    +0.000 NA
ATOM      4  C   UNL     1      46.047   6.934  12.672  0.00  0.00    +0.000 A 
ATOM      5  N   UNL     1      44.684   6.724  12.740  0.00  0.00    +0.000 N 
ATOM      6  N   UNL     1      46.773   6.479  13.702  0.00  0.00    +0.000 NA
ATOM      7  C   UNL     1      48.101   6.746  13.684  0.00  0.00    +0.000 A 
ATOM      8  H   UNL     1      44.504   6.036  13.463  0.00  0.00    +0.000 HD
ENDROOT
BRANCH   1  10
ATOM      9  N   UNL     1      50.901   7.391  11.637  0.00  0.00    +0.000 N 
ATOM     10  C   UNL     1      50.155   7.746  12.727  0.00  0.00    +0.000 C 
ATOM     11  O   UNL     1      50.662   8.308  13.689  0.00  0.00    +0.000 OA
ATOM     12  H   UNL     1      51.873   7.686  11.645  0.00  0.00    +0.000 HD
ATOM     13  H   UNL     1      50.502   7.168  10.737  0.00  0.00    +0.000 HD
ENDBRANCH   1  10
BRANCH   5  14
ATOM     14  C   UNL     1      44.033   6.461  11.474  0.00  0.00    +0.000 C 
BRANCH  14  15
ATOM     15  C   UNL     1      44.114   4.986  11.156  0.00  0.00    +0.000 A 
ATOM     16  C   UNL     1      43.279   4.080  11.826  0.00  0.00    +0.000 A 
ATOM     17  C   UNL     1      43.287   2.732  11.492  0.00  0.00    +0.000 A 
ATOM     18  C   UNL     1      44.098   2.282  10.449  0.00  0.00    +0.000 A 
ATOM     19  C   UNL     1      44.903   3.169   9.710  0.00  0.00    +0.000 A 
ATOM     20  C   UNL     1      44.930   4.517  10.115  0.00  0.00    +0.000 A 
BRANCH  19  21
ATOM     21  C   UNL     1      45.618   2.733   8.493  0.00  0.00    +0.000 A 
ATOM     22  C   UNL     1      45.847   3.607   7.427  0.00  0.00    +0.000 A 
ATOM     23  C   UNL     1      46.616   3.187   6.346  0.00  0.00    +0.000 A 
ATOM     24  C   UNL     1      47.140   1.903   6.345  0.00  0.00    +0.000 A 
ATOM     25  C   UNL     1      46.864   1.090   7.431  0.00  0.00    +0.000 A 
ATOM     26  N   UNL     1      46.127   1.476   8.499  0.00  0.00    +0.000 NA
ENDBRANCH  19  21
ENDBRANCH  14  15
ENDBRANCH   5  14
TORSDOF 4
ENDMDL
MODEL 4
REMARK VINA RESULT:    -7.537      4.333      7.844
REMARK INTER + INTRA:          -9.995
REMARK INTER:                  -9.488
REMARK INTRA:                  -0.507
REMARK UNBOUND:                -0.695
REMARK  Name = 
REMARK  4 active torsions:
REMARK  status: ('A' for Active; 'I' for Inactive)
REMARK    1  A    between atoms: C_2  and  C_4
REMARK    2  A    between atoms: N_8  and  C_9
REMARK    3  A    between atoms: C_9  and  C_10
REMARK    4  A    between atoms: C_14  and  C_15
REMARK                            x       y       z     vdW  Elec       q    Type
REMARK                         _______ _______ _______ _____ _____    ______ ____
ROOT
ATOM      1  C   UNL     1      48.663   4.241  17.185  0.00  0.00    +0.000 A 
ATOM      2  C   UNL     1      47.913   3.205  16.688  0.00  0.00    +0.000 A 
ATOM      3  N   UNL     1      47.223   3.276  15.531  0.00  0.00    +0.000 NA
ATOM      4  C   UNL     1      47.276   4.433  14.851  0.00  0.00    +0.000 A 
ATOM      5  N   UNL     1      46.655   4.535  13.622  0.00  0.00    +0.000 N 
ATOM      6  N   UNL     1      47.953   5.510  15.270  0.00  0.00    +0.000 NA
ATOM      7  C   UNL     1      48.629   5.395  16.438  0.00  0.00    +0.000 A 
ATOM      8  H   UNL     1      46.627   5.515  13.362  0.00  0.00    +0.000 HD
ENDROOT
BRANCH   1  10
ATOM      9  N   UNL     1      48.761   3.796  19.566  0.00  0.00    +0.000 N 
ATOM     10  C   UNL     1      49.431   4.163  18.432  0.00  0.00    +0.000 C 
ATOM     11  O   UNL     1      50.635   4.388  18.448  0.00  0.00    +0.000 OA
ATOM     12  H   UNL     1      49.330   3.650  20.394  0.00  0.00    +0.000 HD
ATOM     13  H   UNL     1      47.850   3.360  19.559  0.00  0.00    +0.000 HD
ENDBRANCH   1  10
BRANCH   5  14
ATOM     14  C   UNL     1      45.392   3.838  13.504  0.00  0.00    +0.000 C 
BRANCH  14  15
ATOM     15  C   UNL     1      44.843   4.011  12.108  0.00  0.00    +0.000 A 
ATOM     16  C   UNL     1      43.892   5.008  11.849  0.00  0.00    +0.000 A 
ATOM     17  C   UNL     1      43.434   5.230  10.556  0.00  0.00    +0.000 A 
ATOM     18  C   UNL     1      43.960   4.487   9.499  0.00  0.00    +0.000 A 
ATOM     19  C   UNL     1      44.961   3.519   9.708  0.00  0.00    +0.000 A 
ATOM     20  C   UNL     1      45.356   3.266  11.035  0.00  0.00    +0.000 A 
BRANCH  19  21
ATOM     21  C   UNL     1      45.651   2.863   8.577  0.00  0.00    +0.000 A 
ATOM     22  C   UNL     1      46.107   3.593   7.477  0.00  0.00    +0.000 A 
ATOM     23  C   UNL     1      46.844   2.953   6.485  0.00  0.00    +0.000 A 
ATOM     24  C   UNL     1      47.109   1.597   6.606  0.00  0.00    +0.000 A 
ATOM     25  C   UNL     1      46.617   0.938   7.720  0.00  0.00    +0.000 A 
ATOM     26  N   UNL     1      45.906   1.537   8.703  0.00  0.00    +0.000 NA
ENDBRANCH  19  21
ENDBRANCH  14  15
ENDBRANCH   5  14
TORSDOF 4
ENDMDL
MODEL 5
REMARK VINA RESULT:    -7.430      3.175      7.145
REMARK INTER + INTRA:          -9.863
REMARK INTER:                  -9.495
REMARK INTRA:                  -0.368
REMARK UNBOUND:                -0.695
REMARK  Name = 
REMARK  4 active torsions:
REMARK  status: ('A' for Active; 'I' for Inactive)
REMARK    1  A    between atoms: C_2  and  C_4
REMARK    2  A    between atoms: N_8  and  C_9
REMARK    3  A    between atoms: C_9  and  C_10
REMARK    4  A    between atoms: C_14  and  C_15
REMARK                            x       y       z     vdW  Elec       q    Type
REMARK                         _______ _______ _______ _____ _____    ______ ____
ROOT
ATOM      1  C   UNL     1      48.134   6.253  14.986  0.00  0.00    +0.000 A 
ATOM      2  C   UNL     1      47.139   5.396  14.586  0.00  0.00    +0.000 A 
ATOM      3  N   UNL     1      46.417   5.571  13.461  0.00  0.00    +0.000 NA
ATOM      4  C   UNL     1      46.692   6.651  12.712  0.00  0.00    +0.000 A 
ATOM      5  N   UNL     1      46.040   6.838  11.511  0.00  0.00    +0.000 N 
ATOM      6  N   UNL     1      47.621   7.561  13.035  0.00  0.00    +0.000 NA
ATOM      7  C   UNL     1      48.321   7.347  14.175  0.00  0.00    +0.000 A 
ATOM      8  H   UNL     1      46.221   7.784  11.194  0.00  0.00    +0.000 HD
ENDROOT
BRANCH   1  10
ATOM      9  N   UNL     1      48.274   5.990  17.392  0.00  0.00    +0.000 N 
ATOM     10  C   UNL     1      48.937   6.057  16.198  0.00  0.00    +0.000 C 
ATOM     11  O   UNL     1      50.153   5.927  16.137  0.00  0.00    +0.000 OA
ATOM     12  H   UNL     1      48.837   5.753  18.203  0.00  0.00    +0.000 HD
ATOM     13  H   UNL     1      47.279   5.835  17.469  0.00  0.00    +0.000 HD
ENDBRANCH   1  10
BRANCH   5  14
ATOM     14  C   UNL     1      44.646   6.446  11.493  0.00  0.00    +0.000 C 
BRANCH  14  15
ATOM     15  C   UNL     1      44.530   4.993  11.095  0.00  0.00    +0.000 A 
ATOM     16  C   UNL     1      43.556   4.180  11.693  0.00  0.00    +0.000 A 
ATOM     17  C   UNL     1      43.386   2.864  11.284  0.00  0.00    +0.000 A 
ATOM     18  C   UNL     1      44.159   2.359  10.237  0.00  0.00    +0.000 A 
ATOM     19  C   UNL     1      45.104   3.161   9.569  0.00  0.00    +0.000 A 
ATOM     20  C   UNL     1      45.305   4.469  10.050  0.00  0.00    +0.000 A 
BRANCH  19  21
ATOM     21  C   UNL     1      45.789   2.693   8.347  0.00  0.00    +0.000 A 
ATOM     22  C   UNL     1      46.005   3.542   7.259  0.00  0.00    +0.000 A 
ATOM     23  C   UNL     1      46.747   3.092   6.171  0.00  0.00    +0.000 A 
ATOM     24  C   UNL     1      47.257   1.803   6.186  0.00  0.00    +0.000 A 
ATOM     25  C   UNL     1      46.995   1.015   7.294  0.00  0.00    +0.000 A 
ATOM     26  N   UNL     1      46.284   1.431   8.369  0.00  0.00    +0.000 NA
ENDBRANCH  19  21
ENDBRANCH  14  15
ENDBRANCH   5  14
TORSDOF 4
ENDMDL
MODEL 6
REMARK VINA RESULT:    -7.077      1.867      2.522
REMARK INTER + INTRA:          -9.427
REMARK INTER:                  -8.858
REMARK INTRA:                  -0.569
REMARK UNBOUND:                -0.695
REMARK  Name = 
REMARK  4 active torsions:
REMARK  status: ('A' for Active; 'I' for Inactive)
REMARK    1  A    between atoms: C_2  and  C_4
REMARK    2  A    between atoms: N_8  and  C_9
REMARK    3  A    between atoms: C_9  and  C_10
REMARK    4  A    between atoms: C_14  and  C_15
REMARK                            x       y       z     vdW  Elec       q    Type
REMARK                         _______ _______ _______ _____ _____    ______ ____
ROOT
ATOM      1  C   UNL     1      46.538   2.339   7.684  0.00  0.00    +0.000 A 
ATOM      2  C   UNL     1      45.958   2.113   8.908  0.00  0.00    +0.000 A 
ATOM      3  N   UNL     1      45.302   3.063   9.603  0.00  0.00    +0.000 NA
ATOM      4  C   UNL     1      45.232   4.290   9.061  0.00  0.00    +0.000 A 
ATOM      5  N   UNL     1      44.505   5.279   9.691  0.00  0.00    +0.000 N 
ATOM      6  N   UNL     1      45.793   4.616   7.889  0.00  0.00    +0.000 NA
ATOM      7  C   UNL     1      46.445   3.631   7.225  0.00  0.00    +0.000 A 
ATOM      8  H   UNL     1      44.731   6.166   9.256  0.00  0.00    +0.000 HD
ENDROOT
BRANCH   1  10
ATOM      9  N   UNL     1      48.216   1.713   6.050  0.00  0.00    +0.000 N 
ATOM     10  C   UNL     1      47.236   1.305   6.913  0.00  0.00    +0.000 C 
ATOM     11  O   UNL     1      46.971   0.118   7.061  0.00  0.00    +0.000 OA
ATOM     12  H   UNL     1      48.753   0.976   5.603  0.00  0.00    +0.000 HD
ATOM     13  H   UNL     1      48.639   2.628   6.081  0.00  0.00    +0.000 HD
ENDBRANCH   1  10
BRANCH   5  14
ATOM     14  C   UNL     1      44.575   5.276  11.137  0.00  0.00    +0.000 C 
BRANCH  14  15
ATOM     15  C   UNL     1      45.123   6.597  11.623  0.00  0.00    +0.000 A 
ATOM     16  C   UNL     1      44.434   7.786  11.340  0.00  0.00    +0.000 A 
ATOM     17  C   UNL     1      44.884   9.000  11.845  0.00  0.00    +0.000 A 
ATOM     18  C   UNL     1      46.002   9.032  12.678  0.00  0.00    +0.000 A 
ATOM     19  C   UNL     1      46.684   7.853  13.038  0.00  0.00    +0.000 A 
ATOM     20  C   UNL     1      46.251   6.646  12.457  0.00  0.00    +0.000 A 
BRANCH  19  21
ATOM     21  C   UNL     1      47.749   7.858  14.062  0.00  0.00    +0.000 A 
ATOM     22  C   UNL     1      48.754   6.887  14.076  0.00  0.00    +0.000 A 
ATOM     23  C   UNL     1      49.796   6.990  14.992  0.00  0.00    +0.000 A 
ATOM     24  C   UNL     1      49.816   8.055  15.880  0.00  0.00    +0.000 A 
ATOM     25  C   UNL     1      48.782   8.973  15.813  0.00  0.00    +0.000 A 
ATOM     26  N   UNL     1      47.761   8.902  14.927  0.00  0.00    +0.000 NA
ENDBRANCH  19  21
ENDBRANCH  14  15
ENDBRANCH   5  14
TORSDOF 4
ENDMDL
MODEL 7
REMARK VINA RESULT:    -6.913      5.270      7.930
REMARK INTER + INTRA:          -9.225
REMARK INTER:                  -8.550
REMARK INTRA:                  -0.675
REMARK UNBOUND:                -0.695
REMARK  Name = 
REMARK  4 active torsions:
REMARK  status: ('A' for Active; 'I' for Inactive)
REMARK    1  A    between atoms: C_2  and  C_4
REMARK    2  A    between atoms: N_8  and  C_9
REMARK    3  A    between atoms: C_9  and  C_10
REMARK    4  A    between atoms: C_14  and  C_15
REMARK                            x       y       z     vdW  Elec       q    Type
REMARK                         _______ _______ _______ _____ _____    ______ ____
ROOT
ATOM      1  C   UNL     1      50.881   2.515  17.354  0.00  0.00    +0.000 A 
ATOM      2  C   UNL     1      51.130   3.863  17.421  0.00  0.00    +0.000 A 
ATOM      3  N   UNL     1      50.232   4.802  17.061  0.00  0.00    +0.000 NA
ATOM      4  C   UNL     1      49.042   4.377  16.605  0.00  0.00    +0.000 A 
ATOM      5  N   UNL     1      48.057   5.293  16.298  0.00  0.00    +0.000 N 
ATOM      6  N   UNL     1      48.718   3.084  16.473  0.00  0.00    +0.000 NA
ATOM      7  C   UNL     1      49.651   2.174  16.843  0.00  0.00    +0.000 A 
ATOM      8  H   UNL     1      47.324   4.812  15.789  0.00  0.00    +0.000 HD
ENDROOT
BRANCH   1  10
ATOM      9  N   UNL     1      51.354   0.266  18.126  0.00  0.00    +0.000 N 
ATOM     10  C   UNL     1      51.846   1.489  17.763  0.00  0.00    +0.000 C 
ATOM     11  O   UNL     1      53.050   1.712  17.749  0.00  0.00    +0.000 OA
ATOM     12  H   UNL     1      52.043  -0.458  18.307  0.00  0.00    +0.000 HD
ATOM     13  H   UNL     1      50.417  -0.043  17.913  0.00  0.00    +0.000 HD
ENDBRANCH   1  10
BRANCH   5  14
ATOM     14  C   UNL     1      48.520   6.521  15.686  0.00  0.00    +0.000 C 
BRANCH  14  15
ATOM     15  C   UNL     1      47.994   6.615  14.273  0.00  0.00    +0.000 A 
ATOM     16  C   UNL     1      48.715   7.329  13.305  0.00  0.00    +0.000 A 
ATOM     17  C   UNL     1      48.285   7.361  11.985  0.00  0.00    +0.000 A 
ATOM     18  C   UNL     1      47.153   6.638  11.607  0.00  0.00    +0.000 A 
ATOM     19  C   UNL     1      46.437   5.857  12.536  0.00  0.00    +0.000 A 
ATOM     20  C   UNL     1      46.853   5.899  13.880  0.00  0.00    +0.000 A 
BRANCH  19  21
ATOM     21  C   UNL     1      45.354   4.947  12.109  0.00  0.00    +0.000 A 
ATOM     22  C   UNL     1      44.973   4.842  10.769  0.00  0.00    +0.000 A 
ATOM     23  C   UNL     1      44.023   3.896  10.396  0.00  0.00    +0.000 A 
ATOM     24  C   UNL     1      43.467   3.075  11.365  0.00  0.00    +0.000 A 
ATOM     25  C   UNL     1      43.887   3.243  12.674  0.00  0.00    +0.000 A 
ATOM     26  N   UNL     1      44.815   4.148  13.063  0.00  0.00    +0.000 NA
ENDBRANCH  19  21
ENDBRANCH  14  15
ENDBRANCH   5  14
TORSDOF 4
ENDMDL
MODEL 8
REMARK VINA RESULT:    -6.890      2.976      6.809
REMARK INTER + INTRA:          -9.196
REMARK INTER:                  -8.518
REMARK INTRA:                  -0.678
REMARK UNBOUND:                -0.695
REMARK  Name = 
REMARK  4 active torsions:
REMARK  status: ('A' for Active; 'I' for Inactive)
REMARK    1  A    between atoms: C_2  and  C_4
REMARK    2  A    between atoms: N_8  and  C_9
REMARK    3  A    between atoms: C_9  and  C_10
REMARK    4  A    between atoms: C_14  and  C_15
REMARK                            x       y       z     vdW  Elec       q    Type
REMARK                         _______ _______ _______ _____ _____    ______ ____
ROOT
ATOM      1  C   UNL     1      50.023   8.470  11.933  0.00  0.00    +0.000 A 
ATOM      2  C   UNL     1      48.886   9.169  11.615  0.00  0.00    +0.000 A 
ATOM      3  N   UNL     1      47.653   8.806  12.022  0.00  0.00    +0.000 NA
ATOM      4  C   UNL     1      47.551   7.693  12.766  0.00  0.00    +0.000 A 
ATOM      5  N   UNL     1      46.325   7.318  13.277  0.00  0.00    +0.000 N 
ATOM      6  N   UNL     1      48.597   6.926  13.101  0.00  0.00    +0.000 NA
ATOM      7  C   UNL     1      49.817   7.327  12.669  0.00  0.00    +0.000 A 
ATOM      8  H   UNL     1      46.403   6.371  13.629  0.00  0.00    +0.000 HD
ENDROOT
BRANCH   1  10
ATOM      9  N   UNL     1      52.400   8.016  11.789  0.00  0.00    +0.000 N 
ATOM     10  C   UNL     1      51.369   8.870  11.510  0.00  0.00    +0.000 C 
ATOM     11  O   UNL     1      51.555   9.917  10.902  0.00  0.00    +0.000 OA
ATOM     12  H   UNL     1      53.305   8.265  11.399  0.00  0.00    +0.000 HD
ATOM     13  H   UNL     1      52.268   7.050  12.049  0.00  0.00    +0.000 HD
ENDBRANCH   1  10
BRANCH   5  14
ATOM     14  C   UNL     1      45.192   7.553  12.407  0.00  0.00    +0.000 C 
BRANCH  14  15
ATOM     15  C   UNL     1      44.611   6.231  11.960  0.00  0.00    +0.000 A 
ATOM     16  C   UNL     1      43.357   5.822  12.436  0.00  0.00    +0.000 A 
ATOM     17  C   UNL     1      42.776   4.647  11.976  0.00  0.00    +0.000 A 
ATOM     18  C   UNL     1      43.423   3.891  10.997  0.00  0.00    +0.000 A 
ATOM     19  C   UNL     1      44.653   4.301  10.448  0.00  0.00    +0.000 A 
ATOM     20  C   UNL     1      45.254   5.457  10.982  0.00  0.00    +0.000 A 
BRANCH  19  21
ATOM     21  C   UNL     1      45.250   3.609   9.286  0.00  0.00    +0.000 A 
ATOM     22  C   UNL     1      45.792   4.318   8.212  0.00  0.00    +0.000 A 
ATOM     23  C   UNL     1      46.438   3.630   7.190  0.00  0.00    +0.000 A 
ATOM     24  C   UNL     1      46.529   2.248   7.254  0.00  0.00    +0.000 A 
ATOM     25  C   UNL     1      45.960   1.612   8.345  0.00  0.00    +0.000 A 
ATOM     26  N   UNL     1      45.334   2.257   9.357  0.00  0.00    +0.000 NA
ENDBRANCH  19  21
ENDBRANCH  14  15
ENDBRANCH   5  14
TORSDOF 4
ENDMDL
MODEL 9
REMARK VINA RESULT:    -6.687      4.858      8.059
REMARK INTER + INTRA:          -8.945
REMARK INTER:                  -8.455
REMARK INTRA:                  -0.490
REMARK UNBOUND:                -0.695
REMARK  Name = 
REMARK  4 active torsions:
REMARK  status: ('A' for Active; 'I' for Inactive)
REMARK    1  A    between atoms: C_2  and  C_4
REMARK    2  A    between atoms: N_8  and  C_9
REMARK    3  A    between atoms: C_9  and  C_10
REMARK    4  A    between atoms: C_14  and  C_15
REMARK                            x       y       z     vdW  Elec       q    Type
REMARK                         _______ _______ _______ _____ _____    ______ ____
ROOT
ATOM      1  C   UNL     1      50.682   4.365  17.651  0.00  0.00    +0.000 A 
ATOM      2  C   UNL     1      50.841   5.570  17.013  0.00  0.00    +0.000 A 
ATOM      3  N   UNL     1      49.898   6.121  16.224  0.00  0.00    +0.000 NA
ATOM      4  C   UNL     1      48.755   5.436  16.055  0.00  0.00    +0.000 A 
ATOM      5  N   UNL     1      47.724   5.990  15.324  0.00  0.00    +0.000 N 
ATOM      6  N   UNL     1      48.519   4.239  16.609  0.00  0.00    +0.000 NA
ATOM      7  C   UNL     1      49.495   3.721  17.392  0.00  0.00    +0.000 A 
ATOM      8  H   UNL     1      47.042   5.264  15.137  0.00  0.00    +0.000 HD
ENDROOT
BRANCH   1  10
ATOM      9  N   UNL     1      51.795   4.254  19.802  0.00  0.00    +0.000 N 
ATOM     10  C   UNL     1      51.696   3.769  18.527  0.00  0.00    +0.000 C 
ATOM     11  O   UNL     1      52.406   2.849  18.139  0.00  0.00    +0.000 OA
ATOM     12  H   UNL     1      52.432   3.760  20.420  0.00  0.00    +0.000 HD
ATOM     13  H   UNL     1      51.081   4.816  20.241  0.00  0.00    +0.000 HD
ENDBRANCH   1  10
BRANCH   5  14
ATOM     14  C   UNL     1      48.128   6.758  14.165  0.00  0.00    +0.000 C 
BRANCH  14  15
ATOM     15  C   UNL     1      46.950   6.938  13.237  0.00  0.00    +0.000 A 
ATOM     16  C   UNL     1      46.360   8.202  13.093  0.00  0.00    +0.000 A 
ATOM     17  C   UNL     1      45.325   8.399  12.187  0.00  0.00    +0.000 A 
ATOM     18  C   UNL     1      44.901   7.343  11.379  0.00  0.00    +0.000 A 
ATOM     19  C   UNL     1      45.510   6.076  11.448  0.00  0.00    +0.000 A 
ATOM     20  C   UNL     1      46.507   5.884  12.424  0.00  0.00    +0.000 A 
BRANCH  19  21
ATOM     21  C   UNL     1      45.194   5.012  10.473  0.00  0.00    +0.000 A 
ATOM     22  C   UNL     1      45.656   5.067   9.156  0.00  0.00    +0.000 A 
ATOM     23  C   UNL     1      45.425   3.994   8.301  0.00  0.00    +0.000 A 
ATOM     24  C   UNL     1      44.735   2.887   8.772  0.00  0.00    +0.000 A 
ATOM     25  C   UNL     1      44.299   2.908  10.086  0.00  0.00    +0.000 A 
ATOM     26  N   UNL     1      44.518   3.934  10.942  0.00  0.00    +0.000 NA
ENDBRANCH  19  21
ENDBRANCH  14  15
ENDBRANCH   5  14
TORSDOF 4
ENDMDL
