MODEL 1
REMARK VINA RESULT:    -7.485      0.000      0.000
REMARK INTER + INTRA:          -9.997
REMARK INTER:                  -9.454
REMARK INTRA:                  -0.544
REMARK UNBOUND:                -0.544
REMARK  Name = 
REMARK  5 active torsions:
REMARK  status: ('A' for Active; 'I' for Inactive)
REMARK    1  A    between atoms: N_1  and  C_2
REMARK    2  A    between atoms: C_2  and  C_3
REMARK    3  A    between atoms: C_3  and  C_4
REMARK    4  A    between atoms: C_7  and  C_8
REMARK    5  A    between atoms: C_8  and  N_9
REMARK                            x       y       z     vdW  Elec       q    Type
REMARK                         _______ _______ _______ _____ _____    ______ ____
ROOT
ATOM      1  C   UNL     1      46.121   2.290   7.866  0.00  0.00    +0.000 A 
ATOM      2  C   UNL     1      45.296   1.668   8.813  0.00  0.00    +0.000 A 
ATOM      3  C   UNL     1      44.514   2.430   9.685  0.00  0.00    +0.000 A 
ATOM      4  C   UNL     1      44.529   3.831   9.619  0.00  0.00    +0.000 A 
ATOM      5  C   UNL     1      45.336   4.448   8.652  0.00  0.00    +0.000 A 
ATOM      6  C   UNL     1      46.118   3.686   7.782  0.00  0.00    +0.000 A 
ENDROOT
BRANCH   1   7
ATOM      7  C   UNL     1      47.021   1.471   6.972  0.00  0.00    +0.000 C 
BRANCH   7   8
ATOM      8  C   UNL     1      48.283   2.223   6.540  0.00  0.00    +0.000 C 
BRANCH   8   9
ATOM      9  N   UNL     1      48.273   2.466   5.096  0.00  0.00    +0.000 NA
ATOM     10  H   UNL     1      49.209   2.732   4.793  0.00  0.00    +0.000 HD
ATOM     11  H   UNL     1      47.670   3.261   4.890  0.00  0.00    +0.000 HD
ENDBRANCH   8   9
ENDBRANCH   7   8
ENDBRANCH   1   7
BRANCH   4  12
ATOM     12  C   UNL     1      43.735   4.666  10.595  0.00  0.00    +0.000 C 
BRANCH  12  13
ATOM     13  N   UNL     1      44.598   5.298  11.585  0.00  0.00    +0.000 N 
ATOM     14  C   UNL     1      45.374   4.631  12.504  0.00  0.00    +0.000 A 
ATOM     15  C   UNL     1      46.060   5.574  13.243  0.00  0.00    +0.000 A 
ATOM     16  C   UNL     1      45.671   6.856  12.771  0.00  0.00    +0.000 A 
ATOM     17  C   UNL     1      46.011   8.182  13.089  0.00  0.00    +0.000 A 
ATOM     18  C   UNL     1      45.382   9.200  12.374  0.00  0.00    +0.000 A 
ATOM     19  C   UNL     1      44.450   8.862  11.402  0.00  0.00    +0.000 A 
ATOM     20  N   UNL     1      44.084   7.607  11.058  0.00  0.00    +0.000 NA
ATOM     21  C   UNL     1      44.734   6.655  11.760  0.00  0.00    +0.000 A 
ENDBRANCH  12  13
ENDBRANCH   4  12
TORSDOF 5
ENDMDL
MODEL 2
REMARK VINA RESULT:    -7.431      0.939      2.426
REMARK INTER + INTRA:          -9.930
REMARK INTER:                  -9.497
REMARK INTRA:                  -0.433
REMARK UNBOUND:                -0.544
REMARK  Name = 
REMARK  5 active torsions:
REMARK  status: ('A' for Active; 'I' for Inactive)
REMARK    1  A    between atoms: N_1  and  C_2
REMARK    2  A    between atoms: C_2  and  C_3
REMARK    3  A    between atoms: C_3  and  C_4
REMARK    4  A    between atoms: C_7  and  C_8
REMARK    5  A    between atoms: C_8  and  N_9
REMARK                            x       y       z     vdW  Elec       q    Type
REMARK                         _______ _______ _______ _____ _____    ______ ____
ROOT
ATOM      1  C   UNL     1      46.117   2.249   7.821  0.00  0.00    +0.000 A 
ATOM      2  C   UNL     1      45.297   1.597   8.753  0.00  0.00    +0.000 A 
ATOM      3  C   UNL     1      44.520   2.331   9.652  0.00  0.00    +0.000 A 
ATOM      4  C   UNL     1      44.535   3.733   9.632  0.00  0.00    +0.000 A 
ATOM      5  C   UNL     1      45.336   4.381   8.681  0.00  0.00    +0.000 A 
ATOM      6  C   UNL     1      46.113   3.647   7.782  0.00  0.00    +0.000 A 
ENDROOT
BRANCH   1   7
ATOM      7  C   UNL     1      47.013   1.460   6.897  0.00  0.00    +0.000 C 
BRANCH   7   8
ATOM      8  C   UNL     1      48.279   2.221   6.493  0.00  0.00    +0.000 C 
BRANCH   8   9
ATOM      9  N   UNL     1      48.270   2.517   5.059  0.00  0.00    +0.000 NA
ATOM     10  H   UNL     1      48.326   1.645   4.534  0.00  0.00    +0.000 HD
ATOM     11  H   UNL     1      49.105   3.048   4.816  0.00  0.00    +0.000 HD
ENDBRANCH   8   9
ENDBRANCH   7   8
ENDBRANCH   1   7
BRANCH   4  12
ATOM     12  C   UNL     1      43.746   4.536  10.638  0.00  0.00    +0.000 C 
BRANCH  12  13
ATOM     13  N   UNL     1      44.613   5.388  11.442  0.00  0.00    +0.000 N 
ATOM     14  C   UNL     1      44.691   6.758  11.346  0.00  0.00    +0.000 A 
ATOM     15  C   UNL     1      45.601   7.197  12.286  0.00  0.00    +0.000 A 
ATOM     16  C   UNL     1      46.107   6.055  12.961  0.00  0.00    +0.000 A 
ATOM     17  C   UNL     1      47.023   5.835  14.003  0.00  0.00    +0.000 A 
ATOM     18  C   UNL     1      47.261   4.516  14.389  0.00  0.00    +0.000 A 
ATOM     19  C   UNL     1      46.600   3.492  13.725  0.00  0.00    +0.000 A 
ATOM     20  N   UNL     1      45.713   3.645  12.716  0.00  0.00    +0.000 NA
ATOM     21  C   UNL     1      45.498   4.938  12.392  0.00  0.00    +0.000 A 
ENDBRANCH  12  13
ENDBRANCH   4  12
TORSDOF 5
ENDMDL
MODEL 3
REMARK VINA RESULT:    -6.306      2.090      6.381
REMARK INTER + INTRA:          -8.508
REMARK INTER:                  -8.024
REMARK INTRA:                  -0.484
REMARK UNBOUND:                -0.544
REMARK  Name = 
REMARK  5 active torsions:
REMARK  status: ('A' for Active; 'I' for Inactive)
REMARK    1  A    between atoms: N_1  and  C_2
REMARK    2  A    between atoms: C_2  and  C_3
REMARK    3  A    between atoms: C_3  and  C_4
REMARK    4  A    between atoms: C_7  and  C_8
REMARK    5  A    between atoms: C_8  and  N_9
REMARK                            x       y       z     vdW  Elec       q    Type
REMARK                         _______ _______ _______ _____ _____    ______ ____
ROOT
ATOM      1  C   UNL     1      46.761   5.941  12.999  0.00  0.00    +0.000 A 
ATOM      2  C   UNL     1      46.790   6.606  11.765  0.00  0.00    +0.000 A 
ATOM      3  C   UNL     1      45.976   6.185  10.710  0.00  0.00    +0.000 A 
ATOM      4  C   UNL     1      45.105   5.098  10.870  0.00  0.00    +0.000 A 
ATOM      5  C   UNL     1      45.060   4.452  12.113  0.00  0.00    +0.000 A 
ATOM      6  C   UNL     1      45.874   4.872  13.167  0.00  0.00    +0.000 A 
ENDROOT
BRANCH   1   7
ATOM      7  C   UNL     1      47.691   6.347  14.116  0.00  0.00    +0.000 C 
BRANCH   7   8
ATOM      8  C   UNL     1      48.589   7.532  13.750  0.00  0.00    +0.000 C 
BRANCH   8   9
ATOM      9  N   UNL     1      49.915   7.069  13.334  0.00  0.00    +0.000 NA
ATOM     10  H   UNL     1      50.497   6.931  14.159  0.00  0.00    +0.000 HD
ATOM     11  H   UNL     1      50.371   7.795  12.783  0.00  0.00    +0.000 HD
ENDBRANCH   8   9
ENDBRANCH   7   8
ENDBRANCH   1   7
BRANCH   4  12
ATOM     12  C   UNL     1      44.265   4.596   9.720  0.00  0.00    +0.000 C 
BRANCH  12  13
ATOM     13  N   UNL     1      44.796   3.355   9.170  0.00  0.00    +0.000 N 
ATOM     14  C   UNL     1      44.394   2.090   9.530  0.00  0.00    +0.000 A 
ATOM     15  C   UNL     1      45.111   1.186   8.773  0.00  0.00    +0.000 A 
ATOM     16  C   UNL     1      45.991   1.926   7.938  0.00  0.00    +0.000 A 
ATOM     17  C   UNL     1      46.943   1.604   6.956  0.00  0.00    +0.000 A 
ATOM     18  C   UNL     1      47.628   2.655   6.349  0.00  0.00    +0.000 A 
ATOM     19  C   UNL     1      47.352   3.956   6.748  0.00  0.00    +0.000 A 
ATOM     20  N   UNL     1      46.451   4.323   7.687  0.00  0.00    +0.000 NA
ATOM     21  C   UNL     1      45.797   3.275   8.231  0.00  0.00    +0.000 A 
ENDBRANCH  12  13
ENDBRANCH   4  12
TORSDOF 5
ENDMDL
MODEL 4
REMARK VINA RESULT:    -5.937      2.140      6.668
REMARK INTER + INTRA:          -8.042
REMARK INTER:                  -7.798
REMARK INTRA:                  -0.244
REMARK UNBOUND:                -0.544
REMARK  Name = 
REMARK  5 active torsions:
REMARK  status: ('A' for Active; 'I' for Inactive)
REMARK    1  A    between atoms: N_1  and  C_2
REMARK    2  A    between atoms: C_2  and  C_3
REMARK    3  A    between atoms: C_3  and  C_4
REMARK    4  A    between atoms: C_7  and  C_8
REMARK    5  A    between atoms: C_8  and  N_9
REMARK                            x       y       z     vdW  Elec       q    Type
REMARK                         _______ _______ _______ _____ _____    ______ ____
ROOT
ATOM      1  C   UNL     1      47.561   7.544  13.561  0.00  0.00    +0.000 A 
ATOM      2  C   UNL     1      47.301   6.188  13.319  0.00  0.00    +0.000 A 
ATOM      3  C   UNL     1      46.199   5.801  12.552  0.00  0.00    +0.000 A 
ATOM      4  C   UNL     1      45.341   6.763  11.998  0.00  0.00    +0.000 A 
ATOM      5  C   UNL     1      45.621   8.118  12.220  0.00  0.00    +0.000 A 
ATOM      6  C   UNL     1      46.722   8.504  12.988  0.00  0.00    +0.000 A 
ENDROOT
BRANCH   1   7
ATOM      7  C   UNL     1      48.708   7.962  14.450  0.00  0.00    +0.000 C 
BRANCH   7   8
ATOM      8  C   UNL     1      48.500   9.336  15.093  0.00  0.00    +0.000 C 
BRANCH   8   9
ATOM      9  N   UNL     1      47.682   9.224  16.302  0.00  0.00    +0.000 NA
ATOM     10  H   UNL     1      47.520  10.153  16.687  0.00  0.00    +0.000 HD
ATOM     11  H   UNL     1      48.196   8.707  17.014  0.00  0.00    +0.000 HD
ENDBRANCH   8   9
ENDBRANCH   7   8
ENDBRANCH   1   7
BRANCH   4  12
ATOM     12  C   UNL     1      44.114   6.356  11.217  0.00  0.00    +0.000 C 
BRANCH  12  13
ATOM     13  N   UNL     1      44.090   4.920  10.967  0.00  0.00    +0.000 N 
ATOM     14  C   UNL     1      43.446   3.988  11.747  0.00  0.00    +0.000 A 
ATOM     15  C   UNL     1      43.635   2.749  11.171  0.00  0.00    +0.000 A 
ATOM     16  C   UNL     1      44.437   2.932  10.012  0.00  0.00    +0.000 A 
ATOM     17  C   UNL     1      44.953   2.091   9.012  0.00  0.00    +0.000 A 
ATOM     18  C   UNL     1      45.728   2.675   8.011  0.00  0.00    +0.000 A 
ATOM     19  C   UNL     1      45.964   4.042   8.055  0.00  0.00    +0.000 A 
ATOM     20  N   UNL     1      45.496   4.896   8.993  0.00  0.00    +0.000 NA
ATOM     21  C   UNL     1      44.734   4.291   9.928  0.00  0.00    +0.000 A 
ENDBRANCH  12  13
ENDBRANCH   4  12
TORSDOF 5
ENDMDL
MODEL 5
REMARK VINA RESULT:    -5.791      2.453      3.364
REMARK INTER + INTRA:          -7.859
REMARK INTER:                  -7.358
REMARK INTRA:                  -0.500
REMARK UNBOUND:                -0.544
REMARK  Name = 
REMARK  5 active torsions:
REMARK  status: ('A' for Active; 'I' for Inactive)
REMARK    1  A    between atoms: N_1  and  C_2
REMARK    2  A    between atoms: C_2  and  C_3
REMARK    3  A    between atoms: C_3  and  C_4
REMARK    4  A    between atoms: C_7  and  C_8
REMARK    5  A    between atoms: C_8  and  N_9
REMARK                            x       y       z     vdW  Elec       q    Type
REMARK                         _______ _______ _______ _____ _____    ______ ____
ROOT
ATOM      1  C   UNL     1      44.956   3.477  10.160  0.00  0.00    +0.000 A 
ATOM      2  C   UNL     1      44.878   3.266  11.543  0.00  0.00    +0.000 A 
ATOM      3  C   UNL     1      45.178   4.297  12.437  0.00  0.00    +0.000 A 
ATOM      4  C   UNL     1      45.550   5.565  11.968  0.00  0.00    +0.000 A 
ATOM      5  C   UNL     1      45.600   5.779  10.583  0.00  0.00    +0.000 A 
ATOM      6  C   UNL     1      45.301   4.748   9.689  0.00  0.00    +0.000 A 
ENDROOT
BRANCH   1   7
ATOM      7  C   UNL     1      44.704   2.345   9.192  0.00  0.00    +0.000 C 
BRANCH   7   8
ATOM      8  C   UNL     1      45.846   2.145   8.191  0.00  0.00    +0.000 C 
BRANCH   8   9
ATOM      9  N   UNL     1      46.284   0.748   8.178  0.00  0.00    +0.000 NA
ATOM     10  H   UNL     1      45.921   0.288   7.344  0.00  0.00    +0.000 HD
ATOM     11  H   UNL     1      45.879   0.256   8.973  0.00  0.00    +0.000 HD
ENDBRANCH   8   9
ENDBRANCH   7   8
ENDBRANCH   1   7
BRANCH   4  12
ATOM     12  C   UNL     1      45.934   6.669  12.923  0.00  0.00    +0.000 C 
BRANCH  12  13
ATOM     13  N   UNL     1      47.230   7.243  12.585  0.00  0.00    +0.000 N 
ATOM     14  C   UNL     1      48.432   6.577  12.637  0.00  0.00    +0.000 A 
ATOM     15  C   UNL     1      49.418   7.448  12.222  0.00  0.00    +0.000 A 
ATOM     16  C   UNL     1      48.797   8.691  11.927  0.00  0.00    +0.000 A 
ATOM     17  C   UNL     1      49.236   9.940  11.457  0.00  0.00    +0.000 A 
ATOM     18  C   UNL     1      48.282  10.944  11.298  0.00  0.00    +0.000 A 
ATOM     19  C   UNL     1      46.960  10.671  11.620  0.00  0.00    +0.000 A 
ATOM     20  N   UNL     1      46.483   9.492  12.076  0.00  0.00    +0.000 NA
ATOM     21  C   UNL     1      47.437   8.545  12.194  0.00  0.00    +0.000 A 
ENDBRANCH  12  13
ENDBRANCH   4  12
TORSDOF 5
ENDMDL
MODEL 6
REMARK VINA RESULT:    -5.398      3.695      5.997
REMARK INTER + INTRA:          -7.362
REMARK INTER:                  -6.830
REMARK INTRA:                  -0.532
REMARK UNBOUND:                -0.544
REMARK  Name = 
REMARK  5 active torsions:
REMARK  status: ('A' for Active; 'I' for Inactive)
REMARK    1  A    between atoms: N_1  and  C_2
REMARK    2  A    between atoms: C_2  and  C_3
REMARK    3  A    between atoms: C_3  and  C_4
REMARK    4  A    between atoms: C_7  and  C_8
REMARK    5  A    between atoms: C_8  and  N_9
REMARK                            x       y       z     vdW  Elec       q    Type
REMARK                         _______ _______ _______ _____ _____    ______ ____
ROOT
ATOM      1  C   UNL     1      44.975   5.131  11.852  0.00  0.00    +0.000 A 
ATOM      2  C   UNL     1      45.627   4.581  12.965  0.00  0.00    +0.000 A 
ATOM      3  C   UNL     1      46.841   5.111  13.411  0.00  0.00    +0.000 A 
ATOM      4  C   UNL     1      47.423   6.209  12.762  0.00  0.00    +0.000 A 
ATOM      5  C   UNL     1      46.754   6.773  11.666  0.00  0.00    +0.000 A 
ATOM      6  C   UNL     1      45.541   6.243  11.220  0.00  0.00    +0.000 A 
ENDROOT
BRANCH   1   7
ATOM      7  C   UNL     1      43.701   4.517  11.324  0.00  0.00    +0.000 C 
BRANCH   7   8
ATOM      8  C   UNL     1      43.876   3.063  10.876  0.00  0.00    +0.000 C 
BRANCH   8   9
ATOM      9  N   UNL     1      43.028   2.170  11.668  0.00  0.00    +0.000 NA
ATOM     10  H   UNL     1      42.671   2.675  12.478  0.00  0.00    +0.000 HD
ATOM     11  H   UNL     1      43.590   1.404  12.036  0.00  0.00    +0.000 HD
ENDBRANCH   8   9
ENDBRANCH   7   8
ENDBRANCH   1   7
BRANCH   4  12
ATOM     12  C   UNL     1      48.763   6.752  13.197  0.00  0.00    +0.000 C 
BRANCH  12  13
ATOM     13  N   UNL     1      48.657   7.510  14.438  0.00  0.00    +0.000 N 
ATOM     14  C   UNL     1      48.266   8.825  14.534  0.00  0.00    +0.000 A 
ATOM     15  C   UNL     1      48.270   9.171  15.870  0.00  0.00    +0.000 A 
ATOM     16  C   UNL     1      48.696   8.034  16.608  0.00  0.00    +0.000 A 
ATOM     17  C   UNL     1      48.889   7.741  17.968  0.00  0.00    +0.000 A 
ATOM     18  C   UNL     1      49.339   6.464  18.298  0.00  0.00    +0.000 A 
ATOM     19  C   UNL     1      49.585   5.554  17.279  0.00  0.00    +0.000 A 
ATOM     20  N   UNL     1      49.419   5.782  15.956  0.00  0.00    +0.000 NA
ATOM     21  C   UNL     1      48.963   7.023  15.687  0.00  0.00    +0.000 A 
ENDBRANCH  12  13
ENDBRANCH   4  12
TORSDOF 5
ENDMDL
MODEL 7
REMARK VINA RESULT:    -5.278      5.747      8.191
REMARK INTER + INTRA:          -7.210
REMARK INTER:                  -7.049
REMARK INTRA:                  -0.161
REMARK UNBOUND:                -0.544
REMARK  Name = 
REMARK  5 active torsions:
REMARK  status: ('A' for Active; 'I' for Inactive)
REMARK    1  A    between atoms: N_1  and  C_2
REMARK    2  A    between atoms: C_2  and  C_3
REMARK    3  A    between atoms: C_3  and  C_4
REMARK    4  A    between atoms: C_7  and  C_8
REMARK    5  A    between atoms: C_8  and  N_9
REMARK                            x       y       z     vdW  Elec       q    Type
REMARK                         _______ _______ _______ _____ _____    ______ ____
ROOT
ATOM      1  C   UNL     1      51.341   2.620  17.636  0.00  0.00    +0.000 A 
ATOM      2  C   UNL     1      50.400   1.816  16.977  0.00  0.00    +0.000 A 
ATOM      3  C   UNL     1      49.160   2.338  16.599  0.00  0.00    +0.000 A 
ATOM      4  C   UNL     1      48.838   3.678  16.860  0.00  0.00    +0.000 A 
ATOM      5  C   UNL     1      49.793   4.485  17.495  0.00  0.00    +0.000 A 
ATOM      6  C   UNL     1      51.032   3.963  17.874  0.00  0.00    +0.000 A 
ENDROOT
BRANCH   1   7
ATOM      7  C   UNL     1      52.652   2.040  18.110  0.00  0.00    +0.000 C 
BRANCH   7   8
ATOM      8  C   UNL     1      53.002   0.712  17.431  0.00  0.00    +0.000 C 
BRANCH   8   9
ATOM      9  N   UNL     1      53.010  -0.381  18.404  0.00  0.00    +0.000 NA
ATOM     10  H   UNL     1      52.565  -1.201  17.994  0.00  0.00    +0.000 HD
ATOM     11  H   UNL     1      52.443  -0.123  19.210  0.00  0.00    +0.000 HD
ENDBRANCH   8   9
ENDBRANCH   7   8
ENDBRANCH   1   7
BRANCH   4  12
ATOM     12  C   UNL     1      47.480   4.237  16.511  0.00  0.00    +0.000 C 
BRANCH  12  13
ATOM     13  N   UNL     1      47.543   5.112  15.347  0.00  0.00    +0.000 N 
ATOM     14  C   UNL     1      48.350   6.220  15.229  0.00  0.00    +0.000 A 
ATOM     15  C   UNL     1      48.141   6.765  13.978  0.00  0.00    +0.000 A 
ATOM     16  C   UNL     1      47.161   5.973  13.322  0.00  0.00    +0.000 A 
ATOM     17  C   UNL     1      46.544   5.991  12.061  0.00  0.00    +0.000 A 
ATOM     18  C   UNL     1      45.593   5.008  11.791  0.00  0.00    +0.000 A 
ATOM     19  C   UNL     1      45.293   4.075  12.775  0.00  0.00    +0.000 A 
ATOM     20  N   UNL     1      45.853   4.012  14.003  0.00  0.00    +0.000 NA
ATOM     21  C   UNL     1      46.782   4.969  14.211  0.00  0.00    +0.000 A 
ENDBRANCH  12  13
ENDBRANCH   4  12
TORSDOF 5
ENDMDL
MODEL 8
REMARK VINA RESULT:    -5.035      3.262      4.820
REMARK INTER + INTRA:          -6.903
REMARK INTER:                  -6.451
REMARK INTRA:                  -0.452
REMARK UNBOUND:                -0.544
REMARK  Name = 
REMARK  5 active torsions:
REMARK  status: ('A' for Active; 'I' for Inactive)
REMARK    1  A    between atoms: N_1  and  C_2
REMARK    2  A    between atoms: C_2  and  C_3
REMARK    3  A    between atoms: C_3  and  C_4
REMARK    4  A    between atoms: C_7  and  C_8
REMARK    5  A    between atoms: C_8  and  N_9
REMARK                            x       y       z     vdW  Elec       q    Type
REMARK                         _______ _______ _______ _____ _____    ______ ____
ROOT
ATOM      1  C   UNL     1      44.866   3.886  11.111  0.00  0.00    +0.000 A 
ATOM      2  C   UNL     1      45.012   5.067  10.370  0.00  0.00    +0.000 A 
ATOM      3  C   UNL     1      45.495   6.230  10.974  0.00  0.00    +0.000 A 
ATOM      4  C   UNL     1      45.857   6.235  12.329  0.00  0.00    +0.000 A 
ATOM      5  C   UNL     1      45.735   5.045  13.060  0.00  0.00    +0.000 A 
ATOM      6  C   UNL     1      45.250   3.882  12.456  0.00  0.00    +0.000 A 
ENDROOT
BRANCH   1   7
ATOM      7  C   UNL     1      44.275   2.648  10.480  0.00  0.00    +0.000 C 
BRANCH   7   8
ATOM      8  C   UNL     1      44.646   2.492   9.002  0.00  0.00    +0.000 C 
BRANCH   8   9
ATOM      9  N   UNL     1      45.619   1.413   8.823  0.00  0.00    +0.000 NA
ATOM     10  H   UNL     1      45.482   0.984   7.909  0.00  0.00    +0.000 HD
ATOM     11  H   UNL     1      45.446   0.681   9.510  0.00  0.00    +0.000 HD
ENDBRANCH   8   9
ENDBRANCH   7   8
ENDBRANCH   1   7
BRANCH   4  12
ATOM     12  C   UNL     1      46.323   7.501  13.007  0.00  0.00    +0.000 C 
BRANCH  12  13
ATOM     13  N   UNL     1      47.764   7.681  12.873  0.00  0.00    +0.000 N 
ATOM     14  C   UNL     1      48.415   8.037  11.715  0.00  0.00    +0.000 A 
ATOM     15  C   UNL     1      49.762   8.129  11.998  0.00  0.00    +0.000 A 
ATOM     16  C   UNL     1      49.938   7.799  13.369  0.00  0.00    +0.000 A 
ATOM     17  C   UNL     1      51.032   7.724  14.246  0.00  0.00    +0.000 A 
ATOM     18  C   UNL     1      50.782   7.343  15.563  0.00  0.00    +0.000 A 
ATOM     19  C   UNL     1      49.479   7.045  15.940  0.00  0.00    +0.000 A 
ATOM     20  N   UNL     1      48.391   7.097  15.140  0.00  0.00    +0.000 NA
ATOM     21  C   UNL     1      48.679   7.492  13.881  0.00  0.00    +0.000 A 
ENDBRANCH  12  13
ENDBRANCH   4  12
TORSDOF 5
ENDMDL
MODEL 9
REMARK VINA RESULT:    -4.917      3.901      6.574
REMARK INTER + INTRA:          -6.755
REMARK INTER:                  -6.210
REMARK INTRA:                  -0.545
REMARK UNBOUND:                -0.544
REMARK  Name = 
REMARK  5 active torsions:
REMARK  status: ('A' for Active; 'I' for Inactive)
REMARK    1  A    between atoms: N_1  and  C_2
REMARK    2  A    between atoms: C_2  and  C_3
REMARK    3  A    between atoms: C_3  and  C_4
REMARK    4  A    between atoms: C_7  and  C_8
REMARK    5  A    between atoms: C_8  and  N_9
REMARK                            x       y       z     vdW  Elec       q    Type
REMARK                         _______ _______ _______ _____ _____    ______ ____
ROOT
ATOM      1  C   UNL     1      44.925   6.131  12.328  0.00  0.00    +0.000 A 
ATOM      2  C   UNL     1      45.422   7.442  12.347  0.00  0.00    +0.000 A 
ATOM      3  C   UNL     1      46.693   7.712  12.862  0.00  0.00    +0.000 A 
ATOM      4  C   UNL     1      47.500   6.677  13.355  0.00  0.00    +0.000 A 
ATOM      5  C   UNL     1      47.009   5.364  13.309  0.00  0.00    +0.000 A 
ATOM      6  C   UNL     1      45.738   5.094  12.796  0.00  0.00    +0.000 A 
ENDROOT
BRANCH   1   7
ATOM      7  C   UNL     1      43.524   5.846  11.841  0.00  0.00    +0.000 C 
BRANCH   7   8
ATOM      8  C   UNL     1      43.434   4.582  10.980  0.00  0.00    +0.000 C 
BRANCH   8   9
ATOM      9  N   UNL     1      43.721   4.889   9.577  0.00  0.00    +0.000 NA
ATOM     10  H   UNL     1      44.003   4.036   9.097  0.00  0.00    +0.000 HD
ATOM     11  H   UNL     1      44.518   5.522   9.524  0.00  0.00    +0.000 HD
ENDBRANCH   8   9
ENDBRANCH   7   8
ENDBRANCH   1   7
BRANCH   4  12
ATOM     12  C   UNL     1      48.850   6.964  13.968  0.00  0.00    +0.000 C 
BRANCH  12  13
ATOM     13  N   UNL     1      48.733   7.325  15.375  0.00  0.00    +0.000 N 
ATOM     14  C   UNL     1      48.576   8.603  15.858  0.00  0.00    +0.000 A 
ATOM     15  C   UNL     1      48.481   8.528  17.233  0.00  0.00    +0.000 A 
ATOM     16  C   UNL     1      48.605   7.161  17.599  0.00  0.00    +0.000 A 
ATOM     17  C   UNL     1      48.577   6.444  18.806  0.00  0.00    +0.000 A 
ATOM     18  C   UNL     1      48.747   5.062  18.743  0.00  0.00    +0.000 A 
ATOM     19  C   UNL     1      48.947   4.466  17.506  0.00  0.00    +0.000 A 
ATOM     20  N   UNL     1      48.985   5.105  16.315  0.00  0.00    +0.000 NA
ATOM     21  C   UNL     1      48.794   6.437  16.423  0.00  0.00    +0.000 A 
ENDBRANCH  12  13
ENDBRANCH   4  12
TORSDOF 5
ENDMDL
