MODEL 1
REMARK VINA RESULT:    -9.146      0.000      0.000
REMARK INTER + INTRA:         -13.281
REMARK INTER:                 -12.354
REMARK INTRA:                  -0.928
REMARK UNBOUND:                -0.928
REMARK  Name = 
REMARK  6 active torsions:
REMARK  status: ('A' for Active; 'I' for Inactive)
REMARK    1  A    between atoms: C_2  and  C_19
REMARK    2  A    between atoms: N_3  and  C_4
REMARK    3  A    between atoms: C_4  and  C_5
REMARK    4  A    between atoms: C_8  and  C_9
REMARK    5  A    between atoms: C_9  and  O_10
REMARK    6  A    between atoms: O_10  and  C_11
REMARK                            x       y       z     vdW  Elec       q    Type
REMARK                         _______ _______ _______ _____ _____    ______ ____
ROOT
ATOM      1  O   UNL     1      46.403   3.610  16.918  0.00  0.00    +0.000 OA
ATOM      2  C   UNL     1      47.328   4.243  16.418  0.00  0.00    +0.000 C 
ATOM      3  N   UNL     1      47.213   4.892  15.218  0.00  0.00    +0.000 N 
ATOM      4  H   UNL     1      48.032   5.320  14.797  0.00  0.00    +0.000 HD
ENDROOT
BRANCH   2   5
ATOM      5  C   UNL     1      48.619   4.388  17.093  0.00  0.00    +0.000 A 
ATOM      6  C   UNL     1      48.915   5.562  17.777  0.00  0.00    +0.000 A 
ATOM      7  S   UNL     1      50.467   5.562  18.481  0.00  0.00    +0.000 S 
ATOM      8  C   UNL     1      50.781   3.983  17.934  0.00  0.00    +0.000 A 
ATOM      9  N   UNL     1      51.956   3.362  18.220  0.00  0.00    +0.000 NA
ATOM     10  C   UNL     1      52.042   2.151  17.781  0.00  0.00    +0.000 A 
ATOM     11  N   UNL     1      51.060   1.504  17.079  0.00  0.00    +0.000 N 
ATOM     12  C   UNL     1      49.881   2.106  16.717  0.00  0.00    +0.000 A 
ATOM     13  O   UNL     1      49.069   1.527  16.003  0.00  0.00    +0.000 OA
ATOM     14  C   UNL     1      49.721   3.463  17.211  0.00  0.00    +0.000 A 
ATOM     15  H   UNL     1      51.198   0.561  16.747  0.00  0.00    +0.000 HD
ENDBRANCH   2   5
BRANCH   3  16
ATOM     16  C   UNL     1      46.041   4.808  14.389  0.00  0.00    +0.000 C 
BRANCH  16  17
ATOM     17  C   UNL     1      46.381   4.646  12.897  0.00  0.00    +0.000 C 
ATOM     18  C   UNL     1      45.846   3.328  12.304  0.00  0.00    +0.000 C 
ATOM     19  C   UNL     1      44.323   3.315  12.177  0.00  0.00    +0.000 C 
ATOM     20  C   UNL     1      43.791   4.521  11.384  0.00  0.00    +0.000 C 
ATOM     21  C   UNL     1      44.318   5.836  11.976  0.00  0.00    +0.000 C 
ATOM     22  C   UNL     1      45.844   5.852  12.110  0.00  0.00    +0.000 C 
BRANCH  20  23
ATOM     23  C   UNL     1      44.128   4.431   9.885  0.00  0.00    +0.000 C 
BRANCH  23  24
ATOM     24  O   UNL     1      44.176   3.058   9.500  0.00  0.00    +0.000 OA
BRANCH  24  25
ATOM     25  C   UNL     1      45.188   2.696   8.655  0.00  0.00    +0.000 A 
ATOM     26  C   UNL     1      45.747   1.422   8.541  0.00  0.00    +0.000 A 
ATOM     27  C   UNL     1      46.791   1.191   7.641  0.00  0.00    +0.000 A 
ATOM     28  C   UNL     1      47.277   2.230   6.850  0.00  0.00    +0.000 A 
ATOM     29  C   UNL     1      46.719   3.502   6.956  0.00  0.00    +0.000 A 
ATOM     30  C   UNL     1      45.678   3.732   7.857  0.00  0.00    +0.000 A 
ENDBRANCH  24  25
ENDBRANCH  23  24
ENDBRANCH  20  23
ENDBRANCH  16  17
ENDBRANCH   3  16
TORSDOF 6
ENDMDL
MODEL 2
REMARK VINA RESULT:    -8.234      1.776      2.199
REMARK INTER + INTRA:         -12.050
REMARK INTER:                 -11.294
REMARK INTRA:                  -0.756
REMARK UNBOUND:                -0.928
REMARK  Name = 
REMARK  6 active torsions:
REMARK  status: ('A' for Active; 'I' for Inactive)
REMARK    1  A    between atoms: C_2  and  C_19
REMARK    2  A    between atoms: N_3  and  C_4
REMARK    3  A    between atoms: C_4  and  C_5
REMARK    4  A    between atoms: C_8  and  C_9
REMARK    5  A    between atoms: C_9  and  O_10
REMARK    6  A    between atoms: O_10  and  C_11
REMARK                            x       y       z     vdW  Elec       q    Type
REMARK                         _______ _______ _______ _____ _____    ______ ____
ROOT
ATOM      1  O   UNL     1      49.057   6.648  13.573  0.00  0.00    +0.000 OA
ATOM      2  C   UNL     1      48.275   6.445  14.498  0.00  0.00    +0.000 C 
ATOM      3  N   UNL     1      46.922   6.358  14.314  0.00  0.00    +0.000 N 
ATOM      4  H   UNL     1      46.308   6.287  15.119  0.00  0.00    +0.000 HD
ENDROOT
BRANCH   2   5
ATOM      5  C   UNL     1      48.741   6.237  15.871  0.00  0.00    +0.000 A 
ATOM      6  C   UNL     1      49.563   7.182  16.475  0.00  0.00    +0.000 A 
ATOM      7  S   UNL     1      50.024   6.763  18.061  0.00  0.00    +0.000 S 
ATOM      8  C   UNL     1      49.110   5.330  18.012  0.00  0.00    +0.000 A 
ATOM      9  N   UNL     1      49.055   4.497  19.086  0.00  0.00    +0.000 NA
ATOM     10  C   UNL     1      48.289   3.469  18.926  0.00  0.00    +0.000 A 
ATOM     11  N   UNL     1      47.576   3.197  17.788  0.00  0.00    +0.000 N 
ATOM     12  C   UNL     1      47.643   3.976  16.660  0.00  0.00    +0.000 A 
ATOM     13  O   UNL     1      47.068   3.644  15.629  0.00  0.00    +0.000 OA
ATOM     14  C   UNL     1      48.470   5.162  16.796  0.00  0.00    +0.000 A 
ATOM     15  H   UNL     1      47.009   2.364  17.721  0.00  0.00    +0.000 HD
ENDBRANCH   2   5
BRANCH   3  16
ATOM     16  C   UNL     1      46.285   6.596  13.047  0.00  0.00    +0.000 C 
BRANCH  16  17
ATOM     17  C   UNL     1      46.424   5.405  12.082  0.00  0.00    +0.000 C 
ATOM     18  C   UNL     1      45.919   4.083  12.690  0.00  0.00    +0.000 C 
ATOM     19  C   UNL     1      44.399   4.050  12.850  0.00  0.00    +0.000 C 
ATOM     20  C   UNL     1      43.666   4.355  11.531  0.00  0.00    +0.000 C 
ATOM     21  C   UNL     1      44.163   5.676  10.926  0.00  0.00    +0.000 C 
ATOM     22  C   UNL     1      45.686   5.714  10.769  0.00  0.00    +0.000 C 
BRANCH  20  23
ATOM     23  C   UNL     1      43.795   3.210  10.512  0.00  0.00    +0.000 C 
BRANCH  23  24
ATOM     24  O   UNL     1      44.174   3.753   9.248  0.00  0.00    +0.000 OA
BRANCH  24  25
ATOM     25  C   UNL     1      45.132   3.069   8.552  0.00  0.00    +0.000 A 
ATOM     26  C   UNL     1      45.469   1.725   8.723  0.00  0.00    +0.000 A 
ATOM     27  C   UNL     1      46.482   1.151   7.951  0.00  0.00    +0.000 A 
ATOM     28  C   UNL     1      47.159   1.916   7.002  0.00  0.00    +0.000 A 
ATOM     29  C   UNL     1      46.822   3.257   6.824  0.00  0.00    +0.000 A 
ATOM     30  C   UNL     1      45.812   3.828   7.598  0.00  0.00    +0.000 A 
ENDBRANCH  24  25
ENDBRANCH  23  24
ENDBRANCH  20  23
ENDBRANCH  16  17
ENDBRANCH   3  16
TORSDOF 6
ENDMDL
MODEL 3
REMARK VINA RESULT:    -7.928      2.099      2.785
REMARK INTER + INTRA:         -11.637
REMARK INTER:                 -10.660
REMARK INTRA:                  -0.977
REMARK UNBOUND:                -0.928
REMARK  Name = 
REMARK  6 active torsions:
REMARK  status: ('A' for Active; 'I' for Inactive)
REMARK    1  A    between atoms: C_2  and  C_19
REMARK    2  A    between atoms: N_3  and  C_4
REMARK    3  A    between atoms: C_4  and  C_5
REMARK    4  A    between atoms: C_8  and  C_9
REMARK    5  A    between atoms: C_9  and  O_10
REMARK    6  A    between atoms: O_10  and  C_11
REMARK                            x       y       z     vdW  Elec       q    Type
REMARK                         _______ _______ _______ _____ _____    ______ ____
ROOT
ATOM      1  O   UNL     1      47.467   3.277  15.339  0.00  0.00    +0.000 OA
ATOM      2  C   UNL     1      47.482   4.503  15.391  0.00  0.00    +0.000 C 
ATOM      3  N   UNL     1      46.537   5.279  14.777  0.00  0.00    +0.000 N 
ATOM      4  H   UNL     1      46.644   6.289  14.766  0.00  0.00    +0.000 HD
ENDROOT
BRANCH   2   5
ATOM      5  C   UNL     1      48.496   5.231  16.158  0.00  0.00    +0.000 A 
ATOM      6  C   UNL     1      48.810   4.827  17.450  0.00  0.00    +0.000 A 
ATOM      7  S   UNL     1      49.993   5.801  18.196  0.00  0.00    +0.000 S 
ATOM      8  C   UNL     1      50.157   6.768  16.807  0.00  0.00    +0.000 A 
ATOM      9  N   UNL     1      51.044   7.798  16.771  0.00  0.00    +0.000 NA
ATOM     10  C   UNL     1      51.096   8.420  15.640  0.00  0.00    +0.000 A 
ATOM     11  N   UNL     1      50.339   8.107  14.542  0.00  0.00    +0.000 N 
ATOM     12  C   UNL     1      49.391   7.114  14.547  0.00  0.00    +0.000 A 
ATOM     13  O   UNL     1      48.665   6.931  13.576  0.00  0.00    +0.000 OA
ATOM     14  C   UNL     1      49.311   6.364  15.789  0.00  0.00    +0.000 A 
ATOM     15  H   UNL     1      50.415   8.645  13.692  0.00  0.00    +0.000 HD
ENDBRANCH   2   5
BRANCH   3  16
ATOM     16  C   UNL     1      45.504   4.739  13.934  0.00  0.00    +0.000 C 
BRANCH  16  17
ATOM     17  C   UNL     1      46.015   4.379  12.528  0.00  0.00    +0.000 C 
ATOM     18  C   UNL     1      45.335   3.122  11.951  0.00  0.00    +0.000 C 
ATOM     19  C   UNL     1      43.869   3.359  11.589  0.00  0.00    +0.000 C 
ATOM     20  C   UNL     1      43.687   4.558  10.641  0.00  0.00    +0.000 C 
ATOM     21  C   UNL     1      44.359   5.813  11.217  0.00  0.00    +0.000 C 
ATOM     22  C   UNL     1      45.827   5.578  11.586  0.00  0.00    +0.000 C 
BRANCH  20  23
ATOM     23  C   UNL     1      44.210   4.268   9.224  0.00  0.00    +0.000 C 
BRANCH  23  24
ATOM     24  O   UNL     1      44.463   2.869   9.098  0.00  0.00    +0.000 OA
BRANCH  24  25
ATOM     25  C   UNL     1      45.505   2.508   8.289  0.00  0.00    +0.000 A 
ATOM     26  C   UNL     1      46.083   1.240   8.212  0.00  0.00    +0.000 A 
ATOM     27  C   UNL     1      47.157   1.009   7.347  0.00  0.00    +0.000 A 
ATOM     28  C   UNL     1      47.654   2.043   6.556  0.00  0.00    +0.000 A 
ATOM     29  C   UNL     1      47.077   3.309   6.625  0.00  0.00    +0.000 A 
ATOM     30  C   UNL     1      46.006   3.538   7.490  0.00  0.00    +0.000 A 
ENDBRANCH  24  25
ENDBRANCH  23  24
ENDBRANCH  20  23
ENDBRANCH  16  17
ENDBRANCH   3  16
TORSDOF 6
ENDMDL
MODEL 4
REMARK VINA RESULT:    -7.867      1.457      1.876
REMARK INTER + INTRA:         -11.555
REMARK INTER:                 -10.584
REMARK INTRA:                  -0.970
REMARK UNBOUND:                -0.928
REMARK  Name = 
REMARK  6 active torsions:
REMARK  status: ('A' for Active; 'I' for Inactive)
REMARK    1  A    between atoms: C_2  and  C_19
REMARK    2  A    between atoms: N_3  and  C_4
REMARK    3  A    between atoms: C_4  and  C_5
REMARK    4  A    between atoms: C_8  and  C_9
REMARK    5  A    between atoms: C_9  and  O_10
REMARK    6  A    between atoms: O_10  and  C_11
REMARK                            x       y       z     vdW  Elec       q    Type
REMARK                         _______ _______ _______ _____ _____    ______ ____
ROOT
ATOM      1  O   UNL     1      47.810   4.902  17.398  0.00  0.00    +0.000 OA
ATOM      2  C   UNL     1      48.904   5.128  16.888  0.00  0.00    +0.000 C 
ATOM      3  N   UNL     1      49.048   5.891  15.761  0.00  0.00    +0.000 N 
ATOM      4  H   UNL     1      49.959   5.970  15.320  0.00  0.00    +0.000 HD
ENDROOT
BRANCH   2   5
ATOM      5  C   UNL     1      50.149   4.629  17.477  0.00  0.00    +0.000 A 
ATOM      6  C   UNL     1      50.940   5.476  18.244  0.00  0.00    +0.000 A 
ATOM      7  S   UNL     1      52.358   4.733  18.828  0.00  0.00    +0.000 S 
ATOM      8  C   UNL     1      51.945   3.247  18.114  0.00  0.00    +0.000 A 
ATOM      9  N   UNL     1      52.745   2.156  18.253  0.00  0.00    +0.000 NA
ATOM     10  C   UNL     1      52.288   1.084  17.697  0.00  0.00    +0.000 A 
ATOM     11  N   UNL     1      51.105   1.004  17.011  0.00  0.00    +0.000 N 
ATOM     12  C   UNL     1      50.292   2.088  16.796  0.00  0.00    +0.000 A 
ATOM     13  O   UNL     1      49.291   1.997  16.093  0.00  0.00    +0.000 OA
ATOM     14  C   UNL     1      50.746   3.316  17.425  0.00  0.00    +0.000 A 
ATOM     15  H   UNL     1      50.813   0.137  16.583  0.00  0.00    +0.000 HD
ENDBRANCH   2   5
BRANCH   3  16
ATOM     16  C   UNL     1      47.933   6.411  15.016  0.00  0.00    +0.000 C 
BRANCH  16  17
ATOM     17  C   UNL     1      47.912   5.917  13.558  0.00  0.00    +0.000 C 
ATOM     18  C   UNL     1      46.852   4.827  13.313  0.00  0.00    +0.000 C 
ATOM     19  C   UNL     1      45.424   5.368  13.374  0.00  0.00    +0.000 C 
ATOM     20  C   UNL     1      45.209   6.557  12.421  0.00  0.00    +0.000 C 
ATOM     21  C   UNL     1      46.261   7.649  12.667  0.00  0.00    +0.000 C 
ATOM     22  C   UNL     1      47.693   7.109  12.612  0.00  0.00    +0.000 C 
BRANCH  20  23
ATOM     23  C   UNL     1      45.210   6.130  10.943  0.00  0.00    +0.000 C 
BRANCH  23  24
ATOM     24  O   UNL     1      44.556   4.867  10.822  0.00  0.00    +0.000 OA
BRANCH  24  25
ATOM     25  C   UNL     1      45.021   4.030   9.847  0.00  0.00    +0.000 A 
ATOM     26  C   UNL     1      44.914   2.638   9.839  0.00  0.00    +0.000 A 
ATOM     27  C   UNL     1      45.447   1.898   8.781  0.00  0.00    +0.000 A 
ATOM     28  C   UNL     1      46.087   2.546   7.725  0.00  0.00    +0.000 A 
ATOM     29  C   UNL     1      46.192   3.935   7.725  0.00  0.00    +0.000 A 
ATOM     30  C   UNL     1      45.661   4.672   8.784  0.00  0.00    +0.000 A 
ENDBRANCH  24  25
ENDBRANCH  23  24
ENDBRANCH  20  23
ENDBRANCH  16  17
ENDBRANCH   3  16
TORSDOF 6
ENDMDL
MODEL 5
REMARK VINA RESULT:    -7.368      1.627      2.386
REMARK INTER + INTRA:         -10.881
REMARK INTER:                 -10.250
REMARK INTRA:                  -0.630
REMARK UNBOUND:                -0.928
REMARK  Name = 
REMARK  6 active torsions:
REMARK  status: ('A' for Active; 'I' for Inactive)
REMARK    1  A    between atoms: C_2  and  C_19
REMARK    2  A    between atoms: N_3  and  C_4
REMARK    3  A    between atoms: C_4  and  C_5
REMARK    4  A    between atoms: C_8  and  C_9
REMARK    5  A    between atoms: C_9  and  O_10
REMARK    6  A    between atoms: O_10  and  C_11
REMARK                            x       y       z     vdW  Elec       q    Type
REMARK                         _______ _______ _______ _____ _____    ______ ____
ROOT
ATOM      1  O   UNL     1      47.980   3.530  15.845  0.00  0.00    +0.000 OA
ATOM      2  C   UNL     1      47.902   4.680  16.268  0.00  0.00    +0.000 C 
ATOM      3  N   UNL     1      47.554   5.737  15.471  0.00  0.00    +0.000 N 
ATOM      4  H   UNL     1      47.597   6.681  15.840  0.00  0.00    +0.000 HD
ENDROOT
BRANCH   2   5
ATOM      5  C   UNL     1      48.136   5.002  17.677  0.00  0.00    +0.000 A 
ATOM      6  C   UNL     1      47.113   5.552  18.441  0.00  0.00    +0.000 A 
ATOM      7  S   UNL     1      47.571   5.882  20.049  0.00  0.00    +0.000 S 
ATOM      8  C   UNL     1      49.134   5.265  19.793  0.00  0.00    +0.000 A 
ATOM      9  N   UNL     1      50.049   5.233  20.799  0.00  0.00    +0.000 NA
ATOM     10  C   UNL     1      51.180   4.698  20.477  0.00  0.00    +0.000 A 
ATOM     11  N   UNL     1      51.480   4.195  19.239  0.00  0.00    +0.000 N 
ATOM     12  C   UNL     1      50.613   4.256  18.178  0.00  0.00    +0.000 A 
ATOM     13  O   UNL     1      50.956   3.886  17.060  0.00  0.00    +0.000 OA
ATOM     14  C   UNL     1      49.313   4.824  18.493  0.00  0.00    +0.000 A 
ATOM     15  H   UNL     1      52.392   3.807  19.047  0.00  0.00    +0.000 HD
ENDBRANCH   2   5
BRANCH   3  16
ATOM     16  C   UNL     1      47.348   5.616  14.052  0.00  0.00    +0.000 C 
BRANCH  16  17
ATOM     17  C   UNL     1      45.861   5.695  13.661  0.00  0.00    +0.000 C 
ATOM     18  C   UNL     1      45.611   6.626  12.459  0.00  0.00    +0.000 C 
ATOM     19  C   UNL     1      46.145   6.051  11.147  0.00  0.00    +0.000 C 
ATOM     20  C   UNL     1      45.602   4.640  10.863  0.00  0.00    +0.000 C 
ATOM     21  C   UNL     1      45.856   3.709  12.057  0.00  0.00    +0.000 C 
ATOM     22  C   UNL     1      45.326   4.283  13.374  0.00  0.00    +0.000 C 
BRANCH  20  23
ATOM     23  C   UNL     1      44.108   4.651  10.495  0.00  0.00    +0.000 C 
BRANCH  23  24
ATOM     24  O   UNL     1      43.969   4.377   9.102  0.00  0.00    +0.000 OA
BRANCH  24  25
ATOM     25  C   UNL     1      44.922   3.575   8.539  0.00  0.00    +0.000 A 
ATOM     26  C   UNL     1      45.908   3.980   7.637  0.00  0.00    +0.000 A 
ATOM     27  C   UNL     1      46.817   3.050   7.126  0.00  0.00    +0.000 A 
ATOM     28  C   UNL     1      46.747   1.713   7.517  0.00  0.00    +0.000 A 
ATOM     29  C   UNL     1      45.768   1.305   8.421  0.00  0.00    +0.000 A 
ATOM     30  C   UNL     1      44.860   2.235   8.928  0.00  0.00    +0.000 A 
ENDBRANCH  24  25
ENDBRANCH  23  24
ENDBRANCH  20  23
ENDBRANCH  16  17
ENDBRANCH   3  16
TORSDOF 6
ENDMDL
MODEL 6
REMARK VINA RESULT:    -7.326      2.423      3.361
REMARK INTER + INTRA:         -10.823
REMARK INTER:                 -10.197
REMARK INTRA:                  -0.627
REMARK UNBOUND:                -0.928
REMARK  Name = 
REMARK  6 active torsions:
REMARK  status: ('A' for Active; 'I' for Inactive)
REMARK    1  A    between atoms: C_2  and  C_19
REMARK    2  A    between atoms: N_3  and  C_4
REMARK    3  A    between atoms: C_4  and  C_5
REMARK    4  A    between atoms: C_8  and  C_9
REMARK    5  A    between atoms: C_9  and  O_10
REMARK    6  A    between atoms: O_10  and  C_11
REMARK                            x       y       z     vdW  Elec       q    Type
REMARK                         _______ _______ _______ _____ _____    ______ ____
ROOT
ATOM      1  O   UNL     1      49.485   6.411  14.896  0.00  0.00    +0.000 OA
ATOM      2  C   UNL     1      48.452   6.014  15.428  0.00  0.00    +0.000 C 
ATOM      3  N   UNL     1      47.247   6.002  14.779  0.00  0.00    +0.000 N 
ATOM      4  H   UNL     1      46.404   5.756  15.288  0.00  0.00    +0.000 HD
ENDROOT
BRANCH   2   5
ATOM      5  C   UNL     1      48.441   5.478  16.790  0.00  0.00    +0.000 A 
ATOM      6  C   UNL     1      48.574   4.110  16.998  0.00  0.00    +0.000 A 
ATOM      7  S   UNL     1      48.516   3.666  18.643  0.00  0.00    +0.000 S 
ATOM      8  C   UNL     1      48.355   5.285  19.135  0.00  0.00    +0.000 A 
ATOM      9  N   UNL     1      48.273   5.613  20.453  0.00  0.00    +0.000 NA
ATOM     10  C   UNL     1      48.199   6.881  20.685  0.00  0.00    +0.000 A 
ATOM     11  N   UNL     1      48.196   7.852  19.719  0.00  0.00    +0.000 N 
ATOM     12  C   UNL     1      48.219   7.570  18.376  0.00  0.00    +0.000 A 
ATOM     13  O   UNL     1      48.114   8.463  17.542  0.00  0.00    +0.000 OA
ATOM     14  C   UNL     1      48.331   6.157  18.060  0.00  0.00    +0.000 A 
ATOM     15  H   UNL     1      48.116   8.828  19.968  0.00  0.00    +0.000 HD
ENDBRANCH   2   5
BRANCH   3  16
ATOM     16  C   UNL     1      47.059   6.544  13.460  0.00  0.00    +0.000 C 
BRANCH  16  17
ATOM     17  C   UNL     1      46.790   5.457  12.405  0.00  0.00    +0.000 C 
ATOM     18  C   UNL     1      45.973   4.276  12.962  0.00  0.00    +0.000 C 
ATOM     19  C   UNL     1      44.521   4.650  13.255  0.00  0.00    +0.000 C 
ATOM     20  C   UNL     1      43.817   5.268  12.034  0.00  0.00    +0.000 C 
ATOM     21  C   UNL     1      44.626   6.450  11.481  0.00  0.00    +0.000 C 
ATOM     22  C   UNL     1      46.084   6.080  11.190  0.00  0.00    +0.000 C 
BRANCH  20  23
ATOM     23  C   UNL     1      43.548   4.232  10.929  0.00  0.00    +0.000 C 
BRANCH  23  24
ATOM     24  O   UNL     1      44.032   4.740   9.686  0.00  0.00    +0.000 OA
BRANCH  24  25
ATOM     25  C   UNL     1      44.875   3.927   8.981  0.00  0.00    +0.000 A 
ATOM     26  C   UNL     1      45.745   4.328   7.966  0.00  0.00    +0.000 A 
ATOM     27  C   UNL     1      46.546   3.387   7.314  0.00  0.00    +0.000 A 
ATOM     28  C   UNL     1      46.483   2.042   7.677  0.00  0.00    +0.000 A 
ATOM     29  C   UNL     1      45.620   1.637   8.693  0.00  0.00    +0.000 A 
ATOM     30  C   UNL     1      44.819   2.579   9.341  0.00  0.00    +0.000 A 
ENDBRANCH  24  25
ENDBRANCH  23  24
ENDBRANCH  20  23
ENDBRANCH  16  17
ENDBRANCH   3  16
TORSDOF 6
ENDMDL
MODEL 7
REMARK VINA RESULT:    -6.876      2.304      3.380
REMARK INTER + INTRA:         -10.216
REMARK INTER:                  -9.688
REMARK INTRA:                  -0.527
REMARK UNBOUND:                -0.928
REMARK  Name = 
REMARK  6 active torsions:
REMARK  status: ('A' for Active; 'I' for Inactive)
REMARK    1  A    between atoms: C_2  and  C_19
REMARK    2  A    between atoms: N_3  and  C_4
REMARK    3  A    between atoms: C_4  and  C_5
REMARK    4  A    between atoms: C_8  and  C_9
REMARK    5  A    between atoms: C_9  and  O_10
REMARK    6  A    between atoms: O_10  and  C_11
REMARK                            x       y       z     vdW  Elec       q    Type
REMARK                         _______ _______ _______ _____ _____    ______ ____
ROOT
ATOM      1  O   UNL     1      48.518   3.645  16.225  0.00  0.00    +0.000 OA
ATOM      2  C   UNL     1      48.000   4.741  16.420  0.00  0.00    +0.000 C 
ATOM      3  N   UNL     1      47.192   5.349  15.497  0.00  0.00    +0.000 N 
ATOM      4  H   UNL     1      46.865   6.295  15.661  0.00  0.00    +0.000 HD
ENDROOT
BRANCH   2   5
ATOM      5  C   UNL     1      48.175   5.464  17.681  0.00  0.00    +0.000 A 
ATOM      6  C   UNL     1      47.956   4.813  18.889  0.00  0.00    +0.000 A 
ATOM      7  S   UNL     1      48.184   5.814  20.249  0.00  0.00    +0.000 S 
ATOM      8  C   UNL     1      48.622   7.137  19.276  0.00  0.00    +0.000 A 
ATOM      9  N   UNL     1      48.968   8.331  19.829  0.00  0.00    +0.000 NA
ATOM     10  C   UNL     1      49.321   9.233  18.976  0.00  0.00    +0.000 A 
ATOM     11  N   UNL     1      49.357   9.052  17.618  0.00  0.00    +0.000 N 
ATOM     12  C   UNL     1      48.964   7.886  17.010  0.00  0.00    +0.000 A 
ATOM     13  O   UNL     1      48.916   7.798  15.788  0.00  0.00    +0.000 OA
ATOM     14  C   UNL     1      48.583   6.826  17.927  0.00  0.00    +0.000 A 
ATOM     15  H   UNL     1      49.625   9.806  17.003  0.00  0.00    +0.000 HD
ENDBRANCH   2   5
BRANCH   3  16
ATOM     16  C   UNL     1      46.958   4.812  14.183  0.00  0.00    +0.000 C 
BRANCH  16  17
ATOM     17  C   UNL     1      45.569   5.181  13.632  0.00  0.00    +0.000 C 
ATOM     18  C   UNL     1      45.639   6.188  12.468  0.00  0.00    +0.000 C 
ATOM     19  C   UNL     1      46.217   5.576  11.192  0.00  0.00    +0.000 C 
ATOM     20  C   UNL     1      45.469   4.302  10.763  0.00  0.00    +0.000 C 
ATOM     21  C   UNL     1      45.403   3.294  11.920  0.00  0.00    +0.000 C 
ATOM     22  C   UNL     1      44.829   3.905  13.201  0.00  0.00    +0.000 C 
BRANCH  20  23
ATOM     23  C   UNL     1      44.058   4.604  10.230  0.00  0.00    +0.000 C 
BRANCH  23  24
ATOM     24  O   UNL     1      43.998   4.258   8.847  0.00  0.00    +0.000 OA
BRANCH  24  25
ATOM     25  C   UNL     1      44.944   3.380   8.396  0.00  0.00    +0.000 A 
ATOM     26  C   UNL     1      45.011   2.019   8.697  0.00  0.00    +0.000 A 
ATOM     27  C   UNL     1      46.043   1.234   8.175  0.00  0.00    +0.000 A 
ATOM     28  C   UNL     1      47.010   1.807   7.350  0.00  0.00    +0.000 A 
ATOM     29  C   UNL     1      46.944   3.164   7.042  0.00  0.00    +0.000 A 
ATOM     30  C   UNL     1      45.913   3.946   7.565  0.00  0.00    +0.000 A 
ENDBRANCH  24  25
ENDBRANCH  23  24
ENDBRANCH  20  23
ENDBRANCH  16  17
ENDBRANCH   3  16
TORSDOF 6
ENDMDL
MODEL 8
REMARK VINA RESULT:    -6.756      3.893      8.687
REMARK INTER + INTRA:         -10.053
REMARK INTER:                  -9.375
REMARK INTRA:                  -0.678
REMARK UNBOUND:                -0.928
REMARK  Name = 
REMARK  6 active torsions:
REMARK  status: ('A' for Active; 'I' for Inactive)
REMARK    1  A    between atoms: C_2  and  C_19
REMARK    2  A    between atoms: N_3  and  C_4
REMARK    3  A    between atoms: C_4  and  C_5
REMARK    4  A    between atoms: C_8  and  C_9
REMARK    5  A    between atoms: C_9  and  O_10
REMARK    6  A    between atoms: O_10  and  C_11
REMARK                            x       y       z     vdW  Elec       q    Type
REMARK                         _______ _______ _______ _____ _____    ______ ____
ROOT
ATOM      1  O   UNL     1      48.650   6.213  12.797  0.00  0.00    +0.000 OA
ATOM      2  C   UNL     1      47.592   6.554  13.319  0.00  0.00    +0.000 C 
ATOM      3  N   UNL     1      47.540   7.225  14.511  0.00  0.00    +0.000 N 
ATOM      4  H   UNL     1      46.642   7.401  14.951  0.00  0.00    +0.000 HD
ENDROOT
BRANCH   2   5
ATOM      5  C   UNL     1      46.299   6.302  12.679  0.00  0.00    +0.000 A 
ATOM      6  C   UNL     1      45.615   7.346  12.066  0.00  0.00    +0.000 A 
ATOM      7  S   UNL     1      44.121   6.874  11.395  0.00  0.00    +0.000 S 
ATOM      8  C   UNL     1      44.355   5.256  11.861  0.00  0.00    +0.000 A 
ATOM      9  N   UNL     1      43.433   4.301  11.566  0.00  0.00    +0.000 NA
ATOM     10  C   UNL     1      43.759   3.109  11.939  0.00  0.00    +0.000 A 
ATOM     11  N   UNL     1      44.923   2.785  12.585  0.00  0.00    +0.000 N 
ATOM     12  C   UNL     1      45.857   3.720  12.955  0.00  0.00    +0.000 A 
ATOM     13  O   UNL     1      46.838   3.404  13.620  0.00  0.00    +0.000 OA
ATOM     14  C   UNL     1      45.552   5.076  12.534  0.00  0.00    +0.000 A 
ATOM     15  H   UNL     1      45.110   1.834  12.868  0.00  0.00    +0.000 HD
ENDBRANCH   2   5
BRANCH   3  16
ATOM     16  C   UNL     1      48.705   7.503  15.307  0.00  0.00    +0.000 C 
BRANCH  16  17
ATOM     17  C   UNL     1      49.372   6.226  15.847  0.00  0.00    +0.000 C 
ATOM     18  C   UNL     1      50.723   6.503  16.533  0.00  0.00    +0.000 C 
ATOM     19  C   UNL     1      50.568   7.240  17.864  0.00  0.00    +0.000 C 
ATOM     20  C   UNL     1      49.610   6.515  18.826  0.00  0.00    +0.000 C 
ATOM     21  C   UNL     1      48.260   6.242  18.146  0.00  0.00    +0.000 C 
ATOM     22  C   UNL     1      48.412   5.509  16.810  0.00  0.00    +0.000 C 
BRANCH  20  23
ATOM     23  C   UNL     1      50.211   5.210  19.376  0.00  0.00    +0.000 C 
BRANCH  23  24
ATOM     24  O   UNL     1      51.481   4.987  18.766  0.00  0.00    +0.000 OA
BRANCH  24  25
ATOM     25  C   UNL     1      51.749   3.708  18.364  0.00  0.00    +0.000 A 
ATOM     26  C   UNL     1      52.953   3.026  18.545  0.00  0.00    +0.000 A 
ATOM     27  C   UNL     1      53.098   1.719  18.071  0.00  0.00    +0.000 A 
ATOM     28  C   UNL     1      52.040   1.089  17.418  0.00  0.00    +0.000 A 
ATOM     29  C   UNL     1      50.834   1.764  17.240  0.00  0.00    +0.000 A 
ATOM     30  C   UNL     1      50.692   3.069  17.711  0.00  0.00    +0.000 A 
ENDBRANCH  24  25
ENDBRANCH  23  24
ENDBRANCH  20  23
ENDBRANCH  16  17
ENDBRANCH   3  16
TORSDOF 6
ENDMDL
MODEL 9
REMARK VINA RESULT:    -6.497      3.862      9.679
REMARK INTER + INTRA:          -9.704
REMARK INTER:                  -8.666
REMARK INTRA:                  -1.038
REMARK UNBOUND:                -0.928
REMARK  Name = 
REMARK  6 active torsions:
REMARK  status: ('A' for Active; 'I' for Inactive)
REMARK    1  A    between atoms: C_2  and  C_19
REMARK    2  A    between atoms: N_3  and  C_4
REMARK    3  A    between atoms: C_4  and  C_5
REMARK    4  A    between atoms: C_8  and  C_9
REMARK    5  A    between atoms: C_9  and  O_10
REMARK    6  A    between atoms: O_10  and  C_11
REMARK                            x       y       z     vdW  Elec       q    Type
REMARK                         _______ _______ _______ _____ _____    ______ ____
ROOT
ATOM      1  O   UNL     1      47.305   3.382  13.648  0.00  0.00    +0.000 OA
ATOM      2  C   UNL     1      46.747   4.338  14.179  0.00  0.00    +0.000 C 
ATOM      3  N   UNL     1      46.759   4.540  15.533  0.00  0.00    +0.000 N 
ATOM      4  H   UNL     1      46.204   5.289  15.935  0.00  0.00    +0.000 HD
ENDROOT
BRANCH   2   5
ATOM      5  C   UNL     1      46.060   5.365  13.393  0.00  0.00    +0.000 A 
ATOM      6  C   UNL     1      46.689   6.579  13.139  0.00  0.00    +0.000 A 
ATOM      7  S   UNL     1      45.733   7.659  12.230  0.00  0.00    +0.000 S 
ATOM      8  C   UNL     1      44.467   6.531  12.110  0.00  0.00    +0.000 A 
ATOM      9  N   UNL     1      43.329   6.824  11.425  0.00  0.00    +0.000 NA
ATOM     10  C   UNL     1      42.471   5.860  11.377  0.00  0.00    +0.000 A 
ATOM     11  N   UNL     1      42.645   4.630  11.954  0.00  0.00    +0.000 N 
ATOM     12  C   UNL     1      43.749   4.307  12.702  0.00  0.00    +0.000 A 
ATOM     13  O   UNL     1      43.822   3.230  13.286  0.00  0.00    +0.000 OA
ATOM     14  C   UNL     1      44.760   5.347  12.766  0.00  0.00    +0.000 A 
ATOM     15  H   UNL     1      41.925   3.925  11.895  0.00  0.00    +0.000 HD
ENDBRANCH   2   5
BRANCH   3  16
ATOM     16  C   UNL     1      47.333   3.604  16.461  0.00  0.00    +0.000 C 
BRANCH  16  17
ATOM     17  C   UNL     1      47.667   4.246  17.820  0.00  0.00    +0.000 C 
ATOM     18  C   UNL     1      48.748   3.469  18.596  0.00  0.00    +0.000 C 
ATOM     19  C   UNL     1      50.132   3.589  17.959  0.00  0.00    +0.000 C 
ATOM     20  C   UNL     1      50.558   5.053  17.756  0.00  0.00    +0.000 C 
ATOM     21  C   UNL     1      49.485   5.828  16.977  0.00  0.00    +0.000 C 
ATOM     22  C   UNL     1      48.096   5.707  17.610  0.00  0.00    +0.000 C 
BRANCH  20  23
ATOM     23  C   UNL     1      50.876   5.760  19.085  0.00  0.00    +0.000 C 
BRANCH  23  24
ATOM     24  O   UNL     1      51.080   7.150  18.838  0.00  0.00    +0.000 OA
BRANCH  24  25
ATOM     25  C   UNL     1      50.239   8.015  19.481  0.00  0.00    +0.000 A 
ATOM     26  C   UNL     1      50.182   9.397  19.293  0.00  0.00    +0.000 A 
ATOM     27  C   UNL     1      49.278  10.169  20.029  0.00  0.00    +0.000 A 
ATOM     28  C   UNL     1      48.428   9.562  20.952  0.00  0.00    +0.000 A 
ATOM     29  C   UNL     1      48.477   8.182  21.139  0.00  0.00    +0.000 A 
ATOM     30  C   UNL     1      49.381   7.414  20.405  0.00  0.00    +0.000 A 
ENDBRANCH  24  25
ENDBRANCH  23  24
ENDBRANCH  20  23
ENDBRANCH  16  17
ENDBRANCH   3  16
TORSDOF 6
ENDMDL
