MODEL 1
REMARK VINA RESULT:    -6.905      0.000      0.000
REMARK INTER + INTRA:          -9.013
REMARK INTER:                  -8.519
REMARK INTRA:                  -0.494
REMARK UNBOUND:                -0.494
REMARK  Name = 
REMARK  6 active torsions:
REMARK  status: ('A' for Active; 'I' for Inactive)
REMARK    1  A    between atoms: C_1  and  C_2
REMARK    2  A    between atoms: C_2  and  C_3
REMARK    3  A    between atoms: C_2  and  C_4
REMARK    4  A    between atoms: C_2  and  C_15
REMARK    5  A    between atoms: C_5  and  C_6
REMARK    6  A    between atoms: C_9  and  C_10
REMARK                            x       y       z     vdW  Elec       q    Type
REMARK                         _______ _______ _______ _____ _____    ______ ____
ROOT
ATOM      1  C   UNL     1      45.233   3.974  12.141  0.00  0.00    +0.000 C 
ATOM      2  C   UNL     1      45.753   5.145  12.557  0.00  0.00    +0.000 C 
ENDROOT
BRANCH   2   3
ATOM      3  C   UNL     1      46.658   5.249  13.714  0.00  0.00    +0.000 A 
ATOM      4  C   UNL     1      47.585   6.279  13.806  0.00  0.00    +0.000 A 
ATOM      5  C   UNL     1      48.422   6.335  14.924  0.00  0.00    +0.000 A 
ATOM      6  C   UNL     1      48.316   5.367  15.927  0.00  0.00    +0.000 A 
ATOM      7  C   UNL     1      47.359   4.382  15.751  0.00  0.00    +0.000 A 
ATOM      8  N   UNL     1      46.536   4.302  14.677  0.00  0.00    +0.000 NA
BRANCH   6   9
ATOM      9  C   UNL     1      49.209   5.437  17.108  0.00  0.00    +0.000 C 
ATOM     10  N   UNL     1      48.711   5.898  18.295  0.00  0.00    +0.000 N 
ATOM     11  O   UNL     1      50.382   5.087  17.032  0.00  0.00    +0.000 OA
ATOM     12  H   UNL     1      47.765   6.197  18.472  0.00  0.00    +0.000 HD
ATOM     13  H   UNL     1      49.356   5.919  19.075  0.00  0.00    +0.000 HD
ENDBRANCH   6   9
ENDBRANCH   2   3
BRANCH   1  15
ATOM     14  C   UNL     1      43.362   2.559  11.402  0.00  0.00    +0.000 C 
ATOM     15  C   UNL     1      44.282   3.724  10.974  0.00  0.00    +0.000 C 
ATOM     16  C   UNL     1      43.385   4.978  10.824  0.00  0.00    +0.000 C 
BRANCH  15  17
ATOM     17  C   UNL     1      45.000   3.479   9.639  0.00  0.00    +0.000 A 
ATOM     18  C   UNL     1      45.291   2.176   9.201  0.00  0.00    +0.000 A 
ATOM     19  C   UNL     1      45.952   1.963   7.993  0.00  0.00    +0.000 A 
ATOM     20  C   UNL     1      46.314   3.065   7.243  0.00  0.00    +0.000 A 
ATOM     21  N   UNL     1      46.062   4.335   7.616  0.00  0.00    +0.000 NA
ATOM     22  C   UNL     1      45.419   4.509   8.796  0.00  0.00    +0.000 A 
ENDBRANCH  15  17
ENDBRANCH   1  15
TORSDOF 4
ENDMDL
MODEL 2
REMARK VINA RESULT:    -6.839      1.595      2.062
REMARK INTER + INTRA:          -8.932
REMARK INTER:                  -8.376
REMARK INTRA:                  -0.557
REMARK UNBOUND:                -0.494
REMARK  Name = 
REMARK  6 active torsions:
REMARK  status: ('A' for Active; 'I' for Inactive)
REMARK    1  A    between atoms: C_1  and  C_2
REMARK    2  A    between atoms: C_2  and  C_3
REMARK    3  A    between atoms: C_2  and  C_4
REMARK    4  A    between atoms: C_2  and  C_15
REMARK    5  A    between atoms: C_5  and  C_6
REMARK    6  A    between atoms: C_9  and  C_10
REMARK                            x       y       z     vdW  Elec       q    Type
REMARK                         _______ _______ _______ _____ _____    ______ ____
ROOT
ATOM      1  C   UNL     1      45.114   4.889  13.072  0.00  0.00    +0.000 C 
ATOM      2  C   UNL     1      46.456   4.876  13.184  0.00  0.00    +0.000 C 
ENDROOT
BRANCH   2   3
ATOM      3  C   UNL     1      47.148   4.541  14.439  0.00  0.00    +0.000 A 
ATOM      4  C   UNL     1      47.576   5.536  15.308  0.00  0.00    +0.000 A 
ATOM      5  C   UNL     1      48.229   5.167  16.487  0.00  0.00    +0.000 A 
ATOM      6  C   UNL     1      48.440   3.816  16.777  0.00  0.00    +0.000 A 
ATOM      7  C   UNL     1      47.974   2.896  15.854  0.00  0.00    +0.000 A 
ATOM      8  N   UNL     1      47.340   3.225  14.703  0.00  0.00    +0.000 NA
BRANCH   6   9
ATOM      9  C   UNL     1      49.135   3.438  18.031  0.00  0.00    +0.000 C 
ATOM     10  N   UNL     1      48.394   3.169  19.148  0.00  0.00    +0.000 N 
ATOM     11  O   UNL     1      50.358   3.363  18.075  0.00  0.00    +0.000 OA
ATOM     12  H   UNL     1      47.389   3.188  19.220  0.00  0.00    +0.000 HD
ATOM     13  H   UNL     1      48.912   2.907  19.978  0.00  0.00    +0.000 HD
ENDBRANCH   6   9
ENDBRANCH   2   3
BRANCH   1  15
ATOM     14  C   UNL     1      42.795   5.146  12.293  0.00  0.00    +0.000 C 
ATOM     15  C   UNL     1      44.271   5.226  11.844  0.00  0.00    +0.000 C 
ATOM     16  C   UNL     1      44.553   6.704  11.474  0.00  0.00    +0.000 C 
BRANCH  15  17
ATOM     17  C   UNL     1      44.589   4.351  10.624  0.00  0.00    +0.000 A 
ATOM     18  C   UNL     1      45.278   4.873   9.516  0.00  0.00    +0.000 A 
ATOM     19  C   UNL     1      45.553   4.075   8.408  0.00  0.00    +0.000 A 
ATOM     20  C   UNL     1      45.128   2.761   8.429  0.00  0.00    +0.000 A 
ATOM     21  N   UNL     1      44.463   2.209   9.461  0.00  0.00    +0.000 NA
ATOM     22  C   UNL     1      44.209   3.012  10.524  0.00  0.00    +0.000 A 
ENDBRANCH  15  17
ENDBRANCH   1  15
TORSDOF 4
ENDMDL
MODEL 3
REMARK VINA RESULT:    -6.757      1.360      1.664
REMARK INTER + INTRA:          -8.831
REMARK INTER:                  -8.298
REMARK INTRA:                  -0.533
REMARK UNBOUND:                -0.494
REMARK  Name = 
REMARK  6 active torsions:
REMARK  status: ('A' for Active; 'I' for Inactive)
REMARK    1  A    between atoms: C_1  and  C_2
REMARK    2  A    between atoms: C_2  and  C_3
REMARK    3  A    between atoms: C_2  and  C_4
REMARK    4  A    between atoms: C_2  and  C_15
REMARK    5  A    between atoms: C_5  and  C_6
REMARK    6  A    between atoms: C_9  and  C_10
REMARK                            x       y       z     vdW  Elec       q    Type
REMARK                         _______ _______ _______ _____ _____    ______ ____
ROOT
ATOM      1  C   UNL     1      45.193   5.012  12.968  0.00  0.00    +0.000 C 
ATOM      2  C   UNL     1      46.478   5.327  13.214  0.00  0.00    +0.000 C 
ENDROOT
BRANCH   2   3
ATOM      3  C   UNL     1      47.174   4.930  14.450  0.00  0.00    +0.000 A 
ATOM      4  C   UNL     1      47.880   5.859  15.203  0.00  0.00    +0.000 A 
ATOM      5  C   UNL     1      48.524   5.434  16.368  0.00  0.00    +0.000 A 
ATOM      6  C   UNL     1      48.449   4.094  16.759  0.00  0.00    +0.000 A 
ATOM      7  C   UNL     1      47.719   3.242  15.949  0.00  0.00    +0.000 A 
ATOM      8  N   UNL     1      47.087   3.627  14.813  0.00  0.00    +0.000 NA
BRANCH   6   9
ATOM      9  C   UNL     1      49.137   3.655  17.997  0.00  0.00    +0.000 C 
ATOM     10  N   UNL     1      48.400   3.114  19.014  0.00  0.00    +0.000 N 
ATOM     11  O   UNL     1      50.352   3.770  18.117  0.00  0.00    +0.000 OA
ATOM     12  H   UNL     1      47.403   2.962  19.017  0.00  0.00    +0.000 HD
ATOM     13  H   UNL     1      48.915   2.821  19.835  0.00  0.00    +0.000 HD
ENDBRANCH   6   9
ENDBRANCH   2   3
BRANCH   1  15
ATOM     14  C   UNL     1      42.880   5.095  12.134  0.00  0.00    +0.000 C 
ATOM     15  C   UNL     1      44.351   5.364  11.744  0.00  0.00    +0.000 C 
ATOM     16  C   UNL     1      44.485   6.890  11.508  0.00  0.00    +0.000 C 
BRANCH  15  17
ATOM     17  C   UNL     1      44.790   4.635  10.467  0.00  0.00    +0.000 A 
ATOM     18  C   UNL     1      44.464   3.285  10.255  0.00  0.00    +0.000 A 
ATOM     19  C   UNL     1      44.874   2.628   9.097  0.00  0.00    +0.000 A 
ATOM     20  C   UNL     1      45.611   3.338   8.169  0.00  0.00    +0.000 A 
ATOM     21  N   UNL     1      45.953   4.631   8.322  0.00  0.00    +0.000 NA
ATOM     22  C   UNL     1      45.540   5.242   9.459  0.00  0.00    +0.000 A 
ENDBRANCH  15  17
ENDBRANCH   1  15
TORSDOF 4
ENDMDL
MODEL 4
REMARK VINA RESULT:    -6.351      2.988      7.847
REMARK INTER + INTRA:          -8.330
REMARK INTER:                  -7.834
REMARK INTRA:                  -0.496
REMARK UNBOUND:                -0.494
REMARK  Name = 
REMARK  6 active torsions:
REMARK  status: ('A' for Active; 'I' for Inactive)
REMARK    1  A    between atoms: C_1  and  C_2
REMARK    2  A    between atoms: C_2  and  C_3
REMARK    3  A    between atoms: C_2  and  C_4
REMARK    4  A    between atoms: C_2  and  C_15
REMARK    5  A    between atoms: C_5  and  C_6
REMARK    6  A    between atoms: C_9  and  C_10
REMARK                            x       y       z     vdW  Elec       q    Type
REMARK                         _______ _______ _______ _____ _____    ______ ____
ROOT
ATOM      1  C   UNL     1      47.534   4.676  15.818  0.00  0.00    +0.000 C 
ATOM      2  C   UNL     1      47.458   5.388  14.678  0.00  0.00    +0.000 C 
ENDROOT
BRANCH   2   3
ATOM      3  C   UNL     1      46.627   4.976  13.534  0.00  0.00    +0.000 A 
ATOM      4  C   UNL     1      46.377   5.846  12.481  0.00  0.00    +0.000 A 
ATOM      5  C   UNL     1      45.582   5.408  11.418  0.00  0.00    +0.000 A 
ATOM      6  C   UNL     1      45.056   4.113  11.425  0.00  0.00    +0.000 A 
ATOM      7  C   UNL     1      45.363   3.316  12.514  0.00  0.00    +0.000 A 
ATOM      8  N   UNL     1      46.129   3.715  13.559  0.00  0.00    +0.000 NA
BRANCH   6   9
ATOM      9  C   UNL     1      44.214   3.661  10.292  0.00  0.00    +0.000 C 
ATOM     10  N   UNL     1      43.929   4.537   9.282  0.00  0.00    +0.000 N 
ATOM     11  O   UNL     1      43.775   2.517  10.251  0.00  0.00    +0.000 OA
ATOM     12  H   UNL     1      44.246   5.491   9.208  0.00  0.00    +0.000 HD
ATOM     13  H   UNL     1      43.358   4.180   8.525  0.00  0.00    +0.000 HD
ENDBRANCH   6   9
ENDBRANCH   2   3
BRANCH   1  15
ATOM     14  C   UNL     1      48.789   6.458  16.959  0.00  0.00    +0.000 C 
ATOM     15  C   UNL     1      48.357   4.978  17.067  0.00  0.00    +0.000 C 
ATOM     16  C   UNL     1      47.409   4.871  18.289  0.00  0.00    +0.000 C 
BRANCH  15  17
ATOM     17  C   UNL     1      49.530   4.011  17.278  0.00  0.00    +0.000 A 
ATOM     18  C   UNL     1      49.395   2.638  17.013  0.00  0.00    +0.000 A 
ATOM     19  C   UNL     1      50.463   1.766  17.216  0.00  0.00    +0.000 A 
ATOM     20  C   UNL     1      51.652   2.288  17.687  0.00  0.00    +0.000 A 
ATOM     21  N   UNL     1      51.836   3.594  17.959  0.00  0.00    +0.000 NA
ATOM     22  C   UNL     1      50.778   4.416  17.752  0.00  0.00    +0.000 A 
ENDBRANCH  15  17
ENDBRANCH   1  15
TORSDOF 4
ENDMDL
MODEL 5
REMARK VINA RESULT:    -6.111      4.577      7.547
REMARK INTER + INTRA:          -8.034
REMARK INTER:                  -7.539
REMARK INTRA:                  -0.495
REMARK UNBOUND:                -0.494
REMARK  Name = 
REMARK  6 active torsions:
REMARK  status: ('A' for Active; 'I' for Inactive)
REMARK    1  A    between atoms: C_1  and  C_2
REMARK    2  A    between atoms: C_2  and  C_3
REMARK    3  A    between atoms: C_2  and  C_4
REMARK    4  A    between atoms: C_2  and  C_15
REMARK    5  A    between atoms: C_5  and  C_6
REMARK    6  A    between atoms: C_9  and  C_10
REMARK                            x       y       z     vdW  Elec       q    Type
REMARK                         _______ _______ _______ _____ _____    ______ ____
ROOT
ATOM      1  C   UNL     1      44.762   5.698  10.677  0.00  0.00    +0.000 C 
ATOM      2  C   UNL     1      44.480   4.494  10.147  0.00  0.00    +0.000 C 
ENDROOT
BRANCH   2   3
ATOM      3  C   UNL     1      45.311   3.865   9.106  0.00  0.00    +0.000 A 
ATOM      4  C   UNL     1      46.031   4.637   8.204  0.00  0.00    +0.000 A 
ATOM      5  C   UNL     1      46.805   3.994   7.233  0.00  0.00    +0.000 A 
ATOM      6  C   UNL     1      46.846   2.598   7.184  0.00  0.00    +0.000 A 
ATOM      7  C   UNL     1      46.100   1.913   8.127  0.00  0.00    +0.000 A 
ATOM      8  N   UNL     1      45.339   2.510   9.077  0.00  0.00    +0.000 NA
BRANCH   6   9
ATOM      9  C   UNL     1      47.671   1.928   6.150  0.00  0.00    +0.000 C 
ATOM     10  N   UNL     1      48.149   2.661   5.100  0.00  0.00    +0.000 N 
ATOM     11  O   UNL     1      47.927   0.731   6.228  0.00  0.00    +0.000 OA
ATOM     12  H   UNL     1      48.011   3.647   4.945  0.00  0.00    +0.000 HD
ATOM     13  H   UNL     1      48.714   2.162   4.424  0.00  0.00    +0.000 HD
ENDBRANCH   6   9
ENDBRANCH   2   3
BRANCH   1  15
ATOM     14  C   UNL     1      42.517   6.001  11.637  0.00  0.00    +0.000 C 
ATOM     15  C   UNL     1      43.988   6.465  11.746  0.00  0.00    +0.000 C 
ATOM     16  C   UNL     1      44.509   5.999  13.128  0.00  0.00    +0.000 C 
BRANCH  15  17
ATOM     17  C   UNL     1      44.157   7.988  11.652  0.00  0.00    +0.000 A 
ATOM     18  C   UNL     1      45.229   8.639  12.286  0.00  0.00    +0.000 A 
ATOM     19  C   UNL     1      45.369  10.023  12.204  0.00  0.00    +0.000 A 
ATOM     20  C   UNL     1      44.428  10.734  11.486  0.00  0.00    +0.000 A 
ATOM     21  N   UNL     1      43.382  10.162  10.860  0.00  0.00    +0.000 NA
ATOM     22  C   UNL     1      43.271   8.814  10.959  0.00  0.00    +0.000 A 
ENDBRANCH  15  17
ENDBRANCH   1  15
TORSDOF 4
ENDMDL
MODEL 6
REMARK VINA RESULT:    -5.911      2.024      2.298
REMARK INTER + INTRA:          -7.787
REMARK INTER:                  -7.375
REMARK INTRA:                  -0.411
REMARK UNBOUND:                -0.494
REMARK  Name = 
REMARK  6 active torsions:
REMARK  status: ('A' for Active; 'I' for Inactive)
REMARK    1  A    between atoms: C_1  and  C_2
REMARK    2  A    between atoms: C_2  and  C_3
REMARK    3  A    between atoms: C_2  and  C_4
REMARK    4  A    between atoms: C_2  and  C_15
REMARK    5  A    between atoms: C_5  and  C_6
REMARK    6  A    between atoms: C_9  and  C_10
REMARK                            x       y       z     vdW  Elec       q    Type
REMARK                         _______ _______ _______ _____ _____    ______ ____
ROOT
ATOM      1  C   UNL     1      45.795   5.163  12.190  0.00  0.00    +0.000 C 
ATOM      2  C   UNL     1      46.546   6.232  11.863  0.00  0.00    +0.000 C 
ENDROOT
BRANCH   2   3
ATOM      3  C   UNL     1      47.678   6.692  12.685  0.00  0.00    +0.000 A 
ATOM      4  C   UNL     1      48.708   7.440  12.129  0.00  0.00    +0.000 A 
ATOM      5  C   UNL     1      49.760   7.854  12.949  0.00  0.00    +0.000 A 
ATOM      6  C   UNL     1      49.764   7.516  14.306  0.00  0.00    +0.000 A 
ATOM      7  C   UNL     1      48.694   6.772  14.771  0.00  0.00    +0.000 A 
ATOM      8  N   UNL     1      47.661   6.356  13.998  0.00  0.00    +0.000 NA
BRANCH   6   9
ATOM      9  C   UNL     1      50.887   7.960  15.166  0.00  0.00    +0.000 C 
ATOM     10  N   UNL     1      52.109   7.361  15.030  0.00  0.00    +0.000 N 
ATOM     11  O   UNL     1      50.733   8.854  15.991  0.00  0.00    +0.000 OA
ATOM     12  H   UNL     1      52.349   6.630  14.379  0.00  0.00    +0.000 HD
ATOM     13  H   UNL     1      52.847   7.705  15.633  0.00  0.00    +0.000 HD
ENDBRANCH   6   9
ENDBRANCH   2   3
BRANCH   1  15
ATOM     14  C   UNL     1      43.883   3.634  12.429  0.00  0.00    +0.000 C 
ATOM     15  C   UNL     1      44.596   4.586  11.442  0.00  0.00    +0.000 C 
ATOM     16  C   UNL     1      43.618   5.753  11.154  0.00  0.00    +0.000 C 
BRANCH  15  17
ATOM     17  C   UNL     1      44.966   3.922  10.109  0.00  0.00    +0.000 A 
ATOM     18  C   UNL     1      44.951   2.524   9.966  0.00  0.00    +0.000 A 
ATOM     19  C   UNL     1      45.298   1.930   8.755  0.00  0.00    +0.000 A 
ATOM     20  C   UNL     1      45.658   2.750   7.704  0.00  0.00    +0.000 A 
ATOM     21  N   UNL     1      45.692   4.094   7.785  0.00  0.00    +0.000 NA
ATOM     22  C   UNL     1      45.350   4.643   8.977  0.00  0.00    +0.000 A 
ENDBRANCH  15  17
ENDBRANCH   1  15
TORSDOF 4
ENDMDL
MODEL 7
REMARK VINA RESULT:    -5.730      2.918      8.023
REMARK INTER + INTRA:          -7.564
REMARK INTER:                  -7.050
REMARK INTRA:                  -0.514
REMARK UNBOUND:                -0.494
REMARK  Name = 
REMARK  6 active torsions:
REMARK  status: ('A' for Active; 'I' for Inactive)
REMARK    1  A    between atoms: C_1  and  C_2
REMARK    2  A    between atoms: C_2  and  C_3
REMARK    3  A    between atoms: C_2  and  C_4
REMARK    4  A    between atoms: C_2  and  C_15
REMARK    5  A    between atoms: C_5  and  C_6
REMARK    6  A    between atoms: C_9  and  C_10
REMARK                            x       y       z     vdW  Elec       q    Type
REMARK                         _______ _______ _______ _____ _____    ______ ____
ROOT
ATOM      1  C   UNL     1      47.505   3.614  15.862  0.00  0.00    +0.000 C 
ATOM      2  C   UNL     1      47.516   4.689  15.051  0.00  0.00    +0.000 C 
ENDROOT
BRANCH   2   3
ATOM      3  C   UNL     1      46.718   4.765  13.816  0.00  0.00    +0.000 A 
ATOM      4  C   UNL     1      46.703   5.918  13.044  0.00  0.00    +0.000 A 
ATOM      5  C   UNL     1      45.929   5.941  11.880  0.00  0.00    +0.000 A 
ATOM      6  C   UNL     1      45.189   4.815  11.510  0.00  0.00    +0.000 A 
ATOM      7  C   UNL     1      45.269   3.710  12.339  0.00  0.00    +0.000 A 
ATOM      8  N   UNL     1      46.009   3.660  13.474  0.00  0.00    +0.000 NA
BRANCH   6   9
ATOM      9  C   UNL     1      44.372   4.852  10.274  0.00  0.00    +0.000 C 
ATOM     10  N   UNL     1      44.992   4.744   9.060  0.00  0.00    +0.000 N 
ATOM     11  O   UNL     1      43.153   4.976  10.328  0.00  0.00    +0.000 OA
ATOM     12  H   UNL     1      45.981   4.626   8.901  0.00  0.00    +0.000 HD
ATOM     13  H   UNL     1      44.392   4.766   8.245  0.00  0.00    +0.000 HD
ENDBRANCH   6   9
ENDBRANCH   2   3
BRANCH   1  15
ATOM     14  C   UNL     1      47.305   2.736  18.151  0.00  0.00    +0.000 C 
ATOM     15  C   UNL     1      48.285   3.398  17.156  0.00  0.00    +0.000 C 
ATOM     16  C   UNL     1      49.401   2.365  16.864  0.00  0.00    +0.000 C 
BRANCH  15  17
ATOM     17  C   UNL     1      48.937   4.677  17.700  0.00  0.00    +0.000 A 
ATOM     18  C   UNL     1      50.278   4.986  17.412  0.00  0.00    +0.000 A 
ATOM     19  C   UNL     1      50.865   6.143  17.917  0.00  0.00    +0.000 A 
ATOM     20  C   UNL     1      50.096   6.974  18.708  0.00  0.00    +0.000 A 
ATOM     21  N   UNL     1      48.809   6.727  19.017  0.00  0.00    +0.000 NA
ATOM     22  C   UNL     1      48.266   5.592  18.511  0.00  0.00    +0.000 A 
ENDBRANCH  15  17
ENDBRANCH   1  15
TORSDOF 4
ENDMDL
MODEL 8
REMARK VINA RESULT:    -5.706      4.766      7.123
REMARK INTER + INTRA:          -7.534
REMARK INTER:                  -7.003
REMARK INTRA:                  -0.531
REMARK UNBOUND:                -0.494
REMARK  Name = 
REMARK  6 active torsions:
REMARK  status: ('A' for Active; 'I' for Inactive)
REMARK    1  A    between atoms: C_1  and  C_2
REMARK    2  A    between atoms: C_2  and  C_3
REMARK    3  A    between atoms: C_2  and  C_4
REMARK    4  A    between atoms: C_2  and  C_15
REMARK    5  A    between atoms: C_5  and  C_6
REMARK    6  A    between atoms: C_9  and  C_10
REMARK                            x       y       z     vdW  Elec       q    Type
REMARK                         _______ _______ _______ _____ _____    ______ ____
ROOT
ATOM      1  C   UNL     1      48.624   7.903  11.655  0.00  0.00    +0.000 C 
ATOM      2  C   UNL     1      47.850   7.318  12.588  0.00  0.00    +0.000 C 
ENDROOT
BRANCH   2   3
ATOM      3  C   UNL     1      46.882   6.254  12.269  0.00  0.00    +0.000 A 
ATOM      4  C   UNL     1      46.168   6.271  11.079  0.00  0.00    +0.000 A 
ATOM      5  C   UNL     1      45.260   5.239  10.822  0.00  0.00    +0.000 A 
ATOM      6  C   UNL     1      45.085   4.213  11.755  0.00  0.00    +0.000 A 
ATOM      7  C   UNL     1      45.844   4.279  12.911  0.00  0.00    +0.000 A 
ATOM      8  N   UNL     1      46.729   5.267  13.186  0.00  0.00    +0.000 NA
BRANCH   6   9
ATOM      9  C   UNL     1      44.119   3.125  11.472  0.00  0.00    +0.000 C 
ATOM     10  N   UNL     1      43.663   2.353  12.504  0.00  0.00    +0.000 N 
ATOM     11  O   UNL     1      43.727   2.913  10.329  0.00  0.00    +0.000 OA
ATOM     12  H   UNL     1      43.907   2.447  13.477  0.00  0.00    +0.000 HD
ATOM     13  H   UNL     1      42.998   1.628  12.262  0.00  0.00    +0.000 HD
ENDBRANCH   6   9
ENDBRANCH   2   3
BRANCH   1  15
ATOM     14  C   UNL     1      48.974  10.321  11.371  0.00  0.00    +0.000 C 
ATOM     15  C   UNL     1      49.652   9.015  11.842  0.00  0.00    +0.000 C 
ATOM     16  C   UNL     1      49.911   9.163  13.363  0.00  0.00    +0.000 C 
BRANCH  15  17
ATOM     17  C   UNL     1      50.992   8.735  11.147  0.00  0.00    +0.000 A 
ATOM     18  C   UNL     1      51.321   7.444  10.701  0.00  0.00    +0.000 A 
ATOM     19  C   UNL     1      52.544   7.197  10.080  0.00  0.00    +0.000 A 
ATOM     20  C   UNL     1      53.420   8.252   9.919  0.00  0.00    +0.000 A 
ATOM     21  N   UNL     1      53.157   9.507  10.329  0.00  0.00    +0.000 NA
ATOM     22  C   UNL     1      51.960   9.716  10.931  0.00  0.00    +0.000 A 
ENDBRANCH  15  17
ENDBRANCH   1  15
TORSDOF 4
ENDMDL
MODEL 9
REMARK VINA RESULT:    -5.563      2.957      8.046
REMARK INTER + INTRA:          -7.357
REMARK INTER:                  -6.893
REMARK INTRA:                  -0.464
REMARK UNBOUND:                -0.494
REMARK  Name = 
REMARK  6 active torsions:
REMARK  status: ('A' for Active; 'I' for Inactive)
REMARK    1  A    between atoms: C_1  and  C_2
REMARK    2  A    between atoms: C_2  and  C_3
REMARK    3  A    between atoms: C_2  and  C_4
REMARK    4  A    between atoms: C_2  and  C_15
REMARK    5  A    between atoms: C_5  and  C_6
REMARK    6  A    between atoms: C_9  and  C_10
REMARK                            x       y       z     vdW  Elec       q    Type
REMARK                         _______ _______ _______ _____ _____    ______ ____
ROOT
ATOM      1  C   UNL     1      48.370   6.443  14.817  0.00  0.00    +0.000 C 
ATOM      2  C   UNL     1      48.167   6.727  13.517  0.00  0.00    +0.000 C 
ENDROOT
BRANCH   2   3
ATOM      3  C   UNL     1      47.077   6.126  12.729  0.00  0.00    +0.000 A 
ATOM      4  C   UNL     1      46.792   6.573  11.446  0.00  0.00    +0.000 A 
ATOM      5  C   UNL     1      45.747   5.970  10.739  0.00  0.00    +0.000 A 
ATOM      6  C   UNL     1      45.012   4.935  11.324  0.00  0.00    +0.000 A 
ATOM      7  C   UNL     1      45.373   4.554  12.605  0.00  0.00    +0.000 A 
ATOM      8  N   UNL     1      46.379   5.121  13.314  0.00  0.00    +0.000 NA
BRANCH   6   9
ATOM      9  C   UNL     1      43.907   4.305  10.564  0.00  0.00    +0.000 C 
ATOM     10  N   UNL     1      43.845   4.478   9.209  0.00  0.00    +0.000 N 
ATOM     11  O   UNL     1      43.054   3.632  11.134  0.00  0.00    +0.000 OA
ATOM     12  H   UNL     1      44.495   4.997   8.641  0.00  0.00    +0.000 HD
ATOM     13  H   UNL     1      43.077   4.021   8.733  0.00  0.00    +0.000 HD
ENDBRANCH   6   9
ENDBRANCH   2   3
BRANCH   1  15
ATOM     14  C   UNL     1      50.486   7.698  14.839  0.00  0.00    +0.000 C 
ATOM     15  C   UNL     1      49.458   6.980  15.743  0.00  0.00    +0.000 C 
ATOM     16  C   UNL     1      48.813   8.063  16.644  0.00  0.00    +0.000 C 
BRANCH  15  17
ATOM     17  C   UNL     1      50.081   5.906  16.645  0.00  0.00    +0.000 A 
ATOM     18  C   UNL     1      51.466   5.869  16.878  0.00  0.00    +0.000 A 
ATOM     19  C   UNL     1      52.024   4.884  17.691  0.00  0.00    +0.000 A 
ATOM     20  C   UNL     1      51.181   3.948  18.256  0.00  0.00    +0.000 A 
ATOM     21  N   UNL     1      49.848   3.936  18.066  0.00  0.00    +0.000 NA
ATOM     22  C   UNL     1      49.335   4.905  17.270  0.00  0.00    +0.000 A 
ENDBRANCH  15  17
ENDBRANCH   1  15
TORSDOF 4
ENDMDL
