MODEL 1
REMARK VINA RESULT:    -9.598      0.000      0.000
REMARK INTER + INTRA:         -13.849
REMARK INTER:                 -12.965
REMARK INTRA:                  -0.884
REMARK UNBOUND:                -0.884
REMARK  Name = 
REMARK  6 active torsions:
REMARK  status: ('A' for Active; 'I' for Inactive)
REMARK    1  A    between atoms: C_2  and  C_4
REMARK    2  A    between atoms: N_8  and  C_9
REMARK    3  A    between atoms: C_9  and  C_10
REMARK    4  A    between atoms: C_10  and  C_13
REMARK    5  A    between atoms: C_18  and  O_19
REMARK    6  A    between atoms: O_19  and  C_20
REMARK                            x       y       z     vdW  Elec       q    Type
REMARK                         _______ _______ _______ _____ _____    ______ ____
ROOT
ATOM      1  C   UNL     1      43.501   5.560  12.226  0.00  0.00    +0.000 C 
ATOM      2  F   UNL     1      43.152   6.746  11.640  0.00  0.00    +0.000 F 
ATOM      3  F   UNL     1      42.630   5.407  13.269  0.00  0.00    +0.000 F 
ENDROOT
BRANCH   1   4
ATOM      4  C   UNL     1      44.939   5.576  12.717  0.00  0.00    +0.000 A 
ATOM      5  C   UNL     1      45.766   6.682  12.481  0.00  0.00    +0.000 A 
ATOM      6  C   UNL     1      47.072   6.687  12.963  0.00  0.00    +0.000 A 
ATOM      7  F   UNL     1      47.852   7.751  12.731  0.00  0.00    +0.000 F 
ATOM      8  C   UNL     1      47.577   5.614  13.686  0.00  0.00    +0.000 A 
ATOM      9  C   UNL     1      46.761   4.512  13.941  0.00  0.00    +0.000 A 
ATOM     10  C   UNL     1      45.457   4.483  13.441  0.00  0.00    +0.000 A 
BRANCH   9  11
ATOM     11  O   UNL     1      47.337   3.500  14.670  0.00  0.00    +0.000 OA
BRANCH  11  12
ATOM     12  C   UNL     1      47.899   3.816  15.968  0.00  0.00    +0.000 C 
ATOM     13  C   UNL     1      48.375   2.645  16.853  0.00  0.00    +0.000 C 
ATOM     14  N   UNL     1      47.579   3.153  17.979  0.00  0.00    +0.000 NA
ATOM     15  C   UNL     1      46.871   4.083  17.087  0.00  0.00    +0.000 C 
ATOM     16  H   UNL     1      48.128   3.608  18.708  0.00  0.00    +0.000 HD
ENDBRANCH  11  12
ENDBRANCH   9  11
ENDBRANCH   1   4
BRANCH   1  17
ATOM     17  C   UNL     1      43.254   4.422  11.196  0.00  0.00    +0.000 C 
BRANCH  17  22
ATOM     18  C   UNL     1      46.475   2.538   7.692  0.00  0.00    +0.000 A 
ATOM     19  C   UNL     1      45.642   1.867   8.580  0.00  0.00    +0.000 A 
ATOM     20  C   UNL     1      44.724   2.599   9.335  0.00  0.00    +0.000 A 
ATOM     21  C   UNL     1      44.661   3.984   9.204  0.00  0.00    +0.000 A 
ATOM     22  N   UNL     1      43.720   4.764   9.845  0.00  0.00    +0.000 N 
ATOM     23  N   UNL     1      45.485   4.644   8.366  0.00  0.00    +0.000 NA
ATOM     24  C   UNL     1      46.374   3.916   7.635  0.00  0.00    +0.000 A 
ATOM     25  H   UNL     1      43.955   5.743   9.691  0.00  0.00    +0.000 HD
BRANCH  18  27
ATOM     26  N   UNL     1      48.534   2.564   6.399  0.00  0.00    +0.000 N 
ATOM     27  C   UNL     1      47.448   1.844   6.820  0.00  0.00    +0.000 C 
ATOM     28  O   UNL     1      47.312   0.668   6.517  0.00  0.00    +0.000 OA
ATOM     29  H   UNL     1      49.247   2.045   5.898  0.00  0.00    +0.000 HD
ATOM     30  H   UNL     1      48.813   3.432   6.833  0.00  0.00    +0.000 HD
ENDBRANCH  18  27
ENDBRANCH  17  22
ENDBRANCH   1  17
TORSDOF 6
ENDMDL
MODEL 2
REMARK VINA RESULT:    -8.943      2.521      3.497
REMARK INTER + INTRA:         -12.963
REMARK INTER:                 -12.059
REMARK INTRA:                  -0.905
REMARK UNBOUND:                -0.884
REMARK  Name = 
REMARK  6 active torsions:
REMARK  status: ('A' for Active; 'I' for Inactive)
REMARK    1  A    between atoms: C_2  and  C_4
REMARK    2  A    between atoms: N_8  and  C_9
REMARK    3  A    between atoms: C_9  and  C_10
REMARK    4  A    between atoms: C_10  and  C_13
REMARK    5  A    between atoms: C_18  and  O_19
REMARK    6  A    between atoms: O_19  and  C_20
REMARK                            x       y       z     vdW  Elec       q    Type
REMARK                         _______ _______ _______ _____ _____    ______ ____
ROOT
ATOM      1  C   UNL     1      43.471   5.608  12.103  0.00  0.00    +0.000 C 
ATOM      2  F   UNL     1      43.042   6.767  11.518  0.00  0.00    +0.000 F 
ATOM      3  F   UNL     1      42.665   5.439  13.195  0.00  0.00    +0.000 F 
ENDROOT
BRANCH   1   4
ATOM      4  C   UNL     1      44.932   5.691  12.513  0.00  0.00    +0.000 A 
ATOM      5  C   UNL     1      45.435   4.886  13.543  0.00  0.00    +0.000 A 
ATOM      6  C   UNL     1      46.783   4.958  13.884  0.00  0.00    +0.000 A 
ATOM      7  F   UNL     1      47.252   4.183  14.870  0.00  0.00    +0.000 F 
ATOM      8  C   UNL     1      47.650   5.813  13.215  0.00  0.00    +0.000 A 
ATOM      9  C   UNL     1      47.166   6.611  12.179  0.00  0.00    +0.000 A 
ATOM     10  C   UNL     1      45.811   6.566  11.844  0.00  0.00    +0.000 A 
BRANCH   9  11
ATOM     11  O   UNL     1      48.093   7.419  11.567  0.00  0.00    +0.000 OA
BRANCH  11  12
ATOM     12  C   UNL     1      48.746   8.444  12.354  0.00  0.00    +0.000 C 
ATOM     13  C   UNL     1      47.858   9.502  13.043  0.00  0.00    +0.000 C 
ATOM     14  N   UNL     1      48.666  10.583  12.458  0.00  0.00    +0.000 NA
ATOM     15  C   UNL     1      49.323   9.629  11.552  0.00  0.00    +0.000 C 
ATOM     16  H   UNL     1      49.296  11.037  13.117  0.00  0.00    +0.000 HD
ENDBRANCH  11  12
ENDBRANCH   9  11
ENDBRANCH   1   4
BRANCH   1  17
ATOM     17  C   UNL     1      43.216   4.441  11.108  0.00  0.00    +0.000 C 
BRANCH  17  22
ATOM     18  C   UNL     1      46.474   2.471   7.687  0.00  0.00    +0.000 A 
ATOM     19  C   UNL     1      45.646   1.822   8.596  0.00  0.00    +0.000 A 
ATOM     20  C   UNL     1      44.715   2.570   9.320  0.00  0.00    +0.000 A 
ATOM     21  C   UNL     1      44.636   3.948   9.138  0.00  0.00    +0.000 A 
ATOM     22  N   UNL     1      43.683   4.739   9.747  0.00  0.00    +0.000 N 
ATOM     23  N   UNL     1      45.456   4.588   8.280  0.00  0.00    +0.000 NA
ATOM     24  C   UNL     1      46.356   3.844   7.579  0.00  0.00    +0.000 A 
ATOM     25  H   UNL     1      43.906   5.715   9.558  0.00  0.00    +0.000 HD
BRANCH  18  27
ATOM     26  N   UNL     1      48.553   2.467   6.426  0.00  0.00    +0.000 N 
ATOM     27  C   UNL     1      47.459   1.757   6.844  0.00  0.00    +0.000 C 
ATOM     28  O   UNL     1      47.325   0.576   6.563  0.00  0.00    +0.000 OA
ATOM     29  H   UNL     1      49.272   1.937   5.946  0.00  0.00    +0.000 HD
ATOM     30  H   UNL     1      48.827   3.343   6.846  0.00  0.00    +0.000 HD
ENDBRANCH  18  27
ENDBRANCH  17  22
ENDBRANCH   1  17
TORSDOF 6
ENDMDL
MODEL 3
REMARK VINA RESULT:    -8.410      2.070      2.448
REMARK INTER + INTRA:         -12.244
REMARK INTER:                 -11.291
REMARK INTRA:                  -0.953
REMARK UNBOUND:                -0.884
REMARK  Name = 
REMARK  6 active torsions:
REMARK  status: ('A' for Active; 'I' for Inactive)
REMARK    1  A    between atoms: C_2  and  C_4
REMARK    2  A    between atoms: N_8  and  C_9
REMARK    3  A    between atoms: C_9  and  C_10
REMARK    4  A    between atoms: C_10  and  C_13
REMARK    5  A    between atoms: C_18  and  O_19
REMARK    6  A    between atoms: O_19  and  C_20
REMARK                            x       y       z     vdW  Elec       q    Type
REMARK                         _______ _______ _______ _____ _____    ______ ____
ROOT
ATOM      1  C   UNL     1      43.429   4.617  12.576  0.00  0.00    +0.000 C 
ATOM      2  F   UNL     1      42.276   5.261  12.933  0.00  0.00    +0.000 F 
ATOM      3  F   UNL     1      43.581   3.619  13.498  0.00  0.00    +0.000 F 
ENDROOT
BRANCH   1   4
ATOM      4  C   UNL     1      44.624   5.555  12.586  0.00  0.00    +0.000 A 
ATOM      5  C   UNL     1      44.568   6.797  11.940  0.00  0.00    +0.000 A 
ATOM      6  C   UNL     1      45.665   7.653  11.986  0.00  0.00    +0.000 A 
ATOM      7  F   UNL     1      45.598   8.837  11.365  0.00  0.00    +0.000 F 
ATOM      8  C   UNL     1      46.823   7.303  12.670  0.00  0.00    +0.000 A 
ATOM      9  C   UNL     1      46.889   6.076  13.328  0.00  0.00    +0.000 A 
ATOM     10  C   UNL     1      45.805   5.198  13.270  0.00  0.00    +0.000 A 
BRANCH   9  11
ATOM     11  O   UNL     1      48.066   5.816  13.987  0.00  0.00    +0.000 OA
BRANCH  11  12
ATOM     12  C   UNL     1      48.605   6.830  14.870  0.00  0.00    +0.000 C 
ATOM     13  C   UNL     1      50.009   7.389  14.557  0.00  0.00    +0.000 C 
ATOM     14  N   UNL     1      50.440   7.117  15.936  0.00  0.00    +0.000 NA
ATOM     15  C   UNL     1      49.238   6.304  16.174  0.00  0.00    +0.000 C 
ATOM     16  H   UNL     1      50.508   7.947  16.524  0.00  0.00    +0.000 HD
ENDBRANCH  11  12
ENDBRANCH   9  11
ENDBRANCH   1   4
BRANCH   1  17
ATOM     17  C   UNL     1      43.210   3.976  11.177  0.00  0.00    +0.000 C 
BRANCH  17  22
ATOM     18  C   UNL     1      46.472   2.923   7.375  0.00  0.00    +0.000 A 
ATOM     19  C   UNL     1      46.079   4.154   7.889  0.00  0.00    +0.000 A 
ATOM     20  C   UNL     1      45.298   4.188   9.045  0.00  0.00    +0.000 A 
ATOM     21  C   UNL     1      44.909   3.000   9.659  0.00  0.00    +0.000 A 
ATOM     22  N   UNL     1      44.216   2.955  10.852  0.00  0.00    +0.000 N 
ATOM     23  N   UNL     1      45.262   1.803   9.150  0.00  0.00    +0.000 NA
ATOM     24  C   UNL     1      46.026   1.786   8.023  0.00  0.00    +0.000 A 
ATOM     25  H   UNL     1      43.943   1.990  11.030  0.00  0.00    +0.000 HD
BRANCH  18  27
ATOM     26  N   UNL     1      48.658   2.506   6.396  0.00  0.00    +0.000 N 
ATOM     27  C   UNL     1      47.336   2.788   6.181  0.00  0.00    +0.000 C 
ATOM     28  O   UNL     1      46.884   2.885   5.050  0.00  0.00    +0.000 OA
ATOM     29  H   UNL     1      49.212   2.305   5.570  0.00  0.00    +0.000 HD
ATOM     30  H   UNL     1      49.006   2.164   7.280  0.00  0.00    +0.000 HD
ENDBRANCH  18  27
ENDBRANCH  17  22
ENDBRANCH   1  17
TORSDOF 6
ENDMDL
MODEL 4
REMARK VINA RESULT:    -8.103      2.227      7.821
REMARK INTER + INTRA:         -11.829
REMARK INTER:                 -11.109
REMARK INTRA:                  -0.720
REMARK UNBOUND:                -0.884
REMARK  Name = 
REMARK  6 active torsions:
REMARK  status: ('A' for Active; 'I' for Inactive)
REMARK    1  A    between atoms: C_2  and  C_4
REMARK    2  A    between atoms: N_8  and  C_9
REMARK    3  A    between atoms: C_9  and  C_10
REMARK    4  A    between atoms: C_10  and  C_13
REMARK    5  A    between atoms: C_18  and  O_19
REMARK    6  A    between atoms: O_19  and  C_20
REMARK                            x       y       z     vdW  Elec       q    Type
REMARK                         _______ _______ _______ _____ _____    ______ ____
ROOT
ATOM      1  C   UNL     1      45.773   6.267  11.367  0.00  0.00    +0.000 C 
ATOM      2  F   UNL     1      44.983   7.343  11.068  0.00  0.00    +0.000 F 
ATOM      3  F   UNL     1      47.032   6.628  10.977  0.00  0.00    +0.000 F 
ENDROOT
BRANCH   1   4
ATOM      4  C   UNL     1      45.317   5.014  10.638  0.00  0.00    +0.000 A 
ATOM      5  C   UNL     1      44.499   4.071  11.275  0.00  0.00    +0.000 A 
ATOM      6  C   UNL     1      44.070   2.943  10.580  0.00  0.00    +0.000 A 
ATOM      7  F   UNL     1      43.288   2.050  11.200  0.00  0.00    +0.000 F 
ATOM      8  C   UNL     1      44.430   2.734   9.255  0.00  0.00    +0.000 A 
ATOM      9  C   UNL     1      45.232   3.670   8.604  0.00  0.00    +0.000 A 
ATOM     10  C   UNL     1      45.690   4.793   9.297  0.00  0.00    +0.000 A 
BRANCH   9  11
ATOM     11  O   UNL     1      45.532   3.389   7.293  0.00  0.00    +0.000 OA
BRANCH  11  12
ATOM     12  C   UNL     1      46.922   3.214   6.924  0.00  0.00    +0.000 C 
ATOM     13  C   UNL     1      47.242   2.877   5.452  0.00  0.00    +0.000 C 
ATOM     14  N   UNL     1      48.055   1.728   5.876  0.00  0.00    +0.000 NA
ATOM     15  C   UNL     1      47.523   1.830   7.244  0.00  0.00    +0.000 C 
ATOM     16  H   UNL     1      49.060   1.879   5.806  0.00  0.00    +0.000 HD
ENDBRANCH  11  12
ENDBRANCH   9  11
ENDBRANCH   1   4
BRANCH   1  17
ATOM     17  C   UNL     1      45.763   6.074  12.910  0.00  0.00    +0.000 C 
BRANCH  17  22
ATOM     18  C   UNL     1      48.421   4.054  16.790  0.00  0.00    +0.000 A 
ATOM     19  C   UNL     1      47.509   3.449  15.932  0.00  0.00    +0.000 A 
ATOM     20  C   UNL     1      47.030   4.168  14.835  0.00  0.00    +0.000 A 
ATOM     21  C   UNL     1      47.453   5.477  14.621  0.00  0.00    +0.000 A 
ATOM     22  N   UNL     1      47.096   6.216  13.511  0.00  0.00    +0.000 N 
ATOM     23  N   UNL     1      48.314   6.079  15.465  0.00  0.00    +0.000 NA
ATOM     24  C   UNL     1      48.775   5.365  16.529  0.00  0.00    +0.000 A 
ATOM     25  H   UNL     1      47.424   7.172  13.642  0.00  0.00    +0.000 HD
BRANCH  18  27
ATOM     26  N   UNL     1      48.275   3.314  19.101  0.00  0.00    +0.000 N 
ATOM     27  C   UNL     1      49.017   3.358  17.952  0.00  0.00    +0.000 C 
ATOM     28  O   UNL     1      50.108   2.812  17.881  0.00  0.00    +0.000 OA
ATOM     29  H   UNL     1      48.645   2.739  19.850  0.00  0.00    +0.000 HD
ATOM     30  H   UNL     1      47.285   3.515  19.119  0.00  0.00    +0.000 HD
ENDBRANCH  18  27
ENDBRANCH  17  22
ENDBRANCH   1  17
TORSDOF 6
ENDMDL
MODEL 5
REMARK VINA RESULT:    -6.962      2.377      8.202
REMARK INTER + INTRA:         -10.289
REMARK INTER:                 -10.340
REMARK INTRA:                   0.051
REMARK UNBOUND:                -0.884
REMARK  Name = 
REMARK  6 active torsions:
REMARK  status: ('A' for Active; 'I' for Inactive)
REMARK    1  A    between atoms: C_2  and  C_4
REMARK    2  A    between atoms: N_8  and  C_9
REMARK    3  A    between atoms: C_9  and  C_10
REMARK    4  A    between atoms: C_10  and  C_13
REMARK    5  A    between atoms: C_18  and  O_19
REMARK    6  A    between atoms: O_19  and  C_20
REMARK                            x       y       z     vdW  Elec       q    Type
REMARK                         _______ _______ _______ _____ _____    ______ ____
ROOT
ATOM      1  C   UNL     1      46.450   6.358  12.273  0.00  0.00    +0.000 C 
ATOM      2  F   UNL     1      45.663   7.220  12.985  0.00  0.00    +0.000 F 
ATOM      3  F   UNL     1      47.153   7.148  11.406  0.00  0.00    +0.000 F 
ENDROOT
BRANCH   1   4
ATOM      4  C   UNL     1      45.623   5.329  11.522  0.00  0.00    +0.000 A 
ATOM      5  C   UNL     1      44.814   4.416  12.212  0.00  0.00    +0.000 A 
ATOM      6  C   UNL     1      44.042   3.499  11.504  0.00  0.00    +0.000 A 
ATOM      7  F   UNL     1      43.273   2.632  12.176  0.00  0.00    +0.000 F 
ATOM      8  C   UNL     1      44.049   3.473  10.115  0.00  0.00    +0.000 A 
ATOM      9  C   UNL     1      44.838   4.384   9.414  0.00  0.00    +0.000 A 
ATOM     10  C   UNL     1      45.637   5.293  10.113  0.00  0.00    +0.000 A 
BRANCH   9  11
ATOM     11  O   UNL     1      44.778   4.295   8.045  0.00  0.00    +0.000 OA
BRANCH  11  12
ATOM     12  C   UNL     1      45.346   3.127   7.402  0.00  0.00    +0.000 C 
ATOM     13  C   UNL     1      46.192   2.167   8.263  0.00  0.00    +0.000 C 
ATOM     14  N   UNL     1      47.288   2.232   7.286  0.00  0.00    +0.000 NA
ATOM     15  C   UNL     1      46.649   3.373   6.613  0.00  0.00    +0.000 C 
ATOM     16  H   UNL     1      47.379   1.400   6.704  0.00  0.00    +0.000 HD
ENDBRANCH  11  12
ENDBRANCH   9  11
ENDBRANCH   1   4
BRANCH   1  17
ATOM     17  C   UNL     1      47.448   5.689  13.260  0.00  0.00    +0.000 C 
BRANCH  17  22
ATOM     18  C   UNL     1      48.626   4.555  18.111  0.00  0.00    +0.000 A 
ATOM     19  C   UNL     1      49.044   5.623  17.325  0.00  0.00    +0.000 A 
ATOM     20  C   UNL     1      48.456   5.816  16.073  0.00  0.00    +0.000 A 
ATOM     21  C   UNL     1      47.476   4.936  15.621  0.00  0.00    +0.000 A 
ATOM     22  N   UNL     1      46.785   5.114  14.439  0.00  0.00    +0.000 N 
ATOM     23  N   UNL     1      47.086   3.882  16.366  0.00  0.00    +0.000 NA
ATOM     24  C   UNL     1      47.666   3.709  17.585  0.00  0.00    +0.000 A 
ATOM     25  H   UNL     1      46.218   4.285  14.270  0.00  0.00    +0.000 HD
BRANCH  18  27
ATOM     26  N   UNL     1      48.314   3.701  20.366  0.00  0.00    +0.000 N 
ATOM     27  C   UNL     1      49.158   4.296  19.467  0.00  0.00    +0.000 C 
ATOM     28  O   UNL     1      50.313   4.564  19.763  0.00  0.00    +0.000 OA
ATOM     29  H   UNL     1      48.726   3.428  21.252  0.00  0.00    +0.000 HD
ATOM     30  H   UNL     1      47.464   3.234  20.088  0.00  0.00    +0.000 HD
ENDBRANCH  18  27
ENDBRANCH  17  22
ENDBRANCH   1  17
TORSDOF 6
ENDMDL
MODEL 6
REMARK VINA RESULT:    -6.933      3.197      8.226
REMARK INTER + INTRA:         -10.249
REMARK INTER:                  -9.523
REMARK INTRA:                  -0.726
REMARK UNBOUND:                -0.884
REMARK  Name = 
REMARK  6 active torsions:
REMARK  status: ('A' for Active; 'I' for Inactive)
REMARK    1  A    between atoms: C_2  and  C_4
REMARK    2  A    between atoms: N_8  and  C_9
REMARK    3  A    between atoms: C_9  and  C_10
REMARK    4  A    between atoms: C_10  and  C_13
REMARK    5  A    between atoms: C_18  and  O_19
REMARK    6  A    between atoms: O_19  and  C_20
REMARK                            x       y       z     vdW  Elec       q    Type
REMARK                         _______ _______ _______ _____ _____    ______ ____
ROOT
ATOM      1  C   UNL     1      45.408   6.282  11.350  0.00  0.00    +0.000 C 
ATOM      2  F   UNL     1      44.812   6.299  12.580  0.00  0.00    +0.000 F 
ATOM      3  F   UNL     1      44.902   7.368  10.692  0.00  0.00    +0.000 F 
ENDROOT
BRANCH   1   4
ATOM      4  C   UNL     1      45.104   4.999  10.595  0.00  0.00    +0.000 A 
ATOM      5  C   UNL     1      44.367   3.970  11.196  0.00  0.00    +0.000 A 
ATOM      6  C   UNL     1      44.076   2.814  10.477  0.00  0.00    +0.000 A 
ATOM      7  F   UNL     1      43.370   1.838  11.063  0.00  0.00    +0.000 F 
ATOM      8  C   UNL     1      44.498   2.658   9.162  0.00  0.00    +0.000 A 
ATOM      9  C   UNL     1      45.221   3.679   8.547  0.00  0.00    +0.000 A 
ATOM     10  C   UNL     1      45.541   4.834   9.265  0.00  0.00    +0.000 A 
BRANCH   9  11
ATOM     11  O   UNL     1      45.590   3.446   7.244  0.00  0.00    +0.000 OA
BRANCH  11  12
ATOM     12  C   UNL     1      46.993   3.240   6.948  0.00  0.00    +0.000 C 
ATOM     13  C   UNL     1      47.391   2.979   5.480  0.00  0.00    +0.000 C 
ATOM     14  N   UNL     1      48.136   1.777   5.880  0.00  0.00    +0.000 NA
ATOM     15  C   UNL     1      47.524   1.817   7.216  0.00  0.00    +0.000 C 
ATOM     16  H   UNL     1      49.148   1.892   5.879  0.00  0.00    +0.000 HD
ENDBRANCH  11  12
ENDBRANCH   9  11
ENDBRANCH   1   4
BRANCH   1  17
ATOM     17  C   UNL     1      46.936   6.486  11.550  0.00  0.00    +0.000 C 
BRANCH  17  22
ATOM     18  C   UNL     1      49.096   8.415  15.772  0.00  0.00    +0.000 A 
ATOM     19  C   UNL     1      48.137   8.973  14.935  0.00  0.00    +0.000 A 
ATOM     20  C   UNL     1      47.574   8.186  13.928  0.00  0.00    +0.000 A 
ATOM     21  C   UNL     1      47.985   6.866  13.764  0.00  0.00    +0.000 A 
ATOM     22  N   UNL     1      47.411   6.001  12.854  0.00  0.00    +0.000 N 
ATOM     23  N   UNL     1      48.935   6.327  14.553  0.00  0.00    +0.000 NA
ATOM     24  C   UNL     1      49.473   7.106  15.532  0.00  0.00    +0.000 A 
ATOM     25  H   UNL     1      47.959   5.143  12.835  0.00  0.00    +0.000 HD
BRANCH  18  27
ATOM     26  N   UNL     1      48.873   9.707  17.819  0.00  0.00    +0.000 N 
ATOM     27  C   UNL     1      49.716   9.156  16.892  0.00  0.00    +0.000 C 
ATOM     28  O   UNL     1      50.930   9.242  17.009  0.00  0.00    +0.000 OA
ATOM     29  H   UNL     1      49.312  10.112  18.638  0.00  0.00    +0.000 HD
ATOM     30  H   UNL     1      47.903   9.438  17.901  0.00  0.00    +0.000 HD
ENDBRANCH  18  27
ENDBRANCH  17  22
ENDBRANCH   1  17
TORSDOF 6
ENDMDL
MODEL 7
REMARK VINA RESULT:    -6.891      3.293      7.430
REMARK INTER + INTRA:         -10.192
REMARK INTER:                  -9.165
REMARK INTRA:                  -1.027
REMARK UNBOUND:                -0.884
REMARK  Name = 
REMARK  6 active torsions:
REMARK  status: ('A' for Active; 'I' for Inactive)
REMARK    1  A    between atoms: C_2  and  C_4
REMARK    2  A    between atoms: N_8  and  C_9
REMARK    3  A    between atoms: C_9  and  C_10
REMARK    4  A    between atoms: C_10  and  C_13
REMARK    5  A    between atoms: C_18  and  O_19
REMARK    6  A    between atoms: O_19  and  C_20
REMARK                            x       y       z     vdW  Elec       q    Type
REMARK                         _______ _______ _______ _____ _____    ______ ____
ROOT
ATOM      1  C   UNL     1      49.027   7.993  12.326  0.00  0.00    +0.000 C 
ATOM      2  F   UNL     1      49.595   8.941  11.521  0.00  0.00    +0.000 F 
ATOM      3  F   UNL     1      49.673   6.828  12.017  0.00  0.00    +0.000 F 
ENDROOT
BRANCH   1   4
ATOM      4  C   UNL     1      47.533   7.868  12.082  0.00  0.00    +0.000 A 
ATOM      5  C   UNL     1      46.666   8.929  12.377  0.00  0.00    +0.000 A 
ATOM      6  C   UNL     1      45.304   8.804  12.119  0.00  0.00    +0.000 A 
ATOM      7  F   UNL     1      44.486   9.825  12.406  0.00  0.00    +0.000 F 
ATOM      8  C   UNL     1      44.779   7.643  11.564  0.00  0.00    +0.000 A 
ATOM      9  C   UNL     1      45.631   6.585  11.252  0.00  0.00    +0.000 A 
ATOM     10  C   UNL     1      46.997   6.687  11.529  0.00  0.00    +0.000 A 
BRANCH   9  11
ATOM     11  O   UNL     1      45.031   5.480  10.698  0.00  0.00    +0.000 OA
BRANCH  11  12
ATOM     12  C   UNL     1      44.443   4.495  11.583  0.00  0.00    +0.000 C 
ATOM     13  C   UNL     1      44.360   3.036  11.087  0.00  0.00    +0.000 C 
ATOM     14  N   UNL     1      42.927   2.991  11.411  0.00  0.00    +0.000 NA
ATOM     15  C   UNL     1      42.901   4.450  11.592  0.00  0.00    +0.000 C 
ATOM     16  H   UNL     1      42.706   2.461  12.253  0.00  0.00    +0.000 HD
ENDBRANCH  11  12
ENDBRANCH   9  11
ENDBRANCH   1   4
BRANCH   1  17
ATOM     17  C   UNL     1      49.342   8.362  13.803  0.00  0.00    +0.000 C 
BRANCH  17  22
ATOM     18  C   UNL     1      48.196   4.459  16.911  0.00  0.00    +0.000 A 
ATOM     19  C   UNL     1      47.490   4.962  15.825  0.00  0.00    +0.000 A 
ATOM     20  C   UNL     1      48.085   5.936  15.020  0.00  0.00    +0.000 A 
ATOM     21  C   UNL     1      49.362   6.401  15.319  0.00  0.00    +0.000 A 
ATOM     22  N   UNL     1      50.050   7.293  14.521  0.00  0.00    +0.000 N 
ATOM     23  N   UNL     1      50.041   5.939  16.388  0.00  0.00    +0.000 NA
ATOM     24  C   UNL     1      49.449   4.988  17.162  0.00  0.00    +0.000 A 
ATOM     25  H   UNL     1      50.900   7.572  15.008  0.00  0.00    +0.000 HD
BRANCH  18  27
ATOM     26  N   UNL     1      48.346   3.155  18.958  0.00  0.00    +0.000 N 
ATOM     27  C   UNL     1      47.667   3.396  17.794  0.00  0.00    +0.000 C 
ATOM     28  O   UNL     1      46.646   2.784  17.517  0.00  0.00    +0.000 OA
ATOM     29  H   UNL     1      47.910   2.506  19.603  0.00  0.00    +0.000 HD
ATOM     30  H   UNL     1      49.020   3.802  19.339  0.00  0.00    +0.000 HD
ENDBRANCH  18  27
ENDBRANCH  17  22
ENDBRANCH   1  17
TORSDOF 6
ENDMDL
