MODEL 1
REMARK VINA RESULT:    -7.191      0.000      0.000
REMARK INTER + INTRA:         -12.090
REMARK INTER:                 -10.554
REMARK INTRA:                  -1.536
REMARK UNBOUND:                -1.536
REMARK  Name = 
REMARK  9 active torsions:
REMARK  status: ('A' for Active; 'I' for Inactive)
REMARK    1  A    between atoms: C_1  and  O_2
REMARK    2  A    between atoms: O_2  and  C_3
REMARK    3  A    between atoms: C_3  and  C_4
REMARK    4  A    between atoms: C_4  and  N_5
REMARK    5  A    between atoms: N_5  and  C_6
REMARK    6  A    between atoms: C_6  and  C_7
REMARK    7  A    between atoms: C_10  and  C_11
REMARK    8  A    between atoms: C_11  and  C_12
REMARK    9  A    between atoms: C_20  and  C_22
REMARK                            x       y       z     vdW  Elec       q    Type
REMARK                         _______ _______ _______ _____ _____    ______ ____
ROOT
ATOM      1  N   UNL     1      46.585   7.114  12.245  0.00  0.00    +0.000 N 
ATOM      2  C   UNL     1      45.333   6.799  11.665  0.00  0.00    +0.000 C 
ATOM      3  O   UNL     1      44.604   7.685  11.222  0.00  0.00    +0.000 OA
ENDROOT
BRANCH   2   4
ATOM      4  C   UNL     1      44.850   5.405  11.628  0.00  0.00    +0.000 A 
ATOM      5  C   UNL     1      44.105   4.776  12.615  0.00  0.00    +0.000 A 
ATOM      6  S   UNL     1      43.633   3.182  12.220  0.00  0.00    +0.000 S 
ATOM      7  C   UNL     1      44.254   3.339  10.646  0.00  0.00    +0.000 A 
ATOM      8  N   UNL     1      44.063   2.362   9.718  0.00  0.00    +0.000 NA
ATOM      9  C   UNL     1      44.520   2.654   8.547  0.00  0.00    +0.000 A 
ATOM     10  N   UNL     1      45.190   3.809   8.234  0.00  0.00    +0.000 N 
ATOM     11  C   UNL     1      45.537   4.752   9.175  0.00  0.00    +0.000 A 
ATOM     12  O   UNL     1      46.348   5.633   8.918  0.00  0.00    +0.000 OA
ATOM     13  C   UNL     1      44.918   4.536  10.471  0.00  0.00    +0.000 A 
ATOM     14  H   UNL     1      45.586   3.941   7.316  0.00  0.00    +0.000 HD
ENDBRANCH   2   4
BRANCH   1  15
ATOM     15  C   UNL     1      46.920   8.547  12.339  0.00  0.00    +0.000 C 
BRANCH  15  16
ATOM     16  C   UNL     1      48.320   8.896  11.802  0.00  0.00    +0.000 C 
BRANCH  16  18
ATOM     17  C   UNL     1      50.350   8.544  12.941  0.00  0.00    +0.000 C 
ATOM     18  O   UNL     1      49.165   9.332  12.872  0.00  0.00    +0.000 OA
ENDBRANCH  16  18
ENDBRANCH  15  16
ENDBRANCH   1  15
BRANCH   1  19
ATOM     19  C   UNL     1      47.477   6.087  12.772  0.00  0.00    +0.000 C 
BRANCH  19  20
ATOM     20  C   UNL     1      47.519   5.711  14.226  0.00  0.00    +0.000 A 
ATOM     21  C   UNL     1      46.903   4.537  14.678  0.00  0.00    +0.000 A 
ATOM     22  C   UNL     1      47.215   4.028  15.937  0.00  0.00    +0.000 A 
ATOM     23  C   UNL     1      48.120   4.719  16.738  0.00  0.00    +0.000 A 
ATOM     24  N   UNL     1      48.662   5.906  16.353  0.00  0.00    +0.000 NA
ATOM     25  C   UNL     1      48.354   6.370  15.119  0.00  0.00    +0.000 A 
BRANCH  23  26
ATOM     26  C   UNL     1      48.625   4.106  18.026  0.00  0.00    +0.000 C 
BRANCH  26  27
ATOM     27  C   UNL     1      49.988   3.460  17.875  0.00  0.00    +0.000 A 
ATOM     28  C   UNL     1      50.106   2.178  17.336  0.00  0.00    +0.000 A 
ATOM     29  C   UNL     1      51.361   1.577  17.281  0.00  0.00    +0.000 A 
ATOM     30  C   UNL     1      52.470   2.278  17.735  0.00  0.00    +0.000 A 
ATOM     31  C   UNL     1      52.277   3.562  18.217  0.00  0.00    +0.000 A 
ATOM     32  N   UNL     1      51.067   4.163  18.305  0.00  0.00    +0.000 NA
ENDBRANCH  26  27
ENDBRANCH  23  26
ENDBRANCH  19  20
ENDBRANCH   1  19
TORSDOF 8
ENDMDL
MODEL 2
REMARK VINA RESULT:    -7.000      2.573      7.881
REMARK INTER + INTRA:         -11.809
REMARK INTER:                 -10.931
REMARK INTRA:                  -0.878
REMARK UNBOUND:                -1.536
REMARK  Name = 
REMARK  9 active torsions:
REMARK  status: ('A' for Active; 'I' for Inactive)
REMARK    1  A    between atoms: C_1  and  O_2
REMARK    2  A    between atoms: O_2  and  C_3
REMARK    3  A    between atoms: C_3  and  C_4
REMARK    4  A    between atoms: C_4  and  N_5
REMARK    5  A    between atoms: N_5  and  C_6
REMARK    6  A    between atoms: C_6  and  C_7
REMARK    7  A    between atoms: C_10  and  C_11
REMARK    8  A    between atoms: C_11  and  C_12
REMARK    9  A    between atoms: C_20  and  C_22
REMARK                            x       y       z     vdW  Elec       q    Type
REMARK                         _______ _______ _______ _____ _____    ______ ____
ROOT
ATOM      1  N   UNL     1      47.096   6.375  13.398  0.00  0.00    +0.000 N 
ATOM      2  C   UNL     1      48.121   6.159  14.350  0.00  0.00    +0.000 C 
ATOM      3  O   UNL     1      49.244   6.632  14.184  0.00  0.00    +0.000 OA
ENDROOT
BRANCH   2   4
ATOM      4  C   UNL     1      47.881   5.315  15.537  0.00  0.00    +0.000 A 
ATOM      5  C   UNL     1      47.496   3.983  15.522  0.00  0.00    +0.000 A 
ATOM      6  S   UNL     1      47.387   3.273  17.073  0.00  0.00    +0.000 S 
ATOM      7  C   UNL     1      48.023   4.668  17.806  0.00  0.00    +0.000 A 
ATOM      8  N   UNL     1      48.319   4.688  19.134  0.00  0.00    +0.000 NA
ATOM      9  C   UNL     1      48.869   5.785  19.534  0.00  0.00    +0.000 A 
ATOM     10  N   UNL     1      49.104   6.877  18.738  0.00  0.00    +0.000 N 
ATOM     11  C   UNL     1      48.682   6.955  17.429  0.00  0.00    +0.000 A 
ATOM     12  O   UNL     1      48.674   8.023  16.830  0.00  0.00    +0.000 OA
ATOM     13  C   UNL     1      48.193   5.695  16.899  0.00  0.00    +0.000 A 
ATOM     14  H   UNL     1      49.470   7.731  19.131  0.00  0.00    +0.000 HD
ENDBRANCH   2   4
BRANCH   1  15
ATOM     15  C   UNL     1      47.474   7.133  12.192  0.00  0.00    +0.000 C 
BRANCH  15  16
ATOM     16  C   UNL     1      46.999   8.597  12.202  0.00  0.00    +0.000 C 
BRANCH  16  18
ATOM     17  C   UNL     1      45.021   9.871  12.114  0.00  0.00    +0.000 C 
ATOM     18  O   UNL     1      45.678   8.693  11.658  0.00  0.00    +0.000 OA
ENDBRANCH  16  18
ENDBRANCH  15  16
ENDBRANCH   1  15
BRANCH   1  19
ATOM     19  C   UNL     1      45.752   5.834  13.569  0.00  0.00    +0.000 C 
BRANCH  19  20
ATOM     20  C   UNL     1      45.107   4.921  12.566  0.00  0.00    +0.000 A 
ATOM     21  C   UNL     1      44.330   5.439  11.522  0.00  0.00    +0.000 A 
ATOM     22  C   UNL     1      44.012   4.640  10.426  0.00  0.00    +0.000 A 
ATOM     23  C   UNL     1      44.453   3.320  10.406  0.00  0.00    +0.000 A 
ATOM     24  N   UNL     1      45.134   2.772  11.447  0.00  0.00    +0.000 NA
ATOM     25  C   UNL     1      45.443   3.575  12.493  0.00  0.00    +0.000 A 
BRANCH  23  26
ATOM     26  C   UNL     1      44.290   2.479   9.157  0.00  0.00    +0.000 C 
BRANCH  26  27
ATOM     27  C   UNL     1      45.563   2.389   8.339  0.00  0.00    +0.000 A 
ATOM     28  C   UNL     1      46.061   3.514   7.681  0.00  0.00    +0.000 A 
ATOM     29  C   UNL     1      47.188   3.386   6.873  0.00  0.00    +0.000 A 
ATOM     30  C   UNL     1      47.808   2.149   6.764  0.00  0.00    +0.000 A 
ATOM     31  C   UNL     1      47.278   1.089   7.481  0.00  0.00    +0.000 A 
ATOM     32  N   UNL     1      46.171   1.178   8.255  0.00  0.00    +0.000 NA
ENDBRANCH  26  27
ENDBRANCH  23  26
ENDBRANCH  19  20
ENDBRANCH   1  19
TORSDOF 8
ENDMDL
MODEL 3
REMARK VINA RESULT:    -6.789      2.280      7.707
REMARK INTER + INTRA:         -11.501
REMARK INTER:                 -10.213
REMARK INTRA:                  -1.287
REMARK UNBOUND:                -1.536
REMARK  Name = 
REMARK  9 active torsions:
REMARK  status: ('A' for Active; 'I' for Inactive)
REMARK    1  A    between atoms: C_1  and  O_2
REMARK    2  A    between atoms: O_2  and  C_3
REMARK    3  A    between atoms: C_3  and  C_4
REMARK    4  A    between atoms: C_4  and  N_5
REMARK    5  A    between atoms: N_5  and  C_6
REMARK    6  A    between atoms: C_6  and  C_7
REMARK    7  A    between atoms: C_10  and  C_11
REMARK    8  A    between atoms: C_11  and  C_12
REMARK    9  A    between atoms: C_20  and  C_22
REMARK                            x       y       z     vdW  Elec       q    Type
REMARK                         _______ _______ _______ _____ _____    ______ ____
ROOT
ATOM      1  N   UNL     1      48.543   7.139  15.140  0.00  0.00    +0.000 N 
ATOM      2  C   UNL     1      48.547   6.782  16.509  0.00  0.00    +0.000 C 
ATOM      3  O   UNL     1      48.631   7.643  17.383  0.00  0.00    +0.000 OA
ENDROOT
BRANCH   2   4
ATOM      4  C   UNL     1      48.507   5.364  16.918  0.00  0.00    +0.000 A 
ATOM      5  C   UNL     1      47.393   4.539  16.883  0.00  0.00    +0.000 A 
ATOM      6  S   UNL     1      47.708   2.925  17.346  0.00  0.00    +0.000 S 
ATOM      7  C   UNL     1      49.377   3.229  17.437  0.00  0.00    +0.000 A 
ATOM      8  N   UNL     1      50.262   2.220  17.663  0.00  0.00    +0.000 NA
ATOM      9  C   UNL     1      51.499   2.586  17.626  0.00  0.00    +0.000 A 
ATOM     10  N   UNL     1      51.928   3.875  17.433  0.00  0.00    +0.000 N 
ATOM     11  C   UNL     1      51.066   4.946  17.353  0.00  0.00    +0.000 A 
ATOM     12  O   UNL     1      51.479   6.096  17.440  0.00  0.00    +0.000 OA
ATOM     13  C   UNL     1      49.670   4.564  17.243  0.00  0.00    +0.000 A 
ATOM     14  H   UNL     1      52.908   4.104  17.489  0.00  0.00    +0.000 HD
ENDBRANCH   2   4
BRANCH   1  15
ATOM     15  C   UNL     1      48.706   8.572  14.837  0.00  0.00    +0.000 C 
BRANCH  15  16
ATOM     16  C   UNL     1      49.911   8.885  13.931  0.00  0.00    +0.000 C 
BRANCH  16  18
ATOM     17  C   UNL     1      50.290   8.392  11.660  0.00  0.00    +0.000 C 
ATOM     18  O   UNL     1      49.474   9.103  12.585  0.00  0.00    +0.000 OA
ENDBRANCH  16  18
ENDBRANCH  15  16
ENDBRANCH   1  15
BRANCH   1  19
ATOM     19  C   UNL     1      48.437   6.143  14.078  0.00  0.00    +0.000 C 
BRANCH  19  20
ATOM     20  C   UNL     1      47.191   5.949  13.263  0.00  0.00    +0.000 A 
ATOM     21  C   UNL     1      46.888   6.813  12.202  0.00  0.00    +0.000 A 
ATOM     22  C   UNL     1      45.930   6.448  11.259  0.00  0.00    +0.000 A 
ATOM     23  C   UNL     1      45.267   5.234  11.408  0.00  0.00    +0.000 A 
ATOM     24  N   UNL     1      45.483   4.421  12.476  0.00  0.00    +0.000 NA
ATOM     25  C   UNL     1      46.431   4.792  13.370  0.00  0.00    +0.000 A 
BRANCH  23  26
ATOM     26  C   UNL     1      44.360   4.718  10.310  0.00  0.00    +0.000 C 
BRANCH  26  27
ATOM     27  C   UNL     1      45.097   3.879   9.285  0.00  0.00    +0.000 A 
ATOM     28  C   UNL     1      45.089   2.486   9.374  0.00  0.00    +0.000 A 
ATOM     29  C   UNL     1      45.838   1.743   8.466  0.00  0.00    +0.000 A 
ATOM     30  C   UNL     1      46.551   2.401   7.475  0.00  0.00    +0.000 A 
ATOM     31  C   UNL     1      46.476   3.783   7.426  0.00  0.00    +0.000 A 
ATOM     32  N   UNL     1      45.776   4.534   8.309  0.00  0.00    +0.000 NA
ENDBRANCH  26  27
ENDBRANCH  23  26
ENDBRANCH  19  20
ENDBRANCH   1  19
TORSDOF 8
ENDMDL
MODEL 4
REMARK VINA RESULT:    -6.478      3.377      8.487
REMARK INTER + INTRA:         -11.044
REMARK INTER:                 -10.078
REMARK INTRA:                  -0.967
REMARK UNBOUND:                -1.536
REMARK  Name = 
REMARK  9 active torsions:
REMARK  status: ('A' for Active; 'I' for Inactive)
REMARK    1  A    between atoms: C_1  and  O_2
REMARK    2  A    between atoms: O_2  and  C_3
REMARK    3  A    between atoms: C_3  and  C_4
REMARK    4  A    between atoms: C_4  and  N_5
REMARK    5  A    between atoms: N_5  and  C_6
REMARK    6  A    between atoms: C_6  and  C_7
REMARK    7  A    between atoms: C_10  and  C_11
REMARK    8  A    between atoms: C_11  and  C_12
REMARK    9  A    between atoms: C_20  and  C_22
REMARK                            x       y       z     vdW  Elec       q    Type
REMARK                         _______ _______ _______ _____ _____    ______ ____
ROOT
ATOM      1  N   UNL     1      47.848   5.211  15.815  0.00  0.00    +0.000 N 
ATOM      2  C   UNL     1      48.406   6.224  16.630  0.00  0.00    +0.000 C 
ATOM      3  O   UNL     1      48.274   6.193  17.852  0.00  0.00    +0.000 OA
ENDROOT
BRANCH   2   4
ATOM      4  C   UNL     1      49.113   7.371  16.027  0.00  0.00    +0.000 A 
ATOM      5  C   UNL     1      48.523   8.539  15.567  0.00  0.00    +0.000 A 
ATOM      6  S   UNL     1      49.637   9.706  15.004  0.00  0.00    +0.000 S 
ATOM      7  C   UNL     1      50.954   8.764  15.519  0.00  0.00    +0.000 A 
ATOM      8  N   UNL     1      52.226   9.243  15.455  0.00  0.00    +0.000 NA
ATOM      9  C   UNL     1      53.113   8.451  15.955  0.00  0.00    +0.000 A 
ATOM     10  N   UNL     1      52.850   7.206  16.467  0.00  0.00    +0.000 N 
ATOM     11  C   UNL     1      51.603   6.622  16.412  0.00  0.00    +0.000 A 
ATOM     12  O   UNL     1      51.455   5.427  16.637  0.00  0.00    +0.000 OA
ATOM     13  C   UNL     1      50.552   7.532  15.994  0.00  0.00    +0.000 A 
ATOM     14  H   UNL     1      53.600   6.607  16.774  0.00  0.00    +0.000 HD
ENDBRANCH   2   4
BRANCH   1  15
ATOM     15  C   UNL     1      47.061   4.174  16.508  0.00  0.00    +0.000 C 
BRANCH  15  16
ATOM     16  C   UNL     1      47.918   3.084  17.178  0.00  0.00    +0.000 C 
BRANCH  16  18
ATOM     17  C   UNL     1      50.070   2.143  17.014  0.00  0.00    +0.000 C 
ATOM     18  O   UNL     1      48.956   2.657  16.290  0.00  0.00    +0.000 OA
ENDBRANCH  16  18
ENDBRANCH  15  16
ENDBRANCH   1  15
BRANCH   1  19
ATOM     19  C   UNL     1      47.992   5.213  14.363  0.00  0.00    +0.000 C 
BRANCH  19  20
ATOM     20  C   UNL     1      46.823   5.103  13.427  0.00  0.00    +0.000 A 
ATOM     21  C   UNL     1      46.523   6.140  12.533  0.00  0.00    +0.000 A 
ATOM     22  C   UNL     1      45.664   5.908  11.462  0.00  0.00    +0.000 A 
ATOM     23  C   UNL     1      45.092   4.647  11.317  0.00  0.00    +0.000 A 
ATOM     24  N   UNL     1      45.301   3.654  12.222  0.00  0.00    +0.000 NA
ATOM     25  C   UNL     1      46.154   3.901  13.245  0.00  0.00    +0.000 A 
BRANCH  23  26
ATOM     26  C   UNL     1      44.306   4.302  10.070  0.00  0.00    +0.000 C 
BRANCH  26  27
ATOM     27  C   UNL     1      45.144   3.594   9.024  0.00  0.00    +0.000 A 
ATOM     28  C   UNL     1      45.295   2.208   9.060  0.00  0.00    +0.000 A 
ATOM     29  C   UNL     1      46.133   1.591   8.135  0.00  0.00    +0.000 A 
ATOM     30  C   UNL     1      46.775   2.366   7.179  0.00  0.00    +0.000 A 
ATOM     31  C   UNL     1      46.542   3.731   7.183  0.00  0.00    +0.000 A 
ATOM     32  N   UNL     1      45.752   4.361   8.083  0.00  0.00    +0.000 NA
ENDBRANCH  26  27
ENDBRANCH  23  26
ENDBRANCH  19  20
ENDBRANCH   1  19
TORSDOF 8
ENDMDL
MODEL 5
REMARK VINA RESULT:    -6.282      2.898      7.991
REMARK INTER + INTRA:         -10.755
REMARK INTER:                  -9.110
REMARK INTRA:                  -1.645
REMARK UNBOUND:                -1.536
REMARK  Name = 
REMARK  9 active torsions:
REMARK  status: ('A' for Active; 'I' for Inactive)
REMARK    1  A    between atoms: C_1  and  O_2
REMARK    2  A    between atoms: O_2  and  C_3
REMARK    3  A    between atoms: C_3  and  C_4
REMARK    4  A    between atoms: C_4  and  N_5
REMARK    5  A    between atoms: N_5  and  C_6
REMARK    6  A    between atoms: C_6  and  C_7
REMARK    7  A    between atoms: C_10  and  C_11
REMARK    8  A    between atoms: C_11  and  C_12
REMARK    9  A    between atoms: C_20  and  C_22
REMARK                            x       y       z     vdW  Elec       q    Type
REMARK                         _______ _______ _______ _____ _____    ______ ____
ROOT
ATOM      1  N   UNL     1      49.516   7.519  14.746  0.00  0.00    +0.000 N 
ATOM      2  C   UNL     1      49.910   6.751  15.868  0.00  0.00    +0.000 C 
ATOM      3  O   UNL     1      51.099   6.548  16.104  0.00  0.00    +0.000 OA
ENDROOT
BRANCH   2   4
ATOM      4  C   UNL     1      48.901   6.131  16.749  0.00  0.00    +0.000 A 
ATOM      5  C   UNL     1      48.360   4.863  16.599  0.00  0.00    +0.000 A 
ATOM      6  S   UNL     1      47.278   4.416  17.843  0.00  0.00    +0.000 S 
ATOM      7  C   UNL     1      47.630   5.830  18.719  0.00  0.00    +0.000 A 
ATOM      8  N   UNL     1      47.130   6.022  19.970  0.00  0.00    +0.000 NA
ATOM      9  C   UNL     1      47.545   7.101  20.542  0.00  0.00    +0.000 A 
ATOM     10  N   UNL     1      48.376   8.025  19.961  0.00  0.00    +0.000 N 
ATOM     11  C   UNL     1      48.781   7.945  18.648  0.00  0.00    +0.000 A 
ATOM     12  O   UNL     1      49.300   8.904  18.088  0.00  0.00    +0.000 OA
ATOM     13  C   UNL     1      48.458   6.680  18.014  0.00  0.00    +0.000 A 
ATOM     14  H   UNL     1      48.603   8.884  20.438  0.00  0.00    +0.000 HD
ENDBRANCH   2   4
BRANCH   1  15
ATOM     15  C   UNL     1      50.598   7.993  13.865  0.00  0.00    +0.000 C 
BRANCH  15  16
ATOM     16  C   UNL     1      50.275   9.309  13.133  0.00  0.00    +0.000 C 
BRANCH  16  18
ATOM     17  C   UNL     1      50.514   7.822  11.323  0.00  0.00    +0.000 C 
ATOM     18  O   UNL     1      49.935   9.045  11.768  0.00  0.00    +0.000 OA
ENDBRANCH  16  18
ENDBRANCH  15  16
ENDBRANCH   1  15
BRANCH   1  19
ATOM     19  C   UNL     1      48.114   7.786  14.442  0.00  0.00    +0.000 C 
BRANCH  19  20
ATOM     20  C   UNL     1      47.386   7.127  13.305  0.00  0.00    +0.000 A 
ATOM     21  C   UNL     1      47.351   5.731  13.192  0.00  0.00    +0.000 A 
ATOM     22  C   UNL     1      46.423   5.124  12.348  0.00  0.00    +0.000 A 
ATOM     23  C   UNL     1      45.562   5.927  11.606  0.00  0.00    +0.000 A 
ATOM     24  N   UNL     1      45.638   7.284  11.635  0.00  0.00    +0.000 NA
ATOM     25  C   UNL     1      46.538   7.848  12.475  0.00  0.00    +0.000 A 
BRANCH  23  26
ATOM     26  C   UNL     1      44.422   5.307  10.825  0.00  0.00    +0.000 C 
BRANCH  26  27
ATOM     27  C   UNL     1      44.895   4.312   9.784  0.00  0.00    +0.000 A 
ATOM     28  C   UNL     1      44.614   2.952   9.928  0.00  0.00    +0.000 A 
ATOM     29  C   UNL     1      45.126   2.051   9.000  0.00  0.00    +0.000 A 
ATOM     30  C   UNL     1      45.880   2.526   7.936  0.00  0.00    +0.000 A 
ATOM     31  C   UNL     1      46.081   3.893   7.839  0.00  0.00    +0.000 A 
ATOM     32  N   UNL     1      45.615   4.791   8.738  0.00  0.00    +0.000 NA
ENDBRANCH  26  27
ENDBRANCH  23  26
ENDBRANCH  19  20
ENDBRANCH   1  19
TORSDOF 8
ENDMDL
MODEL 6
REMARK VINA RESULT:    -6.203      3.284      7.679
REMARK INTER + INTRA:         -10.640
REMARK INTER:                  -9.202
REMARK INTRA:                  -1.438
REMARK UNBOUND:                -1.536
REMARK  Name = 
REMARK  9 active torsions:
REMARK  status: ('A' for Active; 'I' for Inactive)
REMARK    1  A    between atoms: C_1  and  O_2
REMARK    2  A    between atoms: O_2  and  C_3
REMARK    3  A    between atoms: C_3  and  C_4
REMARK    4  A    between atoms: C_4  and  N_5
REMARK    5  A    between atoms: N_5  and  C_6
REMARK    6  A    between atoms: C_6  and  C_7
REMARK    7  A    between atoms: C_10  and  C_11
REMARK    8  A    between atoms: C_11  and  C_12
REMARK    9  A    between atoms: C_20  and  C_22
REMARK                            x       y       z     vdW  Elec       q    Type
REMARK                         _______ _______ _______ _____ _____    ______ ____
ROOT
ATOM      1  N   UNL     1      48.266   9.271  13.789  0.00  0.00    +0.000 N 
ATOM      2  C   UNL     1      49.065   9.617  14.904  0.00  0.00    +0.000 C 
ATOM      3  O   UNL     1      50.114  10.241  14.756  0.00  0.00    +0.000 OA
ENDROOT
BRANCH   2   4
ATOM      4  C   UNL     1      48.686   9.189  16.265  0.00  0.00    +0.000 A 
ATOM      5  C   UNL     1      48.051   9.973  17.216  0.00  0.00    +0.000 A 
ATOM      6  S   UNL     1      47.676   9.144  18.663  0.00  0.00    +0.000 S 
ATOM      7  C   UNL     1      48.188   7.665  18.002  0.00  0.00    +0.000 A 
ATOM      8  N   UNL     1      48.016   6.498  18.680  0.00  0.00    +0.000 NA
ATOM      9  C   UNL     1      48.379   5.449  18.022  0.00  0.00    +0.000 A 
ATOM     10  N   UNL     1      48.941   5.466  16.770  0.00  0.00    +0.000 N 
ATOM     11  C   UNL     1      49.272   6.630  16.114  0.00  0.00    +0.000 A 
ATOM     12  O   UNL     1      49.998   6.615  15.128  0.00  0.00    +0.000 OA
ATOM     13  C   UNL     1      48.750   7.826  16.751  0.00  0.00    +0.000 A 
ATOM     14  H   UNL     1      49.270   4.614  16.343  0.00  0.00    +0.000 HD
ENDBRANCH   2   4
BRANCH   1  15
ATOM     15  C   UNL     1      48.795   9.644  12.464  0.00  0.00    +0.000 C 
BRANCH  15  16
ATOM     16  C   UNL     1      49.674   8.559  11.816  0.00  0.00    +0.000 C 
BRANCH  16  18
ATOM     17  C   UNL     1      51.112  10.339  11.263  0.00  0.00    +0.000 C 
ATOM     18  O   UNL     1      51.034   9.001  11.744  0.00  0.00    +0.000 OA
ENDBRANCH  16  18
ENDBRANCH  15  16
ENDBRANCH   1  15
BRANCH   1  19
ATOM     19  C   UNL     1      47.012   8.537  13.929  0.00  0.00    +0.000 C 
BRANCH  19  20
ATOM     20  C   UNL     1      46.480   7.620  12.865  0.00  0.00    +0.000 A 
ATOM     21  C   UNL     1      46.828   6.263  12.851  0.00  0.00    +0.000 A 
ATOM     22  C   UNL     1      46.094   5.363  12.083  0.00  0.00    +0.000 A 
ATOM     23  C   UNL     1      45.036   5.841  11.314  0.00  0.00    +0.000 A 
ATOM     24  N   UNL     1      44.736   7.166  11.246  0.00  0.00    +0.000 NA
ATOM     25  C   UNL     1      45.456   8.017  12.015  0.00  0.00    +0.000 A 
BRANCH  23  26
ATOM     26  C   UNL     1      44.101   4.877  10.616  0.00  0.00    +0.000 C 
BRANCH  26  27
ATOM     27  C   UNL     1      44.802   4.026   9.576  0.00  0.00    +0.000 A 
ATOM     28  C   UNL     1      44.793   2.635   9.678  0.00  0.00    +0.000 A 
ATOM     29  C   UNL     1      45.511   1.881   8.753  0.00  0.00    +0.000 A 
ATOM     30  C   UNL     1      46.195   2.529   7.734  0.00  0.00    +0.000 A 
ATOM     31  C   UNL     1      46.122   3.911   7.676  0.00  0.00    +0.000 A 
ATOM     32  N   UNL     1      45.452   4.671   8.573  0.00  0.00    +0.000 NA
ENDBRANCH  26  27
ENDBRANCH  23  26
ENDBRANCH  19  20
ENDBRANCH   1  19
TORSDOF 8
ENDMDL
MODEL 7
REMARK VINA RESULT:    -6.112      3.340      7.841
REMARK INTER + INTRA:         -10.507
REMARK INTER:                  -9.088
REMARK INTRA:                  -1.419
REMARK UNBOUND:                -1.536
REMARK  Name = 
REMARK  9 active torsions:
REMARK  status: ('A' for Active; 'I' for Inactive)
REMARK    1  A    between atoms: C_1  and  O_2
REMARK    2  A    between atoms: O_2  and  C_3
REMARK    3  A    between atoms: C_3  and  C_4
REMARK    4  A    between atoms: C_4  and  N_5
REMARK    5  A    between atoms: N_5  and  C_6
REMARK    6  A    between atoms: C_6  and  C_7
REMARK    7  A    between atoms: C_10  and  C_11
REMARK    8  A    between atoms: C_11  and  C_12
REMARK    9  A    between atoms: C_20  and  C_22
REMARK                            x       y       z     vdW  Elec       q    Type
REMARK                         _______ _______ _______ _____ _____    ______ ____
ROOT
ATOM      1  N   UNL     1      48.604   7.433  14.947  0.00  0.00    +0.000 N 
ATOM      2  C   UNL     1      48.833   8.823  14.804  0.00  0.00    +0.000 C 
ATOM      3  O   UNL     1      48.897   9.554  15.791  0.00  0.00    +0.000 OA
ENDROOT
BRANCH   2   4
ATOM      4  C   UNL     1      48.946   9.434  13.466  0.00  0.00    +0.000 A 
ATOM      5  C   UNL     1      47.956  10.156  12.816  0.00  0.00    +0.000 A 
ATOM      6  S   UNL     1      48.440  10.803  11.311  0.00  0.00    +0.000 S 
ATOM      7  C   UNL     1      50.042  10.292  11.555  0.00  0.00    +0.000 A 
ATOM      8  N   UNL     1      51.030  10.642  10.687  0.00  0.00    +0.000 NA
ATOM      9  C   UNL     1      52.207  10.250  11.043  0.00  0.00    +0.000 A 
ATOM     10  N   UNL     1      52.478   9.502  12.161  0.00  0.00    +0.000 N 
ATOM     11  C   UNL     1      51.493   8.999  12.982  0.00  0.00    +0.000 A 
ATOM     12  O   UNL     1      51.743   8.132  13.810  0.00  0.00    +0.000 OA
ATOM     13  C   UNL     1      50.172   9.534  12.702  0.00  0.00    +0.000 A 
ATOM     14  H   UNL     1      53.411   9.167  12.342  0.00  0.00    +0.000 HD
ENDBRANCH   2   4
BRANCH   1  15
ATOM     15  C   UNL     1      48.388   6.944  16.320  0.00  0.00    +0.000 C 
BRANCH  15  16
ATOM     16  C   UNL     1      48.618   5.430  16.486  0.00  0.00    +0.000 C 
BRANCH  16  18
ATOM     17  C   UNL     1      47.565   3.392  17.014  0.00  0.00    +0.000 C 
ATOM     18  O   UNL     1      47.367   4.755  16.653  0.00  0.00    +0.000 OA
ENDBRANCH  16  18
ENDBRANCH  15  16
ENDBRANCH   1  15
BRANCH   1  19
ATOM     19  C   UNL     1      48.531   6.537  13.798  0.00  0.00    +0.000 C 
BRANCH  19  20
ATOM     20  C   UNL     1      47.240   6.197  13.109  0.00  0.00    +0.000 A 
ATOM     21  C   UNL     1      46.706   7.047  12.132  0.00  0.00    +0.000 A 
ATOM     22  C   UNL     1      45.708   6.585  11.277  0.00  0.00    +0.000 A 
ATOM     23  C   UNL     1      45.238   5.284  11.432  0.00  0.00    +0.000 A 
ATOM     24  N   UNL     1      45.681   4.472  12.429  0.00  0.00    +0.000 NA
ATOM     25  C   UNL     1      46.662   4.941  13.236  0.00  0.00    +0.000 A 
BRANCH  23  26
ATOM     26  C   UNL     1      44.294   4.686  10.410  0.00  0.00    +0.000 C 
BRANCH  26  27
ATOM     27  C   UNL     1      45.011   3.856   9.363  0.00  0.00    +0.000 A 
ATOM     28  C   UNL     1      44.996   2.463   9.433  0.00  0.00    +0.000 A 
ATOM     29  C   UNL     1      45.727   1.728   8.504  0.00  0.00    +0.000 A 
ATOM     30  C   UNL     1      46.430   2.396   7.511  0.00  0.00    +0.000 A 
ATOM     31  C   UNL     1      46.362   3.779   7.483  0.00  0.00    +0.000 A 
ATOM     32  N   UNL     1      45.680   4.521   8.386  0.00  0.00    +0.000 NA
ENDBRANCH  26  27
ENDBRANCH  23  26
ENDBRANCH  19  20
ENDBRANCH   1  19
TORSDOF 8
ENDMDL
MODEL 8
REMARK VINA RESULT:    -5.939      3.124      7.798
REMARK INTER + INTRA:         -10.252
REMARK INTER:                  -8.647
REMARK INTRA:                  -1.605
REMARK UNBOUND:                -1.536
REMARK  Name = 
REMARK  9 active torsions:
REMARK  status: ('A' for Active; 'I' for Inactive)
REMARK    1  A    between atoms: C_1  and  O_2
REMARK    2  A    between atoms: O_2  and  C_3
REMARK    3  A    between atoms: C_3  and  C_4
REMARK    4  A    between atoms: C_4  and  N_5
REMARK    5  A    between atoms: N_5  and  C_6
REMARK    6  A    between atoms: C_6  and  C_7
REMARK    7  A    between atoms: C_10  and  C_11
REMARK    8  A    between atoms: C_11  and  C_12
REMARK    9  A    between atoms: C_20  and  C_22
REMARK                            x       y       z     vdW  Elec       q    Type
REMARK                         _______ _______ _______ _____ _____    ______ ____
ROOT
ATOM      1  N   UNL     1      48.729   7.611  16.686  0.00  0.00    +0.000 N 
ATOM      2  C   UNL     1      48.278   6.855  17.794  0.00  0.00    +0.000 C 
ATOM      3  O   UNL     1      47.929   7.411  18.834  0.00  0.00    +0.000 OA
ENDROOT
BRANCH   2   4
ATOM      4  C   UNL     1      48.268   5.380  17.745  0.00  0.00    +0.000 A 
ATOM      5  C   UNL     1      47.164   4.583  17.484  0.00  0.00    +0.000 A 
ATOM      6  S   UNL     1      47.513   2.911  17.417  0.00  0.00    +0.000 S 
ATOM      7  C   UNL     1      49.180   3.208  17.557  0.00  0.00    +0.000 A 
ATOM      8  N   UNL     1      50.084   2.197  17.438  0.00  0.00    +0.000 NA
ATOM      9  C   UNL     1      51.314   2.583  17.486  0.00  0.00    +0.000 A 
ATOM     10  N   UNL     1      51.721   3.877  17.691  0.00  0.00    +0.000 N 
ATOM     11  C   UNL     1      50.844   4.902  17.967  0.00  0.00    +0.000 A 
ATOM     12  O   UNL     1      51.244   5.978  18.396  0.00  0.00    +0.000 OA
ATOM     13  C   UNL     1      49.450   4.543  17.778  0.00  0.00    +0.000 A 
ATOM     14  H   UNL     1      52.699   4.099  17.791  0.00  0.00    +0.000 HD
ENDBRANCH   2   4
BRANCH   1  15
ATOM     15  C   UNL     1      48.812   9.070  16.880  0.00  0.00    +0.000 C 
BRANCH  15  16
ATOM     16  C   UNL     1      50.243   9.631  16.792  0.00  0.00    +0.000 C 
BRANCH  16  18
ATOM     17  C   UNL     1      50.823   9.899  19.058  0.00  0.00    +0.000 C 
ATOM     18  O   UNL     1      51.036   9.134  17.875  0.00  0.00    +0.000 OA
ENDBRANCH  16  18
ENDBRANCH  15  16
ENDBRANCH   1  15
BRANCH   1  19
ATOM     19  C   UNL     1      49.143   6.985  15.435  0.00  0.00    +0.000 C 
BRANCH  19  20
ATOM     20  C   UNL     1      48.188   6.696  14.312  0.00  0.00    +0.000 A 
ATOM     21  C   UNL     1      47.743   5.390  14.070  0.00  0.00    +0.000 A 
ATOM     22  C   UNL     1      46.629   5.172  13.261  0.00  0.00    +0.000 A 
ATOM     23  C   UNL     1      45.995   6.267  12.680  0.00  0.00    +0.000 A 
ATOM     24  N   UNL     1      46.463   7.535  12.832  0.00  0.00    +0.000 NA
ATOM     25  C   UNL     1      47.537   7.720  13.636  0.00  0.00    +0.000 A 
BRANCH  23  26
ATOM     26  C   UNL     1      44.679   6.090  11.952  0.00  0.00    +0.000 C 
BRANCH  26  27
ATOM     27  C   UNL     1      44.728   4.992  10.909  0.00  0.00    +0.000 A 
ATOM     28  C   UNL     1      45.368   5.205   9.687  0.00  0.00    +0.000 A 
ATOM     29  C   UNL     1      45.330   4.208   8.717  0.00  0.00    +0.000 A 
ATOM     30  C   UNL     1      44.682   3.013   8.997  0.00  0.00    +0.000 A 
ATOM     31  C   UNL     1      44.106   2.861  10.247  0.00  0.00    +0.000 A 
ATOM     32  N   UNL     1      44.107   3.820  11.201  0.00  0.00    +0.000 NA
ENDBRANCH  26  27
ENDBRANCH  23  26
ENDBRANCH  19  20
ENDBRANCH   1  19
TORSDOF 8
ENDMDL
MODEL 9
REMARK VINA RESULT:    -5.737      3.325      8.427
REMARK INTER + INTRA:          -9.957
REMARK INTER:                  -9.152
REMARK INTRA:                  -0.804
REMARK UNBOUND:                -1.536
REMARK  Name = 
REMARK  9 active torsions:
REMARK  status: ('A' for Active; 'I' for Inactive)
REMARK    1  A    between atoms: C_1  and  O_2
REMARK    2  A    between atoms: O_2  and  C_3
REMARK    3  A    between atoms: C_3  and  C_4
REMARK    4  A    between atoms: C_4  and  N_5
REMARK    5  A    between atoms: N_5  and  C_6
REMARK    6  A    between atoms: C_6  and  C_7
REMARK    7  A    between atoms: C_10  and  C_11
REMARK    8  A    between atoms: C_11  and  C_12
REMARK    9  A    between atoms: C_20  and  C_22
REMARK                            x       y       z     vdW  Elec       q    Type
REMARK                         _______ _______ _______ _____ _____    ______ ____
ROOT
ATOM      1  N   UNL     1      47.821   5.631  15.132  0.00  0.00    +0.000 N 
ATOM      2  C   UNL     1      49.049   6.284  15.392  0.00  0.00    +0.000 C 
ATOM      3  O   UNL     1      49.858   5.808  16.186  0.00  0.00    +0.000 OA
ENDROOT
BRANCH   2   4
ATOM      4  C   UNL     1      49.363   7.580  14.758  0.00  0.00    +0.000 A 
ATOM      5  C   UNL     1      49.769   7.765  13.445  0.00  0.00    +0.000 A 
ATOM      6  S   UNL     1      49.967   9.404  13.003  0.00  0.00    +0.000 S 
ATOM      7  C   UNL     1      49.346   9.929  14.495  0.00  0.00    +0.000 A 
ATOM      8  N   UNL     1      49.117  11.249  14.733  0.00  0.00    +0.000 NA
ATOM      9  C   UNL     1      48.570  11.490  15.877  0.00  0.00    +0.000 A 
ATOM     10  N   UNL     1      48.277  10.538  16.820  0.00  0.00    +0.000 N 
ATOM     11  C   UNL     1      48.631   9.214  16.683  0.00  0.00    +0.000 A 
ATOM     12  O   UNL     1      48.591   8.448  17.637  0.00  0.00    +0.000 OA
ATOM     13  C   UNL     1      49.114   8.875  15.356  0.00  0.00    +0.000 A 
ATOM     14  H   UNL     1      47.918  10.804  17.724  0.00  0.00    +0.000 HD
ENDBRANCH   2   4
BRANCH   1  15
ATOM     15  C   UNL     1      47.556   4.405  15.906  0.00  0.00    +0.000 C 
BRANCH  15  16
ATOM     16  C   UNL     1      47.221   4.662  17.386  0.00  0.00    +0.000 C 
BRANCH  16  18
ATOM     17  C   UNL     1      48.871   3.346  18.429  0.00  0.00    +0.000 C 
ATOM     18  O   UNL     1      47.479   3.488  18.163  0.00  0.00    +0.000 OA
ENDBRANCH  16  18
ENDBRANCH  15  16
ENDBRANCH   1  15
BRANCH   1  19
ATOM     19  C   UNL     1      46.842   6.164  14.190  0.00  0.00    +0.000 C 
BRANCH  19  20
ATOM     20  C   UNL     1      46.526   5.503  12.879  0.00  0.00    +0.000 A 
ATOM     21  C   UNL     1      45.935   4.233  12.843  0.00  0.00    +0.000 A 
ATOM     22  C   UNL     1      45.352   3.770  11.666  0.00  0.00    +0.000 A 
ATOM     23  C   UNL     1      45.396   4.574  10.531  0.00  0.00    +0.000 A 
ATOM     24  N   UNL     1      46.040   5.772  10.521  0.00  0.00    +0.000 NA
ATOM     25  C   UNL     1      46.585   6.205  11.683  0.00  0.00    +0.000 A 
BRANCH  23  26
ATOM     26  C   UNL     1      44.615   4.191   9.292  0.00  0.00    +0.000 C 
BRANCH  26  27
ATOM     27  C   UNL     1      45.396   3.281   8.363  0.00  0.00    +0.000 A 
ATOM     28  C   UNL     1      45.593   1.939   8.690  0.00  0.00    +0.000 A 
ATOM     29  C   UNL     1      46.379   1.146   7.859  0.00  0.00    +0.000 A 
ATOM     30  C   UNL     1      46.925   1.700   6.709  0.00  0.00    +0.000 A 
ATOM     31  C   UNL     1      46.649   3.028   6.432  0.00  0.00    +0.000 A 
ATOM     32  N   UNL     1      45.909   3.830   7.232  0.00  0.00    +0.000 NA
ENDBRANCH  26  27
ENDBRANCH  23  26
ENDBRANCH  19  20
ENDBRANCH   1  19
TORSDOF 8
ENDMDL
