MODEL 1
REMARK VINA RESULT:    -7.909      0.000      0.000
REMARK INTER + INTRA:         -12.320
REMARK INTER:                 -11.146
REMARK INTRA:                  -1.174
REMARK UNBOUND:                -1.174
REMARK  Name = 
REMARK  7 active torsions:
REMARK  status: ('A' for Active; 'I' for Inactive)
REMARK    1  A    between atoms: C_2  and  C_19
REMARK    2  A    between atoms: N_3  and  C_4
REMARK    3  A    between atoms: C_4  and  C_5
REMARK    4  A    between atoms: C_8  and  C_9
REMARK    5  A    between atoms: C_9  and  C_10
REMARK    6  A    between atoms: C_10  and  N_11
REMARK    7  A    between atoms: N_11  and  C_12
REMARK                            x       y       z     vdW  Elec       q    Type
REMARK                         _______ _______ _______ _____ _____    ______ ____
ROOT
ATOM      1  C   UNL     1      46.465   7.349  12.879  0.00  0.00    +0.000 C 
ENDROOT
BRANCH   1   2
ATOM      2  C   UNL     1      45.825   6.163  12.220  0.00  0.00    +0.000 A 
ATOM      3  C   UNL     1      45.162   5.180  12.956  0.00  0.00    +0.000 A 
ATOM      4  C   UNL     1      44.603   4.082  12.304  0.00  0.00    +0.000 A 
ATOM      5  C   UNL     1      44.709   3.994  10.919  0.00  0.00    +0.000 A 
ATOM      6  N   UNL     1      45.306   4.958  10.180  0.00  0.00    +0.000 NA
ATOM      7  C   UNL     1      45.844   6.012  10.839  0.00  0.00    +0.000 A 
BRANCH   5   8
ATOM      8  C   UNL     1      44.127   2.817  10.173  0.00  0.00    +0.000 C 
BRANCH   8   9
ATOM      9  C   UNL     1      44.634   2.778   8.727  0.00  0.00    +0.000 C 
BRANCH   9  10
ATOM     10  N   UNL     1      45.897   2.032   8.617  0.00  0.00    +0.000 NA
ATOM     11  H   UNL     1      45.793   1.110   9.039  0.00  0.00    +0.000 HD
BRANCH  10  12
ATOM     12  C   UNL     1      46.340   1.886   7.226  0.00  0.00    +0.000 C 
ATOM     13  C   UNL     1      46.359   3.183   6.426  0.00  0.00    +0.000 C 
ATOM     14  C   UNL     1      47.368   2.884   5.339  0.00  0.00    +0.000 C 
ATOM     15  N   UNL     1      48.446   2.164   6.028  0.00  0.00    +0.000 NA
ATOM     16  C   UNL     1      47.791   1.379   7.095  0.00  0.00    +0.000 C 
ATOM     17  H   UNL     1      49.041   2.858   6.485  0.00  0.00    +0.000 HD
ENDBRANCH  10  12
ENDBRANCH   9  10
ENDBRANCH   8   9
ENDBRANCH   5   8
ENDBRANCH   1   2
BRANCH   1  20
ATOM     18  O   UNL     1      49.038   6.327  13.168  0.00  0.00    +0.000 OA
ATOM     19  C   UNL     1      48.384   6.563  14.181  0.00  0.00    +0.000 C 
ATOM     20  N   UNL     1      47.082   6.991  14.129  0.00  0.00    +0.000 N 
ATOM     21  H   UNL     1      46.664   7.384  14.966  0.00  0.00    +0.000 HD
BRANCH  19  22
ATOM     22  C   UNL     1      48.942   6.360  15.522  0.00  0.00    +0.000 A 
ATOM     23  C   UNL     1      49.962   7.178  15.989  0.00  0.00    +0.000 A 
ATOM     24  S   UNL     1      50.503   6.764  17.553  0.00  0.00    +0.000 S 
ATOM     25  C   UNL     1      49.362   5.508  17.678  0.00  0.00    +0.000 A 
ATOM     26  N   UNL     1      49.274   4.746  18.801  0.00  0.00    +0.000 NA
ATOM     27  C   UNL     1      48.340   3.853  18.769  0.00  0.00    +0.000 A 
ATOM     28  N   UNL     1      47.489   3.651  17.715  0.00  0.00    +0.000 N 
ATOM     29  C   UNL     1      47.564   4.373  16.548  0.00  0.00    +0.000 A 
ATOM     30  O   UNL     1      46.824   4.128  15.603  0.00  0.00    +0.000 OA
ATOM     31  C   UNL     1      48.590   5.398  16.537  0.00  0.00    +0.000 A 
ATOM     32  H   UNL     1      46.786   2.929  17.746  0.00  0.00    +0.000 HD
ENDBRANCH  19  22
ENDBRANCH   1  20
TORSDOF 7
ENDMDL
MODEL 2
REMARK VINA RESULT:    -7.377      2.007      2.430
REMARK INTER + INTRA:         -11.570
REMARK INTER:                 -10.363
REMARK INTRA:                  -1.207
REMARK UNBOUND:                -1.174
REMARK  Name = 
REMARK  7 active torsions:
REMARK  status: ('A' for Active; 'I' for Inactive)
REMARK    1  A    between atoms: C_2  and  C_19
REMARK    2  A    between atoms: N_3  and  C_4
REMARK    3  A    between atoms: C_4  and  C_5
REMARK    4  A    between atoms: C_8  and  C_9
REMARK    5  A    between atoms: C_9  and  C_10
REMARK    6  A    between atoms: C_10  and  N_11
REMARK    7  A    between atoms: N_11  and  C_12
REMARK                            x       y       z     vdW  Elec       q    Type
REMARK                         _______ _______ _______ _____ _____    ______ ____
ROOT
ATOM      1  C   UNL     1      48.176   6.617  13.763  0.00  0.00    +0.000 C 
ENDROOT
BRANCH   1   2
ATOM      2  C   UNL     1      46.986   5.805  13.345  0.00  0.00    +0.000 A 
ATOM      3  C   UNL     1      45.925   6.365  12.633  0.00  0.00    +0.000 A 
ATOM      4  C   UNL     1      44.827   5.577  12.287  0.00  0.00    +0.000 A 
ATOM      5  C   UNL     1      44.818   4.235  12.653  0.00  0.00    +0.000 A 
ATOM      6  N   UNL     1      45.856   3.659  13.304  0.00  0.00    +0.000 NA
ATOM      7  C   UNL     1      46.907   4.447  13.631  0.00  0.00    +0.000 A 
BRANCH   5   8
ATOM      8  C   UNL     1      43.645   3.348  12.308  0.00  0.00    +0.000 C 
BRANCH   8   9
ATOM      9  C   UNL     1      43.629   3.014  10.813  0.00  0.00    +0.000 C 
BRANCH   9  10
ATOM     10  N   UNL     1      44.944   2.545  10.350  0.00  0.00    +0.000 NA
ATOM     11  H   UNL     1      45.104   1.591  10.670  0.00  0.00    +0.000 HD
BRANCH  10  12
ATOM     12  C   UNL     1      45.075   2.601   8.890  0.00  0.00    +0.000 C 
ATOM     13  C   UNL     1      45.634   3.912   8.352  0.00  0.00    +0.000 C 
ATOM     14  C   UNL     1      46.213   3.500   7.016  0.00  0.00    +0.000 C 
ATOM     15  N   UNL     1      46.868   2.214   7.283  0.00  0.00    +0.000 NA
ATOM     16  C   UNL     1      46.053   1.551   8.322  0.00  0.00    +0.000 C 
ATOM     17  H   UNL     1      47.782   2.410   7.697  0.00  0.00    +0.000 HD
ENDBRANCH  10  12
ENDBRANCH   9  10
ENDBRANCH   8   9
ENDBRANCH   5   8
ENDBRANCH   1   2
BRANCH   1  20
ATOM     18  O   UNL     1      50.336   6.592  15.518  0.00  0.00    +0.000 OA
ATOM     19  C   UNL     1      49.251   6.992  15.931  0.00  0.00    +0.000 C 
ATOM     20  N   UNL     1      48.117   6.962  15.159  0.00  0.00    +0.000 N 
ATOM     21  H   UNL     1      47.311   7.504  15.456  0.00  0.00    +0.000 HD
BRANCH  19  22
ATOM     22  C   UNL     1      49.084   7.491  17.301  0.00  0.00    +0.000 A 
ATOM     23  C   UNL     1      49.621   8.717  17.670  0.00  0.00    +0.000 A 
ATOM     24  S   UNL     1      49.355   9.107  19.310  0.00  0.00    +0.000 S 
ATOM     25  C   UNL     1      48.475   7.675  19.568  0.00  0.00    +0.000 A 
ATOM     26  N   UNL     1      47.934   7.390  20.784  0.00  0.00    +0.000 NA
ATOM     27  C   UNL     1      47.263   6.287  20.825  0.00  0.00    +0.000 A 
ATOM     28  N   UNL     1      47.086   5.440  19.763  0.00  0.00    +0.000 N 
ATOM     29  C   UNL     1      47.642   5.670  18.527  0.00  0.00    +0.000 A 
ATOM     30  O   UNL     1      47.511   4.864  17.614  0.00  0.00    +0.000 OA
ATOM     31  C   UNL     1      48.397   6.904  18.424  0.00  0.00    +0.000 A 
ATOM     32  H   UNL     1      46.560   4.586  19.861  0.00  0.00    +0.000 HD
ENDBRANCH  19  22
ENDBRANCH   1  20
TORSDOF 7
ENDMDL
MODEL 3
REMARK VINA RESULT:    -7.241      1.921      3.417
REMARK INTER + INTRA:         -11.378
REMARK INTER:                 -10.083
REMARK INTRA:                  -1.295
REMARK UNBOUND:                -1.174
REMARK  Name = 
REMARK  7 active torsions:
REMARK  status: ('A' for Active; 'I' for Inactive)
REMARK    1  A    between atoms: C_2  and  C_19
REMARK    2  A    between atoms: N_3  and  C_4
REMARK    3  A    between atoms: C_4  and  C_5
REMARK    4  A    between atoms: C_8  and  C_9
REMARK    5  A    between atoms: C_9  and  C_10
REMARK    6  A    between atoms: C_10  and  N_11
REMARK    7  A    between atoms: N_11  and  C_12
REMARK                            x       y       z     vdW  Elec       q    Type
REMARK                         _______ _______ _______ _____ _____    ______ ____
ROOT
ATOM      1  C   UNL     1      46.876   4.426  14.690  0.00  0.00    +0.000 C 
ENDROOT
BRANCH   1   2
ATOM      2  C   UNL     1      46.241   4.427  13.331  0.00  0.00    +0.000 A 
ATOM      3  C   UNL     1      46.218   5.570  12.530  0.00  0.00    +0.000 A 
ATOM      4  C   UNL     1      45.594   5.532  11.283  0.00  0.00    +0.000 A 
ATOM      5  C   UNL     1      45.014   4.341  10.854  0.00  0.00    +0.000 A 
ATOM      6  N   UNL     1      45.066   3.208  11.594  0.00  0.00    +0.000 NA
ATOM      7  C   UNL     1      45.673   3.274  12.803  0.00  0.00    +0.000 A 
BRANCH   5   8
ATOM      8  C   UNL     1      44.320   4.258   9.516  0.00  0.00    +0.000 C 
BRANCH   8   9
ATOM      9  C   UNL     1      44.446   2.853   8.918  0.00  0.00    +0.000 C 
BRANCH   9  10
ATOM     10  N   UNL     1      45.854   2.453   8.770  0.00  0.00    +0.000 NA
ATOM     11  H   UNL     1      46.046   1.640   9.353  0.00  0.00    +0.000 HD
BRANCH  10  12
ATOM     12  C   UNL     1      46.206   2.153   7.379  0.00  0.00    +0.000 C 
ATOM     13  C   UNL     1      46.581   3.369   6.541  0.00  0.00    +0.000 C 
ATOM     14  C   UNL     1      47.438   2.766   5.449  0.00  0.00    +0.000 C 
ATOM     15  N   UNL     1      48.277   1.783   6.144  0.00  0.00    +0.000 NA
ATOM     16  C   UNL     1      47.448   1.246   7.243  0.00  0.00    +0.000 C 
ATOM     17  H   UNL     1      49.056   2.287   6.572  0.00  0.00    +0.000 HD
ENDBRANCH  10  12
ENDBRANCH   9  10
ENDBRANCH   8   9
ENDBRANCH   5   8
ENDBRANCH   1   2
BRANCH   1  20
ATOM     18  O   UNL     1      48.898   4.887  16.546  0.00  0.00    +0.000 OA
ATOM     19  C   UNL     1      48.473   5.837  15.895  0.00  0.00    +0.000 C 
ATOM     20  N   UNL     1      47.425   5.715  15.019  0.00  0.00    +0.000 N 
ATOM     21  H   UNL     1      47.261   6.459  14.347  0.00  0.00    +0.000 HD
BRANCH  19  22
ATOM     22  C   UNL     1      49.035   7.185  16.043  0.00  0.00    +0.000 A 
ATOM     23  C   UNL     1      49.077   7.794  17.290  0.00  0.00    +0.000 A 
ATOM     24  S   UNL     1      49.731   9.370  17.253  0.00  0.00    +0.000 S 
ATOM     25  C   UNL     1      50.021   9.273  15.580  0.00  0.00    +0.000 A 
ATOM     26  N   UNL     1      50.597  10.304  14.904  0.00  0.00    +0.000 NA
ATOM     27  C   UNL     1      50.789  10.078  13.647  0.00  0.00    +0.000 A 
ATOM     28  N   UNL     1      50.455   8.916  13.002  0.00  0.00    +0.000 N 
ATOM     29  C   UNL     1      49.841   7.863  13.636  0.00  0.00    +0.000 A 
ATOM     30  O   UNL     1      49.504   6.860  13.018  0.00  0.00    +0.000 OA
ATOM     31  C   UNL     1      49.613   8.061  15.055  0.00  0.00    +0.000 A 
ATOM     32  H   UNL     1      50.620   8.803  12.014  0.00  0.00    +0.000 HD
ENDBRANCH  19  22
ENDBRANCH   1  20
TORSDOF 7
ENDMDL
MODEL 4
REMARK VINA RESULT:    -7.109      1.744      2.543
REMARK INTER + INTRA:         -11.192
REMARK INTER:                  -9.960
REMARK INTRA:                  -1.232
REMARK UNBOUND:                -1.174
REMARK  Name = 
REMARK  7 active torsions:
REMARK  status: ('A' for Active; 'I' for Inactive)
REMARK    1  A    between atoms: C_2  and  C_19
REMARK    2  A    between atoms: N_3  and  C_4
REMARK    3  A    between atoms: C_4  and  C_5
REMARK    4  A    between atoms: C_8  and  C_9
REMARK    5  A    between atoms: C_9  and  C_10
REMARK    6  A    between atoms: C_10  and  N_11
REMARK    7  A    between atoms: N_11  and  C_12
REMARK                            x       y       z     vdW  Elec       q    Type
REMARK                         _______ _______ _______ _____ _____    ______ ____
ROOT
ATOM      1  C   UNL     1      48.688   7.835  13.066  0.00  0.00    +0.000 C 
ENDROOT
BRANCH   1   2
ATOM      2  C   UNL     1      47.312   7.521  12.557  0.00  0.00    +0.000 A 
ATOM      3  C   UNL     1      46.310   8.490  12.497  0.00  0.00    +0.000 A 
ATOM      4  C   UNL     1      45.038   8.146  12.040  0.00  0.00    +0.000 A 
ATOM      5  C   UNL     1      44.796   6.836  11.638  0.00  0.00    +0.000 A 
ATOM      6  N   UNL     1      45.766   5.890  11.644  0.00  0.00    +0.000 NA
ATOM      7  C   UNL     1      46.990   6.250  12.097  0.00  0.00    +0.000 A 
BRANCH   5   8
ATOM      8  C   UNL     1      43.431   6.418  11.147  0.00  0.00    +0.000 C 
BRANCH   8   9
ATOM      9  C   UNL     1      43.372   4.905  10.908  0.00  0.00    +0.000 C 
BRANCH   9  10
ATOM     10  N   UNL     1      43.664   4.568   9.506  0.00  0.00    +0.000 NA
ATOM     11  H   UNL     1      43.789   5.422   8.963  0.00  0.00    +0.000 HD
BRANCH  10  12
ATOM     12  C   UNL     1      44.856   3.724   9.371  0.00  0.00    +0.000 C 
ATOM     13  C   UNL     1      44.566   2.245   9.150  0.00  0.00    +0.000 C 
ATOM     14  C   UNL     1      45.825   1.760   8.466  0.00  0.00    +0.000 C 
ATOM     15  N   UNL     1      46.158   2.826   7.514  0.00  0.00    +0.000 NA
ATOM     16  C   UNL     1      45.731   4.088   8.153  0.00  0.00    +0.000 C 
ATOM     17  H   UNL     1      45.574   2.696   6.685  0.00  0.00    +0.000 HD
ENDBRANCH  10  12
ENDBRANCH   9  10
ENDBRANCH   8   9
ENDBRANCH   5   8
ENDBRANCH   1   2
BRANCH   1  20
ATOM     18  O   UNL     1      48.387   8.613  15.721  0.00  0.00    +0.000 OA
ATOM     19  C   UNL     1      48.772   7.471  15.486  0.00  0.00    +0.000 C 
ATOM     20  N   UNL     1      49.025   7.030  14.211  0.00  0.00    +0.000 N 
ATOM     21  H   UNL     1      49.118   6.033  14.049  0.00  0.00    +0.000 HD
BRANCH  19  22
ATOM     22  C   UNL     1      49.030   6.507  16.562  0.00  0.00    +0.000 A 
ATOM     23  C   UNL     1      49.936   6.808  17.570  0.00  0.00    +0.000 A 
ATOM     24  S   UNL     1      50.127   5.551  18.708  0.00  0.00    +0.000 S 
ATOM     25  C   UNL     1      48.973   4.583  17.919  0.00  0.00    +0.000 A 
ATOM     26  N   UNL     1      48.639   3.353  18.397  0.00  0.00    +0.000 NA
ATOM     27  C   UNL     1      47.724   2.746  17.717  0.00  0.00    +0.000 A 
ATOM     28  N   UNL     1      47.114   3.254  16.600  0.00  0.00    +0.000 N 
ATOM     29  C   UNL     1      47.443   4.475  16.062  0.00  0.00    +0.000 A 
ATOM     30  O   UNL     1      46.919   4.874  15.029  0.00  0.00    +0.000 OA
ATOM     31  C   UNL     1      48.459   5.204  16.796  0.00  0.00    +0.000 A 
ATOM     32  H   UNL     1      46.412   2.725  16.105  0.00  0.00    +0.000 HD
ENDBRANCH  19  22
ENDBRANCH   1  20
TORSDOF 7
ENDMDL
MODEL 5
REMARK VINA RESULT:    -6.953      2.918      8.637
REMARK INTER + INTRA:         -10.972
REMARK INTER:                  -9.498
REMARK INTRA:                  -1.474
REMARK UNBOUND:                -1.174
REMARK  Name = 
REMARK  7 active torsions:
REMARK  status: ('A' for Active; 'I' for Inactive)
REMARK    1  A    between atoms: C_2  and  C_19
REMARK    2  A    between atoms: N_3  and  C_4
REMARK    3  A    between atoms: C_4  and  C_5
REMARK    4  A    between atoms: C_8  and  C_9
REMARK    5  A    between atoms: C_9  and  C_10
REMARK    6  A    between atoms: C_10  and  N_11
REMARK    7  A    between atoms: N_11  and  C_12
REMARK                            x       y       z     vdW  Elec       q    Type
REMARK                         _______ _______ _______ _____ _____    ______ ____
ROOT
ATOM      1  C   UNL     1      47.420   7.680  12.076  0.00  0.00    +0.000 C 
ENDROOT
BRANCH   1   2
ATOM      2  C   UNL     1      48.000   7.798  13.454  0.00  0.00    +0.000 A 
ATOM      3  C   UNL     1      47.893   8.973  14.200  0.00  0.00    +0.000 A 
ATOM      4  C   UNL     1      48.470   9.047  15.468  0.00  0.00    +0.000 A 
ATOM      5  C   UNL     1      49.135   7.933  15.972  0.00  0.00    +0.000 A 
ATOM      6  N   UNL     1      49.211   6.768  15.286  0.00  0.00    +0.000 NA
ATOM      7  C   UNL     1      48.647   6.726  14.056  0.00  0.00    +0.000 A 
BRANCH   5   8
ATOM      8  C   UNL     1      49.783   7.972  17.335  0.00  0.00    +0.000 C 
BRANCH   8   9
ATOM      9  C   UNL     1      49.257   6.842  18.226  0.00  0.00    +0.000 C 
BRANCH   9  10
ATOM     10  N   UNL     1      47.848   6.537  17.936  0.00  0.00    +0.000 NA
ATOM     11  H   UNL     1      47.651   6.712  16.951  0.00  0.00    +0.000 HD
BRANCH  10  12
ATOM     12  C   UNL     1      47.497   5.151  18.266  0.00  0.00    +0.000 C 
ATOM     13  C   UNL     1      47.252   4.253  17.060  0.00  0.00    +0.000 C 
ATOM     14  C   UNL     1      47.521   2.872  17.617  0.00  0.00    +0.000 C 
ATOM     15  N   UNL     1      48.708   3.044  18.462  0.00  0.00    +0.000 NA
ATOM     16  C   UNL     1      48.608   4.403  19.032  0.00  0.00    +0.000 C 
ATOM     17  H   UNL     1      49.528   3.032  17.852  0.00  0.00    +0.000 HD
ENDBRANCH  10  12
ENDBRANCH   9  10
ENDBRANCH   8   9
ENDBRANCH   5   8
ENDBRANCH   1   2
BRANCH   1  20
ATOM     18  O   UNL     1      44.657   7.367  11.973  0.00  0.00    +0.000 OA
ATOM     19  C   UNL     1      45.365   6.381  11.786  0.00  0.00    +0.000 C 
ATOM     20  N   UNL     1      46.731   6.428  11.898  0.00  0.00    +0.000 N 
ATOM     21  H   UNL     1      47.279   5.663  11.518  0.00  0.00    +0.000 HD
BRANCH  19  22
ATOM     22  C   UNL     1      44.790   5.069  11.469  0.00  0.00    +0.000 A 
ATOM     23  C   UNL     1      43.994   4.410  12.396  0.00  0.00    +0.000 A 
ATOM     24  S   UNL     1      43.449   2.884  11.861  0.00  0.00    +0.000 S 
ATOM     25  C   UNL     1      44.220   3.073  10.356  0.00  0.00    +0.000 A 
ATOM     26  N   UNL     1      44.136   2.113   9.396  0.00  0.00    +0.000 NA
ATOM     27  C   UNL     1      44.740   2.406   8.292  0.00  0.00    +0.000 A 
ATOM     28  N   UNL     1      45.425   3.570   8.062  0.00  0.00    +0.000 N 
ATOM     29  C   UNL     1      45.566   4.552   9.013  0.00  0.00    +0.000 A 
ATOM     30  O   UNL     1      46.233   5.555   8.794  0.00  0.00    +0.000 OA
ATOM     31  C   UNL     1      44.894   4.276  10.269  0.00  0.00    +0.000 A 
ATOM     32  H   UNL     1      45.887   3.736   7.182  0.00  0.00    +0.000 HD
ENDBRANCH  19  22
ENDBRANCH   1  20
TORSDOF 7
ENDMDL
MODEL 6
REMARK VINA RESULT:    -6.925      2.563      3.748
REMARK INTER + INTRA:         -10.934
REMARK INTER:                 -10.062
REMARK INTRA:                  -0.871
REMARK UNBOUND:                -1.174
REMARK  Name = 
REMARK  7 active torsions:
REMARK  status: ('A' for Active; 'I' for Inactive)
REMARK    1  A    between atoms: C_2  and  C_19
REMARK    2  A    between atoms: N_3  and  C_4
REMARK    3  A    between atoms: C_4  and  C_5
REMARK    4  A    between atoms: C_8  and  C_9
REMARK    5  A    between atoms: C_9  and  C_10
REMARK    6  A    between atoms: C_10  and  N_11
REMARK    7  A    between atoms: N_11  and  C_12
REMARK                            x       y       z     vdW  Elec       q    Type
REMARK                         _______ _______ _______ _____ _____    ______ ____
ROOT
ATOM      1  C   UNL     1      47.534   4.108  15.658  0.00  0.00    +0.000 C 
ENDROOT
BRANCH   1   2
ATOM      2  C   UNL     1      47.010   4.588  14.337  0.00  0.00    +0.000 A 
ATOM      3  C   UNL     1      47.375   5.826  13.806  0.00  0.00    +0.000 A 
ATOM      4  C   UNL     1      46.843   6.243  12.586  0.00  0.00    +0.000 A 
ATOM      5  C   UNL     1      45.960   5.404  11.912  0.00  0.00    +0.000 A 
ATOM      6  N   UNL     1      45.628   4.179  12.386  0.00  0.00    +0.000 NA
ATOM      7  C   UNL     1      46.155   3.802  13.574  0.00  0.00    +0.000 A 
BRANCH   5   8
ATOM      8  C   UNL     1      45.352   5.820  10.594  0.00  0.00    +0.000 C 
BRANCH   8   9
ATOM      9  C   UNL     1      44.940   4.596   9.769  0.00  0.00    +0.000 C 
BRANCH   9  10
ATOM     10  N   UNL     1      45.346   4.733   8.361  0.00  0.00    +0.000 NA
ATOM     11  H   UNL     1      46.218   5.258   8.301  0.00  0.00    +0.000 HD
BRANCH  10  12
ATOM     12  C   UNL     1      45.510   3.434   7.699  0.00  0.00    +0.000 C 
ATOM     13  C   UNL     1      46.902   3.182   7.132  0.00  0.00    +0.000 C 
ATOM     14  C   UNL     1      46.970   1.671   7.087  0.00  0.00    +0.000 C 
ATOM     15  N   UNL     1      46.353   1.239   8.347  0.00  0.00    +0.000 NA
ATOM     16  C   UNL     1      45.300   2.233   8.644  0.00  0.00    +0.000 C 
ATOM     17  H   UNL     1      47.059   1.318   9.082  0.00  0.00    +0.000 HD
ENDBRANCH  10  12
ENDBRANCH   9  10
ENDBRANCH   8   9
ENDBRANCH   5   8
ENDBRANCH   1   2
BRANCH   1  20
ATOM     18  O   UNL     1      49.715   5.469  16.724  0.00  0.00    +0.000 OA
ATOM     19  C   UNL     1      48.586   5.805  17.075  0.00  0.00    +0.000 C 
ATOM     20  N   UNL     1      47.462   5.137  16.662  0.00  0.00    +0.000 N 
ATOM     21  H   UNL     1      46.557   5.580  16.788  0.00  0.00    +0.000 HD
BRANCH  19  22
ATOM     22  C   UNL     1      48.368   6.925  17.998  0.00  0.00    +0.000 A 
ATOM     23  C   UNL     1      48.267   6.698  19.363  0.00  0.00    +0.000 A 
ATOM     24  S   UNL     1      47.977   8.116  20.267  0.00  0.00    +0.000 S 
ATOM     25  C   UNL     1      48.023   9.085  18.870  0.00  0.00    +0.000 A 
ATOM     26  N   UNL     1      47.860  10.434  18.942  0.00  0.00    +0.000 NA
ATOM     27  C   UNL     1      47.953  11.045  17.808  0.00  0.00    +0.000 A 
ATOM     28  N   UNL     1      48.191  10.431  16.607  0.00  0.00    +0.000 N 
ATOM     29  C   UNL     1      48.327   9.069  16.481  0.00  0.00    +0.000 A 
ATOM     30  O   UNL     1      48.482   8.547  15.384  0.00  0.00    +0.000 OA
ATOM     31  C   UNL     1      48.242   8.336  17.729  0.00  0.00    +0.000 A 
ATOM     32  H   UNL     1      48.241  10.963  15.752  0.00  0.00    +0.000 HD
ENDBRANCH  19  22
ENDBRANCH   1  20
TORSDOF 7
ENDMDL
MODEL 7
REMARK VINA RESULT:    -6.904      3.402      7.908
REMARK INTER + INTRA:         -10.903
REMARK INTER:                  -9.316
REMARK INTRA:                  -1.587
REMARK UNBOUND:                -1.174
REMARK  Name = 
REMARK  7 active torsions:
REMARK  status: ('A' for Active; 'I' for Inactive)
REMARK    1  A    between atoms: C_2  and  C_19
REMARK    2  A    between atoms: N_3  and  C_4
REMARK    3  A    between atoms: C_4  and  C_5
REMARK    4  A    between atoms: C_8  and  C_9
REMARK    5  A    between atoms: C_9  and  C_10
REMARK    6  A    between atoms: C_10  and  N_11
REMARK    7  A    between atoms: N_11  and  C_12
REMARK                            x       y       z     vdW  Elec       q    Type
REMARK                         _______ _______ _______ _____ _____    ______ ____
ROOT
ATOM      1  C   UNL     1      48.334   8.087  12.104  0.00  0.00    +0.000 C 
ENDROOT
BRANCH   1   2
ATOM      2  C   UNL     1      48.476   8.072  13.597  0.00  0.00    +0.000 A 
ATOM      3  C   UNL     1      47.997   9.115  14.393  0.00  0.00    +0.000 A 
ATOM      4  C   UNL     1      48.174   9.071  15.776  0.00  0.00    +0.000 A 
ATOM      5  C   UNL     1      48.818   7.973  16.339  0.00  0.00    +0.000 A 
ATOM      6  N   UNL     1      49.249   6.929  15.592  0.00  0.00    +0.000 NA
ATOM      7  C   UNL     1      49.069   7.000  14.252  0.00  0.00    +0.000 A 
BRANCH   5   8
ATOM      8  C   UNL     1      49.040   7.890  17.831  0.00  0.00    +0.000 C 
BRANCH   8   9
ATOM      9  C   UNL     1      48.923   6.443  18.323  0.00  0.00    +0.000 C 
BRANCH   9  10
ATOM     10  N   UNL     1      47.608   5.867  18.000  0.00  0.00    +0.000 NA
ATOM     11  H   UNL     1      47.214   6.338  17.187  0.00  0.00    +0.000 HD
BRANCH  10  12
ATOM     12  C   UNL     1      47.678   4.424  17.745  0.00  0.00    +0.000 C 
ATOM     13  C   UNL     1      47.367   4.017  16.310  0.00  0.00    +0.000 C 
ATOM     14  C   UNL     1      48.074   2.685  16.185  0.00  0.00    +0.000 C 
ATOM     15  N   UNL     1      49.356   2.886  16.871  0.00  0.00    +0.000 NA
ATOM     16  C   UNL     1      49.082   3.828  17.975  0.00  0.00    +0.000 C 
ATOM     17  H   UNL     1      49.985   3.360  16.219  0.00  0.00    +0.000 HD
ENDBRANCH  10  12
ENDBRANCH   9  10
ENDBRANCH   8   9
ENDBRANCH   5   8
ENDBRANCH   1   2
BRANCH   1  20
ATOM     18  O   UNL     1      45.573   7.935  11.788  0.00  0.00    +0.000 OA
ATOM     19  C   UNL     1      46.256   6.977  11.436  0.00  0.00    +0.000 C 
ATOM     20  N   UNL     1      47.613   6.934  11.630  0.00  0.00    +0.000 N 
ATOM     21  H   UNL     1      48.156   6.239  11.127  0.00  0.00    +0.000 HD
BRANCH  19  22
ATOM     22  C   UNL     1      45.656   5.788  10.821  0.00  0.00    +0.000 A 
ATOM     23  C   UNL     1      45.847   5.525   9.471  0.00  0.00    +0.000 A 
ATOM     24  S   UNL     1      45.041   4.120   8.933  0.00  0.00    +0.000 S 
ATOM     25  C   UNL     1      44.450   3.792  10.493  0.00  0.00    +0.000 A 
ATOM     26  N   UNL     1      43.684   2.695  10.739  0.00  0.00    +0.000 NA
ATOM     27  C   UNL     1      43.335   2.552  11.975  0.00  0.00    +0.000 A 
ATOM     28  N   UNL     1      43.679   3.409  12.987  0.00  0.00    +0.000 N 
ATOM     29  C   UNL     1      44.421   4.547  12.780  0.00  0.00    +0.000 A 
ATOM     30  O   UNL     1      44.663   5.322  13.697  0.00  0.00    +0.000 OA
ATOM     31  C   UNL     1      44.849   4.747  11.409  0.00  0.00    +0.000 A 
ATOM     32  H   UNL     1      43.366   3.250  13.932  0.00  0.00    +0.000 HD
ENDBRANCH  19  22
ENDBRANCH   1  20
TORSDOF 7
ENDMDL
MODEL 8
REMARK VINA RESULT:    -6.694      4.110      9.131
REMARK INTER + INTRA:         -10.608
REMARK INTER:                  -9.603
REMARK INTRA:                  -1.005
REMARK UNBOUND:                -1.174
REMARK  Name = 
REMARK  7 active torsions:
REMARK  status: ('A' for Active; 'I' for Inactive)
REMARK    1  A    between atoms: C_2  and  C_19
REMARK    2  A    between atoms: N_3  and  C_4
REMARK    3  A    between atoms: C_4  and  C_5
REMARK    4  A    between atoms: C_8  and  C_9
REMARK    5  A    between atoms: C_9  and  C_10
REMARK    6  A    between atoms: C_10  and  N_11
REMARK    7  A    between atoms: N_11  and  C_12
REMARK                            x       y       z     vdW  Elec       q    Type
REMARK                         _______ _______ _______ _____ _____    ______ ____
ROOT
ATOM      1  C   UNL     1      47.145   3.604  16.686  0.00  0.00    +0.000 C 
ENDROOT
BRANCH   1   2
ATOM      2  C   UNL     1      48.559   3.844  17.126  0.00  0.00    +0.000 A 
ATOM      3  C   UNL     1      49.011   5.113  17.491  0.00  0.00    +0.000 A 
ATOM      4  C   UNL     1      50.341   5.294  17.870  0.00  0.00    +0.000 A 
ATOM      5  C   UNL     1      51.193   4.194  17.889  0.00  0.00    +0.000 A 
ATOM      6  N   UNL     1      50.765   2.946  17.584  0.00  0.00    +0.000 NA
ATOM      7  C   UNL     1      49.471   2.799  17.215  0.00  0.00    +0.000 A 
BRANCH   5   8
ATOM      8  C   UNL     1      52.643   4.347  18.283  0.00  0.00    +0.000 C 
BRANCH   8   9
ATOM      9  C   UNL     1      53.261   2.991  18.642  0.00  0.00    +0.000 C 
BRANCH   9  10
ATOM     10  N   UNL     1      54.174   2.519  17.590  0.00  0.00    +0.000 NA
ATOM     11  H   UNL     1      55.093   2.944  17.711  0.00  0.00    +0.000 HD
BRANCH  10  12
ATOM     12  C   UNL     1      54.309   1.058  17.582  0.00  0.00    +0.000 C 
ATOM     13  C   UNL     1      55.120   0.488  18.739  0.00  0.00    +0.000 C 
ATOM     14  C   UNL     1      54.604  -0.931  18.835  0.00  0.00    +0.000 C 
ATOM     15  N   UNL     1      53.154  -0.806  18.649  0.00  0.00    +0.000 NA
ATOM     16  C   UNL     1      52.961   0.317  17.709  0.00  0.00    +0.000 C 
ATOM     17  H   UNL     1      52.749  -0.525  19.544  0.00  0.00    +0.000 HD
ENDBRANCH  10  12
ENDBRANCH   9  10
ENDBRANCH   8   9
ENDBRANCH   5   8
ENDBRANCH   1   2
BRANCH   1  20
ATOM     18  O   UNL     1      47.239   3.236  13.929  0.00  0.00    +0.000 OA
ATOM     19  C   UNL     1      46.740   4.271  14.365  0.00  0.00    +0.000 C 
ATOM     20  N   UNL     1      46.726   4.569  15.704  0.00  0.00    +0.000 N 
ATOM     21  H   UNL     1      46.113   5.309  16.032  0.00  0.00    +0.000 HD
BRANCH  19  22
ATOM     22  C   UNL     1      46.161   5.282  13.474  0.00  0.00    +0.000 A 
ATOM     23  C   UNL     1      46.893   6.408  13.121  0.00  0.00    +0.000 A 
ATOM     24  S   UNL     1      46.038   7.484  12.109  0.00  0.00    +0.000 S 
ATOM     25  C   UNL     1      44.680   6.460  12.071  0.00  0.00    +0.000 A 
ATOM     26  N   UNL     1      43.573   6.786  11.351  0.00  0.00    +0.000 NA
ATOM     27  C   UNL     1      42.633   5.900  11.385  0.00  0.00    +0.000 A 
ATOM     28  N   UNL     1      42.698   4.719  12.077  0.00  0.00    +0.000 N 
ATOM     29  C   UNL     1      43.782   4.364  12.844  0.00  0.00    +0.000 A 
ATOM     30  O   UNL     1      43.784   3.326  13.495  0.00  0.00    +0.000 OA
ATOM     31  C   UNL     1      44.871   5.321  12.830  0.00  0.00    +0.000 A 
ATOM     32  H   UNL     1      41.926   4.071  12.074  0.00  0.00    +0.000 HD
ENDBRANCH  19  22
ENDBRANCH   1  20
TORSDOF 7
ENDMDL
MODEL 9
REMARK VINA RESULT:    -6.285      4.111      8.931
REMARK INTER + INTRA:         -10.032
REMARK INTER:                  -8.152
REMARK INTRA:                  -1.880
REMARK UNBOUND:                -1.174
REMARK  Name = 
REMARK  7 active torsions:
REMARK  status: ('A' for Active; 'I' for Inactive)
REMARK    1  A    between atoms: C_2  and  C_19
REMARK    2  A    between atoms: N_3  and  C_4
REMARK    3  A    between atoms: C_4  and  C_5
REMARK    4  A    between atoms: C_8  and  C_9
REMARK    5  A    between atoms: C_9  and  C_10
REMARK    6  A    between atoms: C_10  and  N_11
REMARK    7  A    between atoms: N_11  and  C_12
REMARK                            x       y       z     vdW  Elec       q    Type
REMARK                         _______ _______ _______ _____ _____    ______ ____
ROOT
ATOM      1  C   UNL     1      47.525   3.746  16.381  0.00  0.00    +0.000 C 
ENDROOT
BRANCH   1   2
ATOM      2  C   UNL     1      47.995   4.650  17.482  0.00  0.00    +0.000 A 
ATOM      3  C   UNL     1      47.119   5.163  18.439  0.00  0.00    +0.000 A 
ATOM      4  C   UNL     1      47.596   6.020  19.431  0.00  0.00    +0.000 A 
ATOM      5  C   UNL     1      48.951   6.339  19.452  0.00  0.00    +0.000 A 
ATOM      6  N   UNL     1      49.828   5.816  18.562  0.00  0.00    +0.000 NA
ATOM      7  C   UNL     1      49.337   4.991  17.608  0.00  0.00    +0.000 A 
BRANCH   5   8
ATOM      8  C   UNL     1      49.509   7.271  20.501  0.00  0.00    +0.000 C 
BRANCH   8   9
ATOM      9  C   UNL     1      49.565   8.712  19.981  0.00  0.00    +0.000 C 
BRANCH   9  10
ATOM     10  N   UNL     1      50.213   8.785  18.662  0.00  0.00    +0.000 NA
ATOM     11  H   UNL     1      50.289   7.851  18.261  0.00  0.00    +0.000 HD
BRANCH  10  12
ATOM     12  C   UNL     1      49.490   9.660  17.733  0.00  0.00    +0.000 C 
ATOM     13  C   UNL     1      50.039   9.667  16.311  0.00  0.00    +0.000 C 
ATOM     14  C   UNL     1      48.839  10.101  15.498  0.00  0.00    +0.000 C 
ATOM     15  N   UNL     1      47.713   9.370  16.089  0.00  0.00    +0.000 NA
ATOM     16  C   UNL     1      48.015   9.254  17.530  0.00  0.00    +0.000 C 
ATOM     17  H   UNL     1      47.719   8.423  15.702  0.00  0.00    +0.000 HD
ENDBRANCH  10  12
ENDBRANCH   9  10
ENDBRANCH   8   9
ENDBRANCH   5   8
ENDBRANCH   1   2
BRANCH   1  20
ATOM     18  O   UNL     1      47.534   3.248  13.643  0.00  0.00    +0.000 OA
ATOM     19  C   UNL     1      46.763   4.098  14.080  0.00  0.00    +0.000 C 
ATOM     20  N   UNL     1      46.750   4.464  15.403  0.00  0.00    +0.000 N 
ATOM     21  H   UNL     1      45.957   4.992  15.755  0.00  0.00    +0.000 HD
BRANCH  19  22
ATOM     22  C   UNL     1      45.829   4.815  13.205  0.00  0.00    +0.000 A 
ATOM     23  C   UNL     1      44.770   4.143  12.610  0.00  0.00    +0.000 A 
ATOM     24  S   UNL     1      43.818   5.136  11.600  0.00  0.00    +0.000 S 
ATOM     25  C   UNL     1      44.759   6.505  11.962  0.00  0.00    +0.000 A 
ATOM     26  N   UNL     1      44.467   7.722  11.428  0.00  0.00    +0.000 NA
ATOM     27  C   UNL     1      45.245   8.677  11.817  0.00  0.00    +0.000 A 
ATOM     28  N   UNL     1      46.291   8.527  12.688  0.00  0.00    +0.000 N 
ATOM     29  C   UNL     1      46.644   7.312  13.225  0.00  0.00    +0.000 A 
ATOM     30  O   UNL     1      47.620   7.202  13.957  0.00  0.00    +0.000 OA
ATOM     31  C   UNL     1      45.793   6.206  12.829  0.00  0.00    +0.000 A 
ATOM     32  H   UNL     1      46.870   9.311  12.946  0.00  0.00    +0.000 HD
ENDBRANCH  19  22
ENDBRANCH   1  20
TORSDOF 7
ENDMDL
