MODEL 1
REMARK VINA RESULT:    -7.484      0.000      0.000
REMARK INTER + INTRA:         -10.260
REMARK INTER:                  -9.671
REMARK INTRA:                  -0.589
REMARK UNBOUND:                -0.589
REMARK  Name = 
REMARK  6 active torsions:
REMARK  status: ('A' for Active; 'I' for Inactive)
REMARK    1  A    between atoms: C_1  and  C_2
REMARK    2  A    between atoms: C_2  and  N_3
REMARK    3  A    between atoms: C_2  and  C_18
REMARK    4  A    between atoms: C_7  and  N_8
REMARK    5  A    between atoms: N_8  and  C_9
REMARK    6  A    between atoms: C_9  and  C_10
REMARK                            x       y       z     vdW  Elec       q    Type
REMARK                         _______ _______ _______ _____ _____    ______ ____
ROOT
ATOM      1  N   UNL     1      46.655   6.164  13.728  0.00  0.00    +0.000 N 
ATOM      2  C   UNL     1      46.040   5.471  12.670  0.00  0.00    +0.000 A 
ATOM      3  C   UNL     1      45.494   4.222  12.940  0.00  0.00    +0.000 A 
ATOM      4  C   UNL     1      44.907   3.493  11.905  0.00  0.00    +0.000 A 
ATOM      5  C   UNL     1      44.856   4.017  10.617  0.00  0.00    +0.000 A 
ATOM      6  C   UNL     1      45.358   5.308  10.469  0.00  0.00    +0.000 A 
ATOM      7  N   UNL     1      45.945   6.033  11.453  0.00  0.00    +0.000 NA
ATOM      8  H   UNL     1      45.894   6.594  14.253  0.00  0.00    +0.000 HD
ENDROOT
BRANCH   1  10
ATOM      9  C   UNL     1      48.943   7.051  14.060  0.00  0.00    +0.000 C 
ATOM     10  C   UNL     1      47.625   7.203  13.295  0.00  0.00    +0.000 C 
BRANCH  10  11
ATOM     11  C   UNL     1      47.048   8.596  13.616  0.00  0.00    +0.000 C 
ATOM     12  N   UNL     1      47.234   9.023  14.903  0.00  0.00    +0.000 N 
ATOM     13  O   UNL     1      46.500   9.319  12.787  0.00  0.00    +0.000 OA
ATOM     14  H   UNL     1      47.665   8.410  15.581  0.00  0.00    +0.000 HD
ATOM     15  H   UNL     1      46.894   9.934  15.177  0.00  0.00    +0.000 HD
ENDBRANCH  10  11
ENDBRANCH   1  10
BRANCH   5  16
ATOM     16  N   UNL     1      44.296   3.238   9.601  0.00  0.00    +0.000 N 
ATOM     17  H   UNL     1      43.295   3.121   9.749  0.00  0.00    +0.000 HD
BRANCH  16  18
ATOM     18  C   UNL     1      44.611   3.570   8.219  0.00  0.00    +0.000 C 
BRANCH  18  19
ATOM     19  C   UNL     1      45.807   2.767   7.770  0.00  0.00    +0.000 A 
ATOM     20  C   UNL     1      45.969   1.432   8.142  0.00  0.00    +0.000 A 
ATOM     21  C   UNL     1      47.065   0.734   7.657  0.00  0.00    +0.000 A 
ATOM     22  N   UNL     1      47.995   1.268   6.836  0.00  0.00    +0.000 NA
ATOM     23  C   UNL     1      47.822   2.559   6.485  0.00  0.00    +0.000 A 
ATOM     24  C   UNL     1      46.761   3.337   6.917  0.00  0.00    +0.000 A 
ENDBRANCH  18  19
ENDBRANCH  16  18
ENDBRANCH   5  16
TORSDOF 5
ENDMDL
MODEL 2
REMARK VINA RESULT:    -7.296      3.146      3.904
REMARK INTER + INTRA:         -10.017
REMARK INTER:                  -9.396
REMARK INTRA:                  -0.622
REMARK UNBOUND:                -0.589
REMARK  Name = 
REMARK  6 active torsions:
REMARK  status: ('A' for Active; 'I' for Inactive)
REMARK    1  A    between atoms: C_1  and  C_2
REMARK    2  A    between atoms: C_2  and  N_3
REMARK    3  A    between atoms: C_2  and  C_18
REMARK    4  A    between atoms: C_7  and  N_8
REMARK    5  A    between atoms: N_8  and  C_9
REMARK    6  A    between atoms: C_9  and  C_10
REMARK                            x       y       z     vdW  Elec       q    Type
REMARK                         _______ _______ _______ _____ _____    ______ ____
ROOT
ATOM      1  N   UNL     1      47.882   4.851  15.428  0.00  0.00    +0.000 N 
ATOM      2  C   UNL     1      47.086   4.876  14.269  0.00  0.00    +0.000 A 
ATOM      3  C   UNL     1      47.116   6.021  13.482  0.00  0.00    +0.000 A 
ATOM      4  C   UNL     1      46.312   6.091  12.344  0.00  0.00    +0.000 A 
ATOM      5  C   UNL     1      45.497   5.020  11.992  0.00  0.00    +0.000 A 
ATOM      6  C   UNL     1      45.599   3.891  12.800  0.00  0.00    +0.000 A 
ATOM      7  N   UNL     1      46.362   3.799  13.918  0.00  0.00    +0.000 NA
ATOM      8  H   UNL     1      48.823   4.624  15.109  0.00  0.00    +0.000 HD
ENDROOT
BRANCH   1  10
ATOM      9  C   UNL     1      47.155   4.575  17.779  0.00  0.00    +0.000 C 
ATOM     10  C   UNL     1      47.440   3.868  16.451  0.00  0.00    +0.000 C 
BRANCH  10  11
ATOM     11  C   UNL     1      48.570   2.848  16.690  0.00  0.00    +0.000 C 
ATOM     12  N   UNL     1      49.108   2.854  17.948  0.00  0.00    +0.000 N 
ATOM     13  O   UNL     1      48.951   2.036  15.849  0.00  0.00    +0.000 OA
ATOM     14  H   UNL     1      48.802   3.541  18.625  0.00  0.00    +0.000 HD
ATOM     15  H   UNL     1      49.842   2.200  18.178  0.00  0.00    +0.000 HD
ENDBRANCH  10  11
ENDBRANCH   1  10
BRANCH   5  16
ATOM     16  N   UNL     1      44.677   5.147  10.868  0.00  0.00    +0.000 N 
ATOM     17  H   UNL     1      45.126   5.727  10.160  0.00  0.00    +0.000 HD
BRANCH  16  18
ATOM     18  C   UNL     1      44.089   3.943  10.298  0.00  0.00    +0.000 C 
BRANCH  18  19
ATOM     19  C   UNL     1      44.992   3.408   9.214  0.00  0.00    +0.000 A 
ATOM     20  C   UNL     1      45.624   4.261   8.307  0.00  0.00    +0.000 A 
ATOM     21  C   UNL     1      46.479   3.711   7.363  0.00  0.00    +0.000 A 
ATOM     22  N   UNL     1      46.747   2.390   7.266  0.00  0.00    +0.000 NA
ATOM     23  C   UNL     1      46.128   1.582   8.152  0.00  0.00    +0.000 A 
ATOM     24  C   UNL     1      45.258   2.035   9.129  0.00  0.00    +0.000 A 
ENDBRANCH  18  19
ENDBRANCH  16  18
ENDBRANCH   5  16
TORSDOF 5
ENDMDL
MODEL 3
REMARK VINA RESULT:    -6.568      1.513      1.623
REMARK INTER + INTRA:          -9.076
REMARK INTER:                  -8.602
REMARK INTRA:                  -0.474
REMARK UNBOUND:                -0.589
REMARK  Name = 
REMARK  6 active torsions:
REMARK  status: ('A' for Active; 'I' for Inactive)
REMARK    1  A    between atoms: C_1  and  C_2
REMARK    2  A    between atoms: C_2  and  N_3
REMARK    3  A    between atoms: C_2  and  C_18
REMARK    4  A    between atoms: C_7  and  N_8
REMARK    5  A    between atoms: N_8  and  C_9
REMARK    6  A    between atoms: C_9  and  C_10
REMARK                            x       y       z     vdW  Elec       q    Type
REMARK                         _______ _______ _______ _____ _____    ______ ____
ROOT
ATOM      1  N   UNL     1      47.521   5.707  14.413  0.00  0.00    +0.000 N 
ATOM      2  C   UNL     1      46.628   5.213  13.446  0.00  0.00    +0.000 A 
ATOM      3  C   UNL     1      46.412   3.841  13.400  0.00  0.00    +0.000 A 
ATOM      4  C   UNL     1      45.558   3.316  12.429  0.00  0.00    +0.000 A 
ATOM      5  C   UNL     1      44.919   4.157  11.525  0.00  0.00    +0.000 A 
ATOM      6  C   UNL     1      45.139   5.520  11.706  0.00  0.00    +0.000 A 
ATOM      7  N   UNL     1      45.973   6.058  12.632  0.00  0.00    +0.000 NA
ATOM      8  H   UNL     1      46.990   5.748  15.282  0.00  0.00    +0.000 HD
ENDROOT
BRANCH   1  10
ATOM      9  C   UNL     1      49.073   6.947  12.934  0.00  0.00    +0.000 C 
ATOM     10  C   UNL     1      48.083   7.047  14.098  0.00  0.00    +0.000 C 
BRANCH  10  11
ATOM     11  C   UNL     1      48.849   7.574  15.327  0.00  0.00    +0.000 C 
ATOM     12  N   UNL     1      50.085   7.023  15.527  0.00  0.00    +0.000 N 
ATOM     13  O   UNL     1      48.431   8.461  16.068  0.00  0.00    +0.000 OA
ATOM     14  H   UNL     1      50.409   6.278  14.925  0.00  0.00    +0.000 HD
ATOM     15  H   UNL     1      50.648   7.334  16.306  0.00  0.00    +0.000 HD
ENDBRANCH  10  11
ENDBRANCH   1  10
BRANCH   5  16
ATOM     16  N   UNL     1      44.104   3.586  10.544  0.00  0.00    +0.000 N 
ATOM     17  H   UNL     1      43.129   3.593  10.838  0.00  0.00    +0.000 HD
BRANCH  16  18
ATOM     18  C   UNL     1      44.264   4.029   9.165  0.00  0.00    +0.000 C 
BRANCH  18  19
ATOM     19  C   UNL     1      45.346   3.216   8.499  0.00  0.00    +0.000 A 
ATOM     20  C   UNL     1      45.450   1.839   8.699  0.00  0.00    +0.000 A 
ATOM     21  C   UNL     1      46.437   1.141   8.020  0.00  0.00    +0.000 A 
ATOM     22  N   UNL     1      47.313   1.712   7.165  0.00  0.00    +0.000 NA
ATOM     23  C   UNL     1      47.197   3.044   6.983  0.00  0.00    +0.000 A 
ATOM     24  C   UNL     1      46.245   3.826   7.614  0.00  0.00    +0.000 A 
ENDBRANCH  18  19
ENDBRANCH  16  18
ENDBRANCH   5  16
TORSDOF 5
ENDMDL
MODEL 4
REMARK VINA RESULT:    -5.985      2.360      3.315
REMARK INTER + INTRA:          -8.323
REMARK INTER:                  -7.731
REMARK INTRA:                  -0.592
REMARK UNBOUND:                -0.589
REMARK  Name = 
REMARK  6 active torsions:
REMARK  status: ('A' for Active; 'I' for Inactive)
REMARK    1  A    between atoms: C_1  and  C_2
REMARK    2  A    between atoms: C_2  and  N_3
REMARK    3  A    between atoms: C_2  and  C_18
REMARK    4  A    between atoms: C_7  and  N_8
REMARK    5  A    between atoms: N_8  and  C_9
REMARK    6  A    between atoms: C_9  and  C_10
REMARK                            x       y       z     vdW  Elec       q    Type
REMARK                         _______ _______ _______ _____ _____    ______ ____
ROOT
ATOM      1  N   UNL     1      48.980   7.370  14.050  0.00  0.00    +0.000 N 
ATOM      2  C   UNL     1      47.975   6.568  13.481  0.00  0.00    +0.000 A 
ATOM      3  C   UNL     1      47.452   6.952  12.253  0.00  0.00    +0.000 A 
ATOM      4  C   UNL     1      46.429   6.197  11.678  0.00  0.00    +0.000 A 
ATOM      5  C   UNL     1      45.946   5.061  12.321  0.00  0.00    +0.000 A 
ATOM      6  C   UNL     1      46.592   4.717  13.506  0.00  0.00    +0.000 A 
ATOM      7  N   UNL     1      47.578   5.439  14.094  0.00  0.00    +0.000 NA
ATOM      8  H   UNL     1      49.845   7.100  13.582  0.00  0.00    +0.000 HD
ENDROOT
BRANCH   1  10
ATOM      9  C   UNL     1      48.846   8.542  16.227  0.00  0.00    +0.000 C 
ATOM     10  C   UNL     1      49.128   7.213  15.520  0.00  0.00    +0.000 C 
BRANCH  10  11
ATOM     11  C   UNL     1      50.579   6.805  15.840  0.00  0.00    +0.000 C 
ATOM     12  N   UNL     1      51.539   7.406  15.072  0.00  0.00    +0.000 N 
ATOM     13  O   UNL     1      50.892   6.036  16.746  0.00  0.00    +0.000 OA
ATOM     14  H   UNL     1      51.268   8.019  14.314  0.00  0.00    +0.000 HD
ATOM     15  H   UNL     1      52.513   7.195  15.238  0.00  0.00    +0.000 HD
ENDBRANCH  10  11
ENDBRANCH   1  10
BRANCH   5  16
ATOM     16  N   UNL     1      44.895   4.357  11.731  0.00  0.00    +0.000 N 
ATOM     17  H   UNL     1      44.119   4.254  12.384  0.00  0.00    +0.000 HD
BRANCH  16  18
ATOM     18  C   UNL     1      44.444   4.761  10.406  0.00  0.00    +0.000 C 
BRANCH  18  19
ATOM     19  C   UNL     1      45.102   3.890   9.364  0.00  0.00    +0.000 A 
ATOM     20  C   UNL     1      45.809   4.442   8.295  0.00  0.00    +0.000 A 
ATOM     21  C   UNL     1      46.432   3.587   7.398  0.00  0.00    +0.000 A 
ATOM     22  N   UNL     1      46.401   2.240   7.494  0.00  0.00    +0.000 NA
ATOM     23  C   UNL     1      45.713   1.725   8.534  0.00  0.00    +0.000 A 
ATOM     24  C   UNL     1      45.060   2.495   9.481  0.00  0.00    +0.000 A 
ENDBRANCH  18  19
ENDBRANCH  16  18
ENDBRANCH   5  16
TORSDOF 5
ENDMDL
MODEL 5
REMARK VINA RESULT:    -5.706      3.012      7.954
REMARK INTER + INTRA:          -7.963
REMARK INTER:                  -7.409
REMARK INTRA:                  -0.554
REMARK UNBOUND:                -0.589
REMARK  Name = 
REMARK  6 active torsions:
REMARK  status: ('A' for Active; 'I' for Inactive)
REMARK    1  A    between atoms: C_1  and  C_2
REMARK    2  A    between atoms: C_2  and  N_3
REMARK    3  A    between atoms: C_2  and  C_18
REMARK    4  A    between atoms: C_7  and  N_8
REMARK    5  A    between atoms: N_8  and  C_9
REMARK    6  A    between atoms: C_9  and  C_10
REMARK                            x       y       z     vdW  Elec       q    Type
REMARK                         _______ _______ _______ _____ _____    ______ ____
ROOT
ATOM      1  N   UNL     1      44.217   5.627  10.624  0.00  0.00    +0.000 N 
ATOM      2  C   UNL     1      44.928   6.435  11.530  0.00  0.00    +0.000 A 
ATOM      3  C   UNL     1      44.685   7.803  11.511  0.00  0.00    +0.000 A 
ATOM      4  C   UNL     1      45.399   8.637  12.373  0.00  0.00    +0.000 A 
ATOM      5  C   UNL     1      46.335   8.102  13.253  0.00  0.00    +0.000 A 
ATOM      6  C   UNL     1      46.445   6.714  13.250  0.00  0.00    +0.000 A 
ATOM      7  N   UNL     1      45.774   5.882  12.415  0.00  0.00    +0.000 NA
ATOM      8  H   UNL     1      43.299   5.485  11.046  0.00  0.00    +0.000 HD
ENDROOT
BRANCH   1  10
ATOM      9  C   UNL     1      44.584   3.890   8.898  0.00  0.00    +0.000 C 
ATOM     10  C   UNL     1      44.857   4.316  10.344  0.00  0.00    +0.000 C 
BRANCH  10  11
ATOM     11  C   UNL     1      44.248   3.249  11.275  0.00  0.00    +0.000 C 
ATOM     12  N   UNL     1      45.056   2.838  12.300  0.00  0.00    +0.000 N 
ATOM     13  O   UNL     1      43.104   2.815  11.165  0.00  0.00    +0.000 OA
ATOM     14  H   UNL     1      46.004   3.185  12.367  0.00  0.00    +0.000 HD
ATOM     15  H   UNL     1      44.714   2.151  12.957  0.00  0.00    +0.000 HD
ENDBRANCH  10  11
ENDBRANCH   1  10
BRANCH   5  16
ATOM     16  N   UNL     1      47.057   8.975  14.070  0.00  0.00    +0.000 N 
ATOM     17  H   UNL     1      46.539   9.179  14.924  0.00  0.00    +0.000 HD
BRANCH  16  18
ATOM     18  C   UNL     1      48.458   8.679  14.337  0.00  0.00    +0.000 C 
BRANCH  18  19
ATOM     19  C   UNL     1      48.596   8.122  15.733  0.00  0.00    +0.000 A 
ATOM     20  C   UNL     1      49.073   6.829  15.956  0.00  0.00    +0.000 A 
ATOM     21  C   UNL     1      49.223   6.393  17.264  0.00  0.00    +0.000 A 
ATOM     22  N   UNL     1      48.937   7.147  18.348  0.00  0.00    +0.000 NA
ATOM     23  C   UNL     1      48.479   8.394  18.113  0.00  0.00    +0.000 A 
ATOM     24  C   UNL     1      48.296   8.919  16.845  0.00  0.00    +0.000 A 
ENDBRANCH  18  19
ENDBRANCH  16  18
ENDBRANCH   5  16
TORSDOF 5
ENDMDL
MODEL 6
REMARK VINA RESULT:    -5.693      3.553      4.942
REMARK INTER + INTRA:          -7.946
REMARK INTER:                  -7.528
REMARK INTRA:                  -0.418
REMARK UNBOUND:                -0.589
REMARK  Name = 
REMARK  6 active torsions:
REMARK  status: ('A' for Active; 'I' for Inactive)
REMARK    1  A    between atoms: C_1  and  C_2
REMARK    2  A    between atoms: C_2  and  N_3
REMARK    3  A    between atoms: C_2  and  C_18
REMARK    4  A    between atoms: C_7  and  N_8
REMARK    5  A    between atoms: N_8  and  C_9
REMARK    6  A    between atoms: C_9  and  C_10
REMARK                            x       y       z     vdW  Elec       q    Type
REMARK                         _______ _______ _______ _____ _____    ______ ____
ROOT
ATOM      1  N   UNL     1      47.914   4.046  17.074  0.00  0.00    +0.000 N 
ATOM      2  C   UNL     1      47.650   4.630  15.823  0.00  0.00    +0.000 A 
ATOM      3  C   UNL     1      46.655   4.063  15.036  0.00  0.00    +0.000 A 
ATOM      4  C   UNL     1      46.392   4.597  13.774  0.00  0.00    +0.000 A 
ATOM      5  C   UNL     1      47.110   5.696  13.312  0.00  0.00    +0.000 A 
ATOM      6  C   UNL     1      48.028   6.238  14.208  0.00  0.00    +0.000 A 
ATOM      7  N   UNL     1      48.313   5.732  15.434  0.00  0.00    +0.000 NA
ATOM      8  H   UNL     1      47.195   4.404  17.702  0.00  0.00    +0.000 HD
ENDROOT
BRANCH   1  10
ATOM      9  C   UNL     1      50.208   3.169  17.393  0.00  0.00    +0.000 C 
ATOM     10  C   UNL     1      49.262   4.352  17.619  0.00  0.00    +0.000 C 
BRANCH  10  11
ATOM     11  C   UNL     1      49.150   4.586  19.138  0.00  0.00    +0.000 C 
ATOM     12  N   UNL     1      48.440   3.639  19.825  0.00  0.00    +0.000 N 
ATOM     13  O   UNL     1      49.690   5.517  19.731  0.00  0.00    +0.000 OA
ATOM     14  H   UNL     1      47.982   2.889  19.324  0.00  0.00    +0.000 HD
ATOM     15  H   UNL     1      48.341   3.722  20.827  0.00  0.00    +0.000 HD
ENDBRANCH  10  11
ENDBRANCH   1  10
BRANCH   5  16
ATOM     16  N   UNL     1      46.844   6.175  12.027  0.00  0.00    +0.000 N 
ATOM     17  H   UNL     1      47.435   5.709  11.341  0.00  0.00    +0.000 HD
BRANCH  16  18
ATOM     18  C   UNL     1      45.457   6.256  11.590  0.00  0.00    +0.000 C 
BRANCH  18  19
ATOM     19  C   UNL     1      45.177   5.152  10.600  0.00  0.00    +0.000 A 
ATOM     20  C   UNL     1      45.712   5.178   9.311  0.00  0.00    +0.000 A 
ATOM     21  C   UNL     1      45.457   4.109   8.464  0.00  0.00    +0.000 A 
ATOM     22  N   UNL     1      44.720   3.032   8.811  0.00  0.00    +0.000 NA
ATOM     23  C   UNL     1      44.212   3.024  10.061  0.00  0.00    +0.000 A 
ATOM     24  C   UNL     1      44.411   4.042  10.978  0.00  0.00    +0.000 A 
ENDBRANCH  18  19
ENDBRANCH  16  18
ENDBRANCH   5  16
TORSDOF 5
ENDMDL
MODEL 7
REMARK VINA RESULT:    -5.612      3.226      4.762
REMARK INTER + INTRA:          -7.842
REMARK INTER:                  -7.311
REMARK INTRA:                  -0.531
REMARK UNBOUND:                -0.589
REMARK  Name = 
REMARK  6 active torsions:
REMARK  status: ('A' for Active; 'I' for Inactive)
REMARK    1  A    between atoms: C_1  and  C_2
REMARK    2  A    between atoms: C_2  and  N_3
REMARK    3  A    between atoms: C_2  and  C_18
REMARK    4  A    between atoms: C_7  and  N_8
REMARK    5  A    between atoms: N_8  and  C_9
REMARK    6  A    between atoms: C_9  and  C_10
REMARK                            x       y       z     vdW  Elec       q    Type
REMARK                         _______ _______ _______ _____ _____    ______ ____
ROOT
ATOM      1  N   UNL     1      49.129   6.199  16.557  0.00  0.00    +0.000 N 
ATOM      2  C   UNL     1      48.493   6.219  15.303  0.00  0.00    +0.000 A 
ATOM      3  C   UNL     1      48.642   7.354  14.516  0.00  0.00    +0.000 A 
ATOM      4  C   UNL     1      47.995   7.420  13.281  0.00  0.00    +0.000 A 
ATOM      5  C   UNL     1      47.220   6.354  12.835  0.00  0.00    +0.000 A 
ATOM      6  C   UNL     1      47.200   5.234  13.662  0.00  0.00    +0.000 A 
ATOM      7  N   UNL     1      47.808   5.147  14.871  0.00  0.00    +0.000 NA
ATOM      8  H   UNL     1      50.102   5.957  16.368  0.00  0.00    +0.000 HD
ENDROOT
BRANCH   1  10
ATOM      9  C   UNL     1      48.127   5.955  18.809  0.00  0.00    +0.000 C 
ATOM     10  C   UNL     1      48.544   5.234  17.523  0.00  0.00    +0.000 C 
BRANCH  10  11
ATOM     11  C   UNL     1      49.609   4.183  17.893  0.00  0.00    +0.000 C 
ATOM     12  N   UNL     1      49.959   4.145  19.216  0.00  0.00    +0.000 N 
ATOM     13  O   UNL     1      50.095   3.386  17.093  0.00  0.00    +0.000 OA
ATOM     14  H   UNL     1      49.570   4.820  19.861  0.00  0.00    +0.000 HD
ATOM     15  H   UNL     1      50.641   3.469  19.530  0.00  0.00    +0.000 HD
ENDBRANCH  10  11
ENDBRANCH   1  10
BRANCH   5  16
ATOM     16  N   UNL     1      46.557   6.477  11.612  0.00  0.00    +0.000 N 
ATOM     17  H   UNL     1      47.109   6.066  10.861  0.00  0.00    +0.000 HD
BRANCH  16  18
ATOM     18  C   UNL     1      45.156   6.085  11.539  0.00  0.00    +0.000 C 
BRANCH  18  19
ATOM     19  C   UNL     1      45.007   4.931  10.577  0.00  0.00    +0.000 A 
ATOM     20  C   UNL     1      44.327   3.767  10.938  0.00  0.00    +0.000 A 
ATOM     21  C   UNL     1      44.183   2.762   9.992  0.00  0.00    +0.000 A 
ATOM     22  N   UNL     1      44.660   2.840   8.731  0.00  0.00    +0.000 NA
ATOM     23  C   UNL     1      45.313   3.973   8.400  0.00  0.00    +0.000 A 
ATOM     24  C   UNL     1      45.508   5.030   9.273  0.00  0.00    +0.000 A 
ENDBRANCH  18  19
ENDBRANCH  16  18
ENDBRANCH   5  16
TORSDOF 5
ENDMDL
MODEL 8
REMARK VINA RESULT:    -5.594      3.087      7.086
REMARK INTER + INTRA:          -7.818
REMARK INTER:                  -7.129
REMARK INTRA:                  -0.689
REMARK UNBOUND:                -0.589
REMARK  Name = 
REMARK  6 active torsions:
REMARK  status: ('A' for Active; 'I' for Inactive)
REMARK    1  A    between atoms: C_1  and  C_2
REMARK    2  A    between atoms: C_2  and  N_3
REMARK    3  A    between atoms: C_2  and  C_18
REMARK    4  A    between atoms: C_7  and  N_8
REMARK    5  A    between atoms: N_8  and  C_9
REMARK    6  A    between atoms: C_9  and  C_10
REMARK                            x       y       z     vdW  Elec       q    Type
REMARK                         _______ _______ _______ _____ _____    ______ ____
ROOT
ATOM      1  N   UNL     1      44.117   5.601  10.711  0.00  0.00    +0.000 N 
ATOM      2  C   UNL     1      44.878   6.473  11.510  0.00  0.00    +0.000 A 
ATOM      3  C   UNL     1      44.590   7.831  11.448  0.00  0.00    +0.000 A 
ATOM      4  C   UNL     1      45.350   8.726  12.202  0.00  0.00    +0.000 A 
ATOM      5  C   UNL     1      46.377   8.264  13.019  0.00  0.00    +0.000 A 
ATOM      6  C   UNL     1      46.531   6.881  13.071  0.00  0.00    +0.000 A 
ATOM      7  N   UNL     1      45.817   5.989  12.340  0.00  0.00    +0.000 NA
ATOM      8  H   UNL     1      43.246   5.453  11.219  0.00  0.00    +0.000 HD
ENDROOT
BRANCH   1  10
ATOM      9  C   UNL     1      44.493   3.854   8.996  0.00  0.00    +0.000 C 
ATOM     10  C   UNL     1      44.773   4.296  10.436  0.00  0.00    +0.000 C 
BRANCH  10  11
ATOM     11  C   UNL     1      44.187   3.229  11.382  0.00  0.00    +0.000 C 
ATOM     12  N   UNL     1      45.015   2.825  12.393  0.00  0.00    +0.000 N 
ATOM     13  O   UNL     1      43.043   2.788  11.294  0.00  0.00    +0.000 OA
ATOM     14  H   UNL     1      45.962   3.178  12.442  0.00  0.00    +0.000 HD
ATOM     15  H   UNL     1      44.688   2.139  13.059  0.00  0.00    +0.000 HD
ENDBRANCH  10  11
ENDBRANCH   1  10
BRANCH   5  16
ATOM     16  N   UNL     1      47.139   9.197  13.726  0.00  0.00    +0.000 N 
ATOM     17  H   UNL     1      47.649   8.744  14.483  0.00  0.00    +0.000 HD
BRANCH  16  18
ATOM     18  C   UNL     1      47.979  10.119  12.975  0.00  0.00    +0.000 C 
BRANCH  18  19
ATOM     19  C   UNL     1      49.315   9.474  12.701  0.00  0.00    +0.000 A 
ATOM     20  C   UNL     1      49.545   8.742  11.535  0.00  0.00    +0.000 A 
ATOM     21  C   UNL     1      50.809   8.214  11.320  0.00  0.00    +0.000 A 
ATOM     22  N   UNL     1      51.845   8.366  12.174  0.00  0.00    +0.000 NA
ATOM     23  C   UNL     1      51.605   9.077  13.295  0.00  0.00    +0.000 A 
ATOM     24  C   UNL     1      50.378   9.643  13.598  0.00  0.00    +0.000 A 
ENDBRANCH  18  19
ENDBRANCH  16  18
ENDBRANCH   5  16
TORSDOF 5
ENDMDL
MODEL 9
REMARK VINA RESULT:    -5.455      4.990      6.928
REMARK INTER + INTRA:          -7.639
REMARK INTER:                  -7.199
REMARK INTRA:                  -0.440
REMARK UNBOUND:                -0.589
REMARK  Name = 
REMARK  6 active torsions:
REMARK  status: ('A' for Active; 'I' for Inactive)
REMARK    1  A    between atoms: C_1  and  C_2
REMARK    2  A    between atoms: C_2  and  N_3
REMARK    3  A    between atoms: C_2  and  C_18
REMARK    4  A    between atoms: C_7  and  N_8
REMARK    5  A    between atoms: N_8  and  C_9
REMARK    6  A    between atoms: C_9  and  C_10
REMARK                            x       y       z     vdW  Elec       q    Type
REMARK                         _______ _______ _______ _____ _____    ______ ____
ROOT
ATOM      1  N   UNL     1      50.841   3.345  18.346  0.00  0.00    +0.000 N 
ATOM      2  C   UNL     1      49.723   3.679  17.560  0.00  0.00    +0.000 A 
ATOM      3  C   UNL     1      48.954   2.642  17.047  0.00  0.00    +0.000 A 
ATOM      4  C   UNL     1      47.858   2.939  16.236  0.00  0.00    +0.000 A 
ATOM      5  C   UNL     1      47.530   4.261  15.953  0.00  0.00    +0.000 A 
ATOM      6  C   UNL     1      48.314   5.226  16.581  0.00  0.00    +0.000 A 
ATOM      7  N   UNL     1      49.391   4.966  17.363  0.00  0.00    +0.000 NA
ATOM      8  H   UNL     1      50.472   3.140  19.274  0.00  0.00    +0.000 HD
ENDROOT
BRANCH   1  10
ATOM      9  C   UNL     1      53.210   3.907  17.893  0.00  0.00    +0.000 C 
ATOM     10  C   UNL     1      51.868   4.415  18.431  0.00  0.00    +0.000 C 
BRANCH  10  11
ATOM     11  C   UNL     1      52.067   4.805  19.909  0.00  0.00    +0.000 C 
ATOM     12  N   UNL     1      51.030   4.487  20.743  0.00  0.00    +0.000 N 
ATOM     13  O   UNL     1      53.093   5.319  20.351  0.00  0.00    +0.000 OA
ATOM     14  H   UNL     1      50.183   4.085  20.364  0.00  0.00    +0.000 HD
ATOM     15  H   UNL     1      51.101   4.701  21.728  0.00  0.00    +0.000 HD
ENDBRANCH  10  11
ENDBRANCH   1  10
BRANCH   5  16
ATOM     16  N   UNL     1      46.450   4.513  15.104  0.00  0.00    +0.000 N 
ATOM     17  H   UNL     1      45.942   5.343  15.406  0.00  0.00    +0.000 HD
BRANCH  16  18
ATOM     18  C   UNL     1      46.681   4.506  13.666  0.00  0.00    +0.000 C 
BRANCH  18  19
ATOM     19  C   UNL     1      45.362   4.371  12.946  0.00  0.00    +0.000 A 
ATOM     20  C   UNL     1      44.322   5.277  13.158  0.00  0.00    +0.000 A 
ATOM     21  C   UNL     1      43.151   5.126  12.429  0.00  0.00    +0.000 A 
ATOM     22  N   UNL     1      42.951   4.151  11.516  0.00  0.00    +0.000 NA
ATOM     23  C   UNL     1      43.968   3.285  11.324  0.00  0.00    +0.000 A 
ATOM     24  C   UNL     1      45.174   3.354  12.001  0.00  0.00    +0.000 A 
ENDBRANCH  18  19
ENDBRANCH  16  18
ENDBRANCH   5  16
TORSDOF 5
ENDMDL
