MODEL 1
REMARK VINA RESULT:    -9.218      0.000      0.000
REMARK INTER + INTRA:         -12.637
REMARK INTER:                 -11.913
REMARK INTRA:                  -0.724
REMARK UNBOUND:                -0.724
REMARK  Name = 
REMARK  5 active torsions:
REMARK  status: ('A' for Active; 'I' for Inactive)
REMARK    1  A    between atoms: C_2  and  C_4
REMARK    2  A    between atoms: C_8  and  N_9
REMARK    3  A    between atoms: N_9  and  C_10
REMARK    4  A    between atoms: C_10  and  C_11
REMARK    5  A    between atoms: C_15  and  C_16
REMARK                            x       y       z     vdW  Elec       q    Type
REMARK                         _______ _______ _______ _____ _____    ______ ____
ROOT
ATOM      1  C   UNL     1      43.201   6.345  11.103  0.00  0.00    +0.000 C 
ENDROOT
BRANCH   1   2
ATOM      2  C   UNL     1      43.486   4.867  10.896  0.00  0.00    +0.000 A 
ATOM      3  N   UNL     1      42.936   4.001  11.767  0.00  0.00    +0.000 NA
ATOM      4  C   UNL     1      43.227   2.705  11.581  0.00  0.00    +0.000 A 
ATOM      5  C   UNL     1      44.038   2.244  10.571  0.00  0.00    +0.000 A 
ATOM      6  C   UNL     1      44.570   3.195   9.720  0.00  0.00    +0.000 A 
ATOM      7  N   UNL     1      44.297   4.511   9.873  0.00  0.00    +0.000 NA
BRANCH   6   8
ATOM      8  C   UNL     1      45.476   2.850   8.603  0.00  0.00    +0.000 A 
ATOM      9  C   UNL     1      45.912   3.816   7.673  0.00  0.00    +0.000 A 
ATOM     10  C   UNL     1      46.764   3.484   6.613  0.00  0.00    +0.000 A 
ATOM     11  C   UNL     1      47.196   2.172   6.458  0.00  0.00    +0.000 A 
ATOM     12  C   UNL     1      46.774   1.207   7.363  0.00  0.00    +0.000 A 
ATOM     13  F   UNL     1      47.187  -0.059   7.212  0.00  0.00    +0.000 F 
ATOM     14  C   UNL     1      45.930   1.531   8.421  0.00  0.00    +0.000 A 
ENDBRANCH   6   8
ENDBRANCH   1   2
BRANCH   1  15
ATOM     15  N   UNL     1      43.945   6.939  12.204  0.00  0.00    +0.000 N 
ATOM     16  H   UNL     1      43.537   7.731  12.683  0.00  0.00    +0.000 HD
BRANCH  15  21
ATOM     17  C   UNL     1      46.831   5.437  13.617  0.00  0.00    +0.000 A 
ATOM     18  C   UNL     1      47.905   6.076  13.017  0.00  0.00    +0.000 A 
ATOM     19  C   UNL     1      47.629   7.086  12.113  0.00  0.00    +0.000 A 
ATOM     20  C   UNL     1      46.301   7.403  11.839  0.00  0.00    +0.000 A 
ATOM     21  C   UNL     1      45.265   6.718  12.479  0.00  0.00    +0.000 A 
ATOM     22  N   UNL     1      45.521   5.739  13.372  0.00  0.00    +0.000 NA
BRANCH  17  24
ATOM     23  N   UNL     1      47.129   4.674  15.909  0.00  0.00    +0.000 N 
ATOM     24  C   UNL     1      47.109   4.328  14.585  0.00  0.00    +0.000 C 
ATOM     25  O   UNL     1      47.295   3.170  14.228  0.00  0.00    +0.000 OA
ATOM     26  H   UNL     1      47.268   3.951  16.600  0.00  0.00    +0.000 HD
ATOM     27  H   UNL     1      46.899   5.619  16.184  0.00  0.00    +0.000 HD
ENDBRANCH  17  24
ENDBRANCH  15  21
ENDBRANCH   1  15
TORSDOF 5
ENDMDL
MODEL 2
REMARK VINA RESULT:    -8.644      3.406      6.636
REMARK INTER + INTRA:         -11.894
REMARK INTER:                 -11.329
REMARK INTRA:                  -0.566
REMARK UNBOUND:                -0.724
REMARK  Name = 
REMARK  5 active torsions:
REMARK  status: ('A' for Active; 'I' for Inactive)
REMARK    1  A    between atoms: C_2  and  C_4
REMARK    2  A    between atoms: C_8  and  N_9
REMARK    3  A    between atoms: N_9  and  C_10
REMARK    4  A    between atoms: C_10  and  C_11
REMARK    5  A    between atoms: C_15  and  C_16
REMARK                            x       y       z     vdW  Elec       q    Type
REMARK                         _______ _______ _______ _____ _____    ______ ____
ROOT
ATOM      1  C   UNL     1      43.812   3.231  11.895  0.00  0.00    +0.000 C 
ENDROOT
BRANCH   1   2
ATOM      2  C   UNL     1      45.037   3.934  12.456  0.00  0.00    +0.000 A 
ATOM      3  N   UNL     1      45.911   3.192  13.159  0.00  0.00    +0.000 NA
ATOM      4  C   UNL     1      46.969   3.841  13.669  0.00  0.00    +0.000 A 
ATOM      5  C   UNL     1      47.184   5.189  13.507  0.00  0.00    +0.000 A 
ATOM      6  C   UNL     1      46.239   5.886  12.776  0.00  0.00    +0.000 A 
ATOM      7  N   UNL     1      45.160   5.265  12.244  0.00  0.00    +0.000 NA
BRANCH   6   8
ATOM      8  C   UNL     1      46.326   7.343  12.539  0.00  0.00    +0.000 A 
ATOM      9  C   UNL     1      45.176   8.157  12.480  0.00  0.00    +0.000 A 
ATOM     10  C   UNL     1      45.263   9.535  12.249  0.00  0.00    +0.000 A 
ATOM     11  C   UNL     1      46.506  10.128  12.065  0.00  0.00    +0.000 A 
ATOM     12  C   UNL     1      47.649   9.340  12.115  0.00  0.00    +0.000 A 
ATOM     13  F   UNL     1      48.848   9.911  11.934  0.00  0.00    +0.000 F 
ATOM     14  C   UNL     1      47.570   7.971  12.349  0.00  0.00    +0.000 A 
ENDBRANCH   6   8
ENDBRANCH   1   2
BRANCH   1  15
ATOM     15  N   UNL     1      44.097   2.378  10.751  0.00  0.00    +0.000 N 
ATOM     16  H   UNL     1      43.934   1.383  10.845  0.00  0.00    +0.000 HD
BRANCH  15  21
ATOM     17  C   UNL     1      46.276   2.066   7.970  0.00  0.00    +0.000 A 
ATOM     18  C   UNL     1      46.247   3.303   7.343  0.00  0.00    +0.000 A 
ATOM     19  C   UNL     1      45.473   4.295   7.916  0.00  0.00    +0.000 A 
ATOM     20  C   UNL     1      44.755   4.008   9.074  0.00  0.00    +0.000 A 
ATOM     21  C   UNL     1      44.828   2.739   9.654  0.00  0.00    +0.000 A 
ATOM     22  N   UNL     1      45.589   1.765   9.112  0.00  0.00    +0.000 NA
BRANCH  17  24
ATOM     23  N   UNL     1      46.753  -0.306   7.701  0.00  0.00    +0.000 N 
ATOM     24  C   UNL     1      47.094   0.973   7.354  0.00  0.00    +0.000 C 
ATOM     25  O   UNL     1      48.010   1.195   6.570  0.00  0.00    +0.000 OA
ATOM     26  H   UNL     1      47.247  -1.076   7.276  0.00  0.00    +0.000 HD
ATOM     27  H   UNL     1      45.946  -0.466   8.290  0.00  0.00    +0.000 HD
ENDBRANCH  17  24
ENDBRANCH  15  21
ENDBRANCH   1  15
TORSDOF 5
ENDMDL
MODEL 3
REMARK VINA RESULT:    -8.079      1.604      2.158
REMARK INTER + INTRA:         -11.164
REMARK INTER:                 -10.566
REMARK INTRA:                  -0.598
REMARK UNBOUND:                -0.724
REMARK  Name = 
REMARK  5 active torsions:
REMARK  status: ('A' for Active; 'I' for Inactive)
REMARK    1  A    between atoms: C_2  and  C_4
REMARK    2  A    between atoms: C_8  and  N_9
REMARK    3  A    between atoms: N_9  and  C_10
REMARK    4  A    between atoms: C_10  and  C_11
REMARK    5  A    between atoms: C_15  and  C_16
REMARK                            x       y       z     vdW  Elec       q    Type
REMARK                         _______ _______ _______ _____ _____    ______ ____
ROOT
ATOM      1  C   UNL     1      45.626   6.420  12.474  0.00  0.00    +0.000 C 
ENDROOT
BRANCH   1   2
ATOM      2  C   UNL     1      44.943   5.246  11.793  0.00  0.00    +0.000 A 
ATOM      3  N   UNL     1      43.825   4.762  12.365  0.00  0.00    +0.000 NA
ATOM      4  C   UNL     1      43.257   3.707  11.762  0.00  0.00    +0.000 A 
ATOM      5  C   UNL     1      43.757   3.122  10.623  0.00  0.00    +0.000 A 
ATOM      6  C   UNL     1      44.911   3.672  10.097  0.00  0.00    +0.000 A 
ATOM      7  N   UNL     1      45.512   4.738  10.675  0.00  0.00    +0.000 NA
BRANCH   6   8
ATOM      8  C   UNL     1      45.575   3.134   8.890  0.00  0.00    +0.000 A 
ATOM      9  C   UNL     1      45.961   3.967   7.820  0.00  0.00    +0.000 A 
ATOM     10  C   UNL     1      46.583   3.453   6.676  0.00  0.00    +0.000 A 
ATOM     11  C   UNL     1      46.828   2.089   6.577  0.00  0.00    +0.000 A 
ATOM     12  C   UNL     1      46.451   1.253   7.619  0.00  0.00    +0.000 A 
ATOM     13  F   UNL     1      46.684  -0.063   7.522  0.00  0.00    +0.000 F 
ATOM     14  C   UNL     1      45.836   1.758   8.761  0.00  0.00    +0.000 A 
ENDBRANCH   6   8
ENDBRANCH   1   2
BRANCH   1  15
ATOM     15  N   UNL     1      47.031   6.188  12.775  0.00  0.00    +0.000 N 
ATOM     16  H   UNL     1      47.634   5.873  12.025  0.00  0.00    +0.000 HD
BRANCH  15  21
ATOM     17  C   UNL     1      47.862   4.757  15.912  0.00  0.00    +0.000 A 
ATOM     18  C   UNL     1      48.708   5.672  16.518  0.00  0.00    +0.000 A 
ATOM     19  C   UNL     1      48.980   6.844  15.837  0.00  0.00    +0.000 A 
ATOM     20  C   UNL     1      48.411   7.044  14.582  0.00  0.00    +0.000 A 
ATOM     21  C   UNL     1      47.567   6.079  14.027  0.00  0.00    +0.000 A 
ATOM     22  N   UNL     1      47.282   4.936  14.687  0.00  0.00    +0.000 NA
BRANCH  17  24
ATOM     23  N   UNL     1      48.549   2.519  16.579  0.00  0.00    +0.000 N 
ATOM     24  C   UNL     1      47.569   3.472  16.626  0.00  0.00    +0.000 C 
ATOM     25  O   UNL     1      46.523   3.279  17.236  0.00  0.00    +0.000 OA
ATOM     26  H   UNL     1      48.415   1.655  17.084  0.00  0.00    +0.000 HD
ATOM     27  H   UNL     1      49.432   2.729  16.134  0.00  0.00    +0.000 HD
ENDBRANCH  17  24
ENDBRANCH  15  21
ENDBRANCH   1  15
TORSDOF 5
ENDMDL
MODEL 4
REMARK VINA RESULT:    -7.959      1.659      1.806
REMARK INTER + INTRA:         -11.010
REMARK INTER:                 -10.358
REMARK INTRA:                  -0.652
REMARK UNBOUND:                -0.724
REMARK  Name = 
REMARK  5 active torsions:
REMARK  status: ('A' for Active; 'I' for Inactive)
REMARK    1  A    between atoms: C_2  and  C_4
REMARK    2  A    between atoms: C_8  and  N_9
REMARK    3  A    between atoms: N_9  and  C_10
REMARK    4  A    between atoms: C_10  and  C_11
REMARK    5  A    between atoms: C_15  and  C_16
REMARK                            x       y       z     vdW  Elec       q    Type
REMARK                         _______ _______ _______ _____ _____    ______ ____
ROOT
ATOM      1  C   UNL     1      44.836   6.960  11.355  0.00  0.00    +0.000 C 
ENDROOT
BRANCH   1   2
ATOM      2  C   UNL     1      44.483   5.524  11.006  0.00  0.00    +0.000 A 
ATOM      3  N   UNL     1      43.546   4.916  11.756  0.00  0.00    +0.000 NA
ATOM      4  C   UNL     1      43.273   3.638  11.448  0.00  0.00    +0.000 A 
ATOM      5  C   UNL     1      43.895   2.952  10.432  0.00  0.00    +0.000 A 
ATOM      6  C   UNL     1      44.851   3.642   9.710  0.00  0.00    +0.000 A 
ATOM      7  N   UNL     1      45.151   4.932   9.989  0.00  0.00    +0.000 NA
BRANCH   6   8
ATOM      8  C   UNL     1      45.616   3.027   8.605  0.00  0.00    +0.000 A 
ATOM      9  C   UNL     1      46.066   3.780   7.501  0.00  0.00    +0.000 A 
ATOM     10  C   UNL     1      46.785   3.193   6.454  0.00  0.00    +0.000 A 
ATOM     11  C   UNL     1      47.065   1.832   6.486  0.00  0.00    +0.000 A 
ATOM     12  C   UNL     1      46.625   1.073   7.563  0.00  0.00    +0.000 A 
ATOM     13  F   UNL     1      46.891  -0.240   7.592  0.00  0.00    +0.000 F 
ATOM     14  C   UNL     1      45.914   1.652   8.610  0.00  0.00    +0.000 A 
ENDBRANCH   6   8
ENDBRANCH   1   2
BRANCH   1  15
ATOM     15  N   UNL     1      45.538   7.102  12.621  0.00  0.00    +0.000 N 
ATOM     16  H   UNL     1      44.995   7.324  13.446  0.00  0.00    +0.000 HD
BRANCH  15  21
ATOM     17  C   UNL     1      48.722   7.096  14.183  0.00  0.00    +0.000 A 
ATOM     18  C   UNL     1      49.627   7.365  13.168  0.00  0.00    +0.000 A 
ATOM     19  C   UNL     1      49.123   7.589  11.900  0.00  0.00    +0.000 A 
ATOM     20  C   UNL     1      47.746   7.522  11.700  0.00  0.00    +0.000 A 
ATOM     21  C   UNL     1      46.889   7.245  12.768  0.00  0.00    +0.000 A 
ATOM     22  N   UNL     1      47.368   7.037  14.012  0.00  0.00    +0.000 NA
BRANCH  17  24
ATOM     23  N   UNL     1      48.410   7.130  16.597  0.00  0.00    +0.000 N 
ATOM     24  C   UNL     1      49.251   6.833  15.561  0.00  0.00    +0.000 C 
ATOM     25  O   UNL     1      50.366   6.364  15.761  0.00  0.00    +0.000 OA
ATOM     26  H   UNL     1      48.706   6.927  17.541  0.00  0.00    +0.000 HD
ATOM     27  H   UNL     1      47.468   7.446  16.404  0.00  0.00    +0.000 HD
ENDBRANCH  17  24
ENDBRANCH  15  21
ENDBRANCH   1  15
TORSDOF 5
ENDMDL
MODEL 5
REMARK VINA RESULT:    -7.880      3.710      7.359
REMARK INTER + INTRA:         -10.908
REMARK INTER:                 -10.372
REMARK INTRA:                  -0.536
REMARK UNBOUND:                -0.724
REMARK  Name = 
REMARK  5 active torsions:
REMARK  status: ('A' for Active; 'I' for Inactive)
REMARK    1  A    between atoms: C_2  and  C_4
REMARK    2  A    between atoms: C_8  and  N_9
REMARK    3  A    between atoms: N_9  and  C_10
REMARK    4  A    between atoms: C_10  and  C_11
REMARK    5  A    between atoms: C_15  and  C_16
REMARK                            x       y       z     vdW  Elec       q    Type
REMARK                         _______ _______ _______ _____ _____    ______ ____
ROOT
ATOM      1  C   UNL     1      44.065   3.686  12.304  0.00  0.00    +0.000 C 
ENDROOT
BRANCH   1   2
ATOM      2  C   UNL     1      45.239   4.516  12.794  0.00  0.00    +0.000 A 
ATOM      3  N   UNL     1      45.599   5.580  12.052  0.00  0.00    +0.000 NA
ATOM      4  C   UNL     1      46.658   6.279  12.489  0.00  0.00    +0.000 A 
ATOM      5  C   UNL     1      47.363   5.961  13.624  0.00  0.00    +0.000 A 
ATOM      6  C   UNL     1      46.937   4.851  14.331  0.00  0.00    +0.000 A 
ATOM      7  N   UNL     1      45.872   4.122  13.923  0.00  0.00    +0.000 NA
BRANCH   6   8
ATOM      8  C   UNL     1      47.612   4.376  15.557  0.00  0.00    +0.000 A 
ATOM      9  C   UNL     1      47.850   3.006  15.793  0.00  0.00    +0.000 A 
ATOM     10  C   UNL     1      48.483   2.560  16.958  0.00  0.00    +0.000 A 
ATOM     11  C   UNL     1      48.888   3.479  17.920  0.00  0.00    +0.000 A 
ATOM     12  C   UNL     1      48.658   4.831  17.706  0.00  0.00    +0.000 A 
ATOM     13  F   UNL     1      49.045   5.717  18.635  0.00  0.00    +0.000 F 
ATOM     14  C   UNL     1      48.033   5.282  16.547  0.00  0.00    +0.000 A 
ENDBRANCH   6   8
ENDBRANCH   1   2
BRANCH   1  15
ATOM     15  N   UNL     1      44.436   2.644  11.358  0.00  0.00    +0.000 N 
ATOM     16  H   UNL     1      44.637   1.721  11.720  0.00  0.00    +0.000 HD
BRANCH  15  21
ATOM     17  C   UNL     1      46.003   2.057   8.231  0.00  0.00    +0.000 A 
ATOM     18  C   UNL     1      45.549   3.070   7.400  0.00  0.00    +0.000 A 
ATOM     19  C   UNL     1      44.695   4.012   7.942  0.00  0.00    +0.000 A 
ATOM     20  C   UNL     1      44.322   3.896   9.279  0.00  0.00    +0.000 A 
ATOM     21  C   UNL     1      44.815   2.849  10.061  0.00  0.00    +0.000 A 
ATOM     22  N   UNL     1      45.660   1.930   9.548  0.00  0.00    +0.000 NA
BRANCH  17  24
ATOM     23  N   UNL     1      47.989   1.480   6.948  0.00  0.00    +0.000 N 
ATOM     24  C   UNL     1      46.915   1.016   7.656  0.00  0.00    +0.000 C 
ATOM     25  O   UNL     1      46.731  -0.185   7.817  0.00  0.00    +0.000 OA
ATOM     26  H   UNL     1      48.656   0.816   6.581  0.00  0.00    +0.000 HD
ATOM     27  H   UNL     1      48.162   2.475   6.892  0.00  0.00    +0.000 HD
ENDBRANCH  17  24
ENDBRANCH  15  21
ENDBRANCH   1  15
TORSDOF 5
ENDMDL
MODEL 6
REMARK VINA RESULT:    -7.792      2.219      3.178
REMARK INTER + INTRA:         -10.794
REMARK INTER:                  -9.994
REMARK INTRA:                  -0.800
REMARK UNBOUND:                -0.724
REMARK  Name = 
REMARK  5 active torsions:
REMARK  status: ('A' for Active; 'I' for Inactive)
REMARK    1  A    between atoms: C_2  and  C_4
REMARK    2  A    between atoms: C_8  and  N_9
REMARK    3  A    between atoms: N_9  and  C_10
REMARK    4  A    between atoms: C_10  and  C_11
REMARK    5  A    between atoms: C_15  and  C_16
REMARK                            x       y       z     vdW  Elec       q    Type
REMARK                         _______ _______ _______ _____ _____    ______ ____
ROOT
ATOM      1  C   UNL     1      46.031   4.367  13.590  0.00  0.00    +0.000 C 
ENDROOT
BRANCH   1   2
ATOM      2  C   UNL     1      45.180   4.314  12.333  0.00  0.00    +0.000 A 
ATOM      3  N   UNL     1      43.909   4.747  12.426  0.00  0.00    +0.000 NA
ATOM      4  C   UNL     1      43.169   4.662  11.310  0.00  0.00    +0.000 A 
ATOM      5  C   UNL     1      43.642   4.166  10.119  0.00  0.00    +0.000 A 
ATOM      6  C   UNL     1      44.956   3.734  10.104  0.00  0.00    +0.000 A 
ATOM      7  N   UNL     1      45.735   3.807  11.208  0.00  0.00    +0.000 NA
BRANCH   6   8
ATOM      8  C   UNL     1      45.593   3.156   8.902  0.00  0.00    +0.000 A 
ATOM      9  C   UNL     1      45.982   3.956   7.807  0.00  0.00    +0.000 A 
ATOM     10  C   UNL     1      46.579   3.404   6.669  0.00  0.00    +0.000 A 
ATOM     11  C   UNL     1      46.796   2.032   6.598  0.00  0.00    +0.000 A 
ATOM     12  C   UNL     1      46.416   1.229   7.665  0.00  0.00    +0.000 A 
ATOM     13  F   UNL     1      46.621  -0.094   7.595  0.00  0.00    +0.000 F 
ATOM     14  C   UNL     1      45.826   1.772   8.802  0.00  0.00    +0.000 A 
ENDBRANCH   6   8
ENDBRANCH   1   2
BRANCH   1  15
ATOM     15  N   UNL     1      46.353   5.718  14.026  0.00  0.00    +0.000 N 
ATOM     16  H   UNL     1      45.931   6.056  14.881  0.00  0.00    +0.000 HD
BRANCH  15  21
ATOM     17  C   UNL     1      46.768   8.787  12.298  0.00  0.00    +0.000 A 
ATOM     18  C   UNL     1      48.072   8.767  11.827  0.00  0.00    +0.000 A 
ATOM     19  C   UNL     1      48.831   7.641  12.085  0.00  0.00    +0.000 A 
ATOM     20  C   UNL     1      48.263   6.595  12.809  0.00  0.00    +0.000 A 
ATOM     21  C   UNL     1      46.943   6.680  13.256  0.00  0.00    +0.000 A 
ATOM     22  N   UNL     1      46.187   7.769  13.000  0.00  0.00    +0.000 NA
BRANCH  17  24
ATOM     23  N   UNL     1      44.671   9.994  12.567  0.00  0.00    +0.000 N 
ATOM     24  C   UNL     1      45.935  10.007  12.044  0.00  0.00    +0.000 C 
ATOM     25  O   UNL     1      46.355  10.975  11.420  0.00  0.00    +0.000 OA
ATOM     26  H   UNL     1      44.090  10.813  12.460  0.00  0.00    +0.000 HD
ATOM     27  H   UNL     1      44.374   9.216  13.141  0.00  0.00    +0.000 HD
ENDBRANCH  17  24
ENDBRANCH  15  21
ENDBRANCH   1  15
TORSDOF 5
ENDMDL
MODEL 7
REMARK VINA RESULT:    -7.613      2.601      3.909
REMARK INTER + INTRA:         -10.562
REMARK INTER:                 -10.111
REMARK INTRA:                  -0.451
REMARK UNBOUND:                -0.724
REMARK  Name = 
REMARK  5 active torsions:
REMARK  status: ('A' for Active; 'I' for Inactive)
REMARK    1  A    between atoms: C_2  and  C_4
REMARK    2  A    between atoms: C_8  and  N_9
REMARK    3  A    between atoms: N_9  and  C_10
REMARK    4  A    between atoms: C_10  and  C_11
REMARK    5  A    between atoms: C_15  and  C_16
REMARK                            x       y       z     vdW  Elec       q    Type
REMARK                         _______ _______ _______ _____ _____    ______ ____
ROOT
ATOM      1  C   UNL     1      46.590   4.948  14.244  0.00  0.00    +0.000 C 
ENDROOT
BRANCH   1   2
ATOM      2  C   UNL     1      45.507   4.740  13.199  0.00  0.00    +0.000 A 
ATOM      3  N   UNL     1      44.235   4.980  13.566  0.00  0.00    +0.000 NA
ATOM      4  C   UNL     1      43.295   4.760  12.635  0.00  0.00    +0.000 A 
ATOM      5  C   UNL     1      43.572   4.313  11.365  0.00  0.00    +0.000 A 
ATOM      6  C   UNL     1      44.902   4.083  11.064  0.00  0.00    +0.000 A 
ATOM      7  N   UNL     1      45.879   4.296  11.976  0.00  0.00    +0.000 NA
BRANCH   6   8
ATOM      8  C   UNL     1      45.348   3.580   9.747  0.00  0.00    +0.000 A 
ATOM      9  C   UNL     1      45.646   4.451   8.679  0.00  0.00    +0.000 A 
ATOM     10  C   UNL     1      46.062   3.970   7.432  0.00  0.00    +0.000 A 
ATOM     11  C   UNL     1      46.183   2.601   7.225  0.00  0.00    +0.000 A 
ATOM     12  C   UNL     1      45.890   1.728   8.264  0.00  0.00    +0.000 A 
ATOM     13  F   UNL     1      46.003   0.408   8.063  0.00  0.00    +0.000 F 
ATOM     14  C   UNL     1      45.480   2.200   9.508  0.00  0.00    +0.000 A 
ENDBRANCH   6   8
ENDBRANCH   1   2
BRANCH   1  15
ATOM     15  N   UNL     1      46.517   4.017  15.360  0.00  0.00    +0.000 N 
ATOM     16  H   UNL     1      45.670   3.473  15.473  0.00  0.00    +0.000 HD
BRANCH  15  21
ATOM     17  C   UNL     1      49.334   3.198  17.353  0.00  0.00    +0.000 A 
ATOM     18  C   UNL     1      49.217   3.982  18.490  0.00  0.00    +0.000 A 
ATOM     19  C   UNL     1      48.109   4.803  18.593  0.00  0.00    +0.000 A 
ATOM     20  C   UNL     1      47.179   4.815  17.556  0.00  0.00    +0.000 A 
ATOM     21  C   UNL     1      47.358   4.000  16.436  0.00  0.00    +0.000 A 
ATOM     22  N   UNL     1      48.429   3.185  16.329  0.00  0.00    +0.000 NA
BRANCH  17  24
ATOM     23  N   UNL     1      51.546   2.525  18.115  0.00  0.00    +0.000 N 
ATOM     24  C   UNL     1      50.537   2.315  17.214  0.00  0.00    +0.000 C 
ATOM     25  O   UNL     1      50.621   1.442  16.359  0.00  0.00    +0.000 OA
ATOM     26  H   UNL     1      52.357   1.923  18.089  0.00  0.00    +0.000 HD
ATOM     27  H   UNL     1      51.422   3.200  18.858  0.00  0.00    +0.000 HD
ENDBRANCH  17  24
ENDBRANCH  15  21
ENDBRANCH   1  15
TORSDOF 5
ENDMDL
MODEL 8
REMARK VINA RESULT:    -7.260      2.520      4.425
REMARK INTER + INTRA:         -10.106
REMARK INTER:                  -9.484
REMARK INTRA:                  -0.621
REMARK UNBOUND:                -0.724
REMARK  Name = 
REMARK  5 active torsions:
REMARK  status: ('A' for Active; 'I' for Inactive)
REMARK    1  A    between atoms: C_2  and  C_4
REMARK    2  A    between atoms: C_8  and  N_9
REMARK    3  A    between atoms: N_9  and  C_10
REMARK    4  A    between atoms: C_10  and  C_11
REMARK    5  A    between atoms: C_15  and  C_16
REMARK                            x       y       z     vdW  Elec       q    Type
REMARK                         _______ _______ _______ _____ _____    ______ ____
ROOT
ATOM      1  C   UNL     1      48.471   7.117  13.442  0.00  0.00    +0.000 C 
ENDROOT
BRANCH   1   2
ATOM      2  C   UNL     1      47.153   7.195  12.691  0.00  0.00    +0.000 A 
ATOM      3  N   UNL     1      46.397   8.293  12.876  0.00  0.00    +0.000 NA
ATOM      4  C   UNL     1      45.224   8.324  12.225  0.00  0.00    +0.000 A 
ATOM      5  C   UNL     1      44.781   7.313  11.406  0.00  0.00    +0.000 A 
ATOM      6  C   UNL     1      45.611   6.215  11.271  0.00  0.00    +0.000 A 
ATOM      7  N   UNL     1      46.802   6.148  11.909  0.00  0.00    +0.000 NA
BRANCH   6   8
ATOM      8  C   UNL     1      45.256   5.042  10.443  0.00  0.00    +0.000 A 
ATOM      9  C   UNL     1      44.517   3.960  10.963  0.00  0.00    +0.000 A 
ATOM     10  C   UNL     1      44.190   2.849  10.177  0.00  0.00    +0.000 A 
ATOM     11  C   UNL     1      44.601   2.794   8.851  0.00  0.00    +0.000 A 
ATOM     12  C   UNL     1      45.333   3.850   8.323  0.00  0.00    +0.000 A 
ATOM     13  F   UNL     1      45.734   3.796   7.045  0.00  0.00    +0.000 F 
ATOM     14  C   UNL     1      45.658   4.959   9.098  0.00  0.00    +0.000 A 
ENDBRANCH   6   8
ENDBRANCH   1   2
BRANCH   1  15
ATOM     15  N   UNL     1      48.366   7.469  14.851  0.00  0.00    +0.000 N 
ATOM     16  H   UNL     1      48.243   8.444  15.091  0.00  0.00    +0.000 HD
BRANCH  15  21
ATOM     17  C   UNL     1      48.610   4.526  16.815  0.00  0.00    +0.000 A 
ATOM     18  C   UNL     1      49.420   4.869  17.887  0.00  0.00    +0.000 A 
ATOM     19  C   UNL     1      49.875   6.172  17.957  0.00  0.00    +0.000 A 
ATOM     20  C   UNL     1      49.516   7.068  16.953  0.00  0.00    +0.000 A 
ATOM     21  C   UNL     1      48.698   6.656  15.898  0.00  0.00    +0.000 A 
ATOM     22  N   UNL     1      48.236   5.390  15.825  0.00  0.00    +0.000 NA
BRANCH  17  24
ATOM     23  N   UNL     1      47.067   2.779  17.516  0.00  0.00    +0.000 N 
ATOM     24  C   UNL     1      48.122   3.113  16.712  0.00  0.00    +0.000 C 
ATOM     25  O   UNL     1      48.619   2.296  15.945  0.00  0.00    +0.000 OA
ATOM     26  H   UNL     1      46.675   1.851  17.448  0.00  0.00    +0.000 HD
ATOM     27  H   UNL     1      46.626   3.489  18.085  0.00  0.00    +0.000 HD
ENDBRANCH  17  24
ENDBRANCH  15  21
ENDBRANCH   1  15
TORSDOF 5
ENDMDL
MODEL 9
REMARK VINA RESULT:    -7.091      2.867      4.967
REMARK INTER + INTRA:          -9.888
REMARK INTER:                  -9.366
REMARK INTRA:                  -0.522
REMARK UNBOUND:                -0.724
REMARK  Name = 
REMARK  5 active torsions:
REMARK  status: ('A' for Active; 'I' for Inactive)
REMARK    1  A    between atoms: C_2  and  C_4
REMARK    2  A    between atoms: C_8  and  N_9
REMARK    3  A    between atoms: N_9  and  C_10
REMARK    4  A    between atoms: C_10  and  C_11
REMARK    5  A    between atoms: C_15  and  C_16
REMARK                            x       y       z     vdW  Elec       q    Type
REMARK                         _______ _______ _______ _____ _____    ______ ____
ROOT
ATOM      1  C   UNL     1      48.260   6.613  14.187  0.00  0.00    +0.000 C 
ENDROOT
BRANCH   1   2
ATOM      2  C   UNL     1      47.109   6.885  13.233  0.00  0.00    +0.000 A 
ATOM      3  N   UNL     1      46.533   8.100  13.288  0.00  0.00    +0.000 NA
ATOM      4  C   UNL     1      45.500   8.306  12.457  0.00  0.00    +0.000 A 
ATOM      5  C   UNL     1      45.024   7.356  11.584  0.00  0.00    +0.000 A 
ATOM      6  C   UNL     1      45.665   6.131  11.590  0.00  0.00    +0.000 A 
ATOM      7  N   UNL     1      46.712   5.886  12.412  0.00  0.00    +0.000 NA
BRANCH   6   8
ATOM      8  C   UNL     1      45.249   5.007  10.724  0.00  0.00    +0.000 A 
ATOM      9  C   UNL     1      44.511   3.915  11.224  0.00  0.00    +0.000 A 
ATOM     10  C   UNL     1      44.126   2.850  10.401  0.00  0.00    +0.000 A 
ATOM     11  C   UNL     1      44.478   2.853   9.057  0.00  0.00    +0.000 A 
ATOM     12  C   UNL     1      45.208   3.919   8.548  0.00  0.00    +0.000 A 
ATOM     13  F   UNL     1      45.551   3.920   7.252  0.00  0.00    +0.000 F 
ATOM     14  C   UNL     1      45.590   4.983   9.359  0.00  0.00    +0.000 A 
ENDBRANCH   6   8
ENDBRANCH   1   2
BRANCH   1  15
ATOM     15  N   UNL     1      47.836   6.262  15.534  0.00  0.00    +0.000 N 
ATOM     16  H   UNL     1      47.432   6.989  16.112  0.00  0.00    +0.000 HD
BRANCH  15  21
ATOM     17  C   UNL     1      49.861   3.920  17.264  0.00  0.00    +0.000 A 
ATOM     18  C   UNL     1      48.991   2.927  17.686  0.00  0.00    +0.000 A 
ATOM     19  C   UNL     1      47.659   3.048  17.336  0.00  0.00    +0.000 A 
ATOM     20  C   UNL     1      47.254   4.156  16.596  0.00  0.00    +0.000 A 
ATOM     21  C   UNL     1      48.183   5.122  16.203  0.00  0.00    +0.000 A 
ATOM     22  N   UNL     1      49.489   5.009  16.528  0.00  0.00    +0.000 NA
BRANCH  17  24
ATOM     23  N   UNL     1      51.672   2.676  18.313  0.00  0.00    +0.000 N 
ATOM     24  C   UNL     1      51.306   3.816  17.650  0.00  0.00    +0.000 C 
ATOM     25  O   UNL     1      52.126   4.685  17.380  0.00  0.00    +0.000 OA
ATOM     26  H   UNL     1      52.644   2.541  18.552  0.00  0.00    +0.000 HD
ATOM     27  H   UNL     1      50.994   1.940  18.457  0.00  0.00    +0.000 HD
ENDBRANCH  17  24
ENDBRANCH  15  21
ENDBRANCH   1  15
TORSDOF 5
ENDMDL
