MODEL 1
REMARK VINA RESULT:    -8.949      0.000      0.000
REMARK INTER + INTRA:         -12.251
REMARK INTER:                 -11.826
REMARK INTRA:                  -0.425
REMARK UNBOUND:                -0.425
REMARK  Name = 
REMARK  7 active torsions:
REMARK  status: ('A' for Active; 'I' for Inactive)
REMARK    1  A    between atoms: C_1  and  C_2
REMARK    2  A    between atoms: C_7  and  C_8
REMARK    3  A    between atoms: C_13  and  C_14
REMARK    4  A    between atoms: C_14  and  C_15
REMARK    5  A    between atoms: C_15  and  N_16
REMARK    6  A    between atoms: C_20  and  C_21
REMARK    7  A    between atoms: C_21  and  O_23
REMARK                            x       y       z     vdW  Elec       q    Type
REMARK                         _______ _______ _______ _____ _____    ______ ____
ROOT
ATOM      1  C   UNL     1      46.074   7.298  12.559  0.00  0.00    +0.000 A 
ATOM      2  C   UNL     1      47.140   6.508  13.002  0.00  0.00    +0.000 A 
ATOM      3  C   UNL     1      46.941   5.147  13.231  0.00  0.00    +0.000 A 
ATOM      4  C   UNL     1      45.679   4.608  13.036  0.00  0.00    +0.000 A 
ATOM      5  F   UNL     1      45.474   3.303  13.258  0.00  0.00    +0.000 F 
ATOM      6  C   UNL     1      44.648   5.432  12.611  0.00  0.00    +0.000 A 
ATOM      7  N   UNL     1      44.843   6.755  12.367  0.00  0.00    +0.000 NA
ENDROOT
BRANCH   1  14
ATOM      8  C   UNL     1      48.774   8.666  12.117  0.00  0.00    +0.000 C 
ATOM      9  C   UNL     1      47.457   9.388  12.049  0.00  0.00    +0.000 A 
ATOM     10  N   UNL     1      47.573  10.724  11.784  0.00  0.00    +0.000 NA
ATOM     11  C   UNL     1      46.448  11.453  11.680  0.00  0.00    +0.000 A 
ATOM     12  C   UNL     1      45.186  10.919  11.814  0.00  0.00    +0.000 A 
ATOM     13  C   UNL     1      45.077   9.557  12.091  0.00  0.00    +0.000 A 
ATOM     14  C   UNL     1      46.218   8.738  12.226  0.00  0.00    +0.000 A 
ENDBRANCH   1  14
BRANCH   6  15
ATOM     15  C   UNL     1      43.248   4.900  12.432  0.00  0.00    +0.000 C 
BRANCH  15  16
ATOM     16  C   UNL     1      43.099   4.167  11.096  0.00  0.00    +0.000 C 
BRANCH  16  17
ATOM     17  N   UNL     1      43.913   4.807  10.046  0.00  0.00    +0.000 N 
ATOM     18  C   UNL     1      44.710   3.890   9.329  0.00  0.00    +0.000 A 
ATOM     19  C   UNL     1      45.540   4.367   8.313  0.00  0.00    +0.000 A 
ATOM     20  C   UNL     1      46.351   3.476   7.600  0.00  0.00    +0.000 A 
ATOM     21  C   UNL     1      46.308   2.121   7.916  0.00  0.00    +0.000 A 
ATOM     22  C   UNL     1      45.455   1.727   8.934  0.00  0.00    +0.000 A 
ATOM     23  N   UNL     1      44.659   2.578   9.625  0.00  0.00    +0.000 NA
ATOM     24  H   UNL     1      44.515   5.535  10.420  0.00  0.00    +0.000 HD
BRANCH  21  25
ATOM     25  C   UNL     1      47.147   1.082   7.279  0.00  0.00    +0.000 C 
ATOM     26  O   UNL     1      48.024   1.353   6.476  0.00  0.00    +0.000 OA
BRANCH  25  27
ATOM     27  O   UNL     1      46.877  -0.178   7.673  0.00  0.00    +0.000 OA
ATOM     28  H   UNL     1      46.870  -0.332   8.636  0.00  0.00    +0.000 HD
ENDBRANCH  25  27
ENDBRANCH  21  25
ENDBRANCH  16  17
ENDBRANCH  15  16
ENDBRANCH   6  15
TORSDOF 6
ENDMDL
MODEL 2
REMARK VINA RESULT:    -8.581      1.176      1.480
REMARK INTER + INTRA:         -11.765
REMARK INTER:                 -11.060
REMARK INTRA:                  -0.705
REMARK UNBOUND:                -0.425
REMARK  Name = 
REMARK  7 active torsions:
REMARK  status: ('A' for Active; 'I' for Inactive)
REMARK    1  A    between atoms: C_1  and  C_2
REMARK    2  A    between atoms: C_7  and  C_8
REMARK    3  A    between atoms: C_13  and  C_14
REMARK    4  A    between atoms: C_14  and  C_15
REMARK    5  A    between atoms: C_15  and  N_16
REMARK    6  A    between atoms: C_20  and  C_21
REMARK    7  A    between atoms: C_21  and  O_23
REMARK                            x       y       z     vdW  Elec       q    Type
REMARK                         _______ _______ _______ _____ _____    ______ ____
ROOT
ATOM      1  C   UNL     1      46.831   6.663  13.121  0.00  0.00    +0.000 A 
ATOM      2  C   UNL     1      47.488   5.500  13.535  0.00  0.00    +0.000 A 
ATOM      3  C   UNL     1      46.816   4.278  13.498  0.00  0.00    +0.000 A 
ATOM      4  C   UNL     1      45.498   4.246  13.071  0.00  0.00    +0.000 A 
ATOM      5  F   UNL     1      44.840   3.080  13.036  0.00  0.00    +0.000 F 
ATOM      6  C   UNL     1      44.882   5.427  12.684  0.00  0.00    +0.000 A 
ATOM      7  N   UNL     1      45.540   6.617  12.700  0.00  0.00    +0.000 NA
ENDROOT
BRANCH   1  14
ATOM      8  C   UNL     1      48.325   7.904  15.484  0.00  0.00    +0.000 C 
ATOM      9  C   UNL     1      48.161   8.587  14.154  0.00  0.00    +0.000 A 
ATOM     10  N   UNL     1      48.731   9.828  14.098  0.00  0.00    +0.000 NA
ATOM     11  C   UNL     1      48.658  10.511  12.942  0.00  0.00    +0.000 A 
ATOM     12  C   UNL     1      48.050  10.017  11.809  0.00  0.00    +0.000 A 
ATOM     13  C   UNL     1      47.466   8.754  11.878  0.00  0.00    +0.000 A 
ATOM     14  C   UNL     1      47.494   7.990  13.065  0.00  0.00    +0.000 A 
ENDBRANCH   1  14
BRANCH   6  15
ATOM     15  C   UNL     1      43.435   5.448  12.259  0.00  0.00    +0.000 C 
BRANCH  15  16
ATOM     16  C   UNL     1      43.222   4.647  10.971  0.00  0.00    +0.000 C 
BRANCH  16  17
ATOM     17  N   UNL     1      44.081   5.153   9.884  0.00  0.00    +0.000 N 
ATOM     18  C   UNL     1      44.805   4.133   9.232  0.00  0.00    +0.000 A 
ATOM     19  C   UNL     1      45.666   4.479   8.189  0.00  0.00    +0.000 A 
ATOM     20  C   UNL     1      46.407   3.485   7.538  0.00  0.00    +0.000 A 
ATOM     21  C   UNL     1      46.262   2.160   7.942  0.00  0.00    +0.000 A 
ATOM     22  C   UNL     1      45.385   1.900   8.982  0.00  0.00    +0.000 A 
ATOM     23  N   UNL     1      44.655   2.851   9.613  0.00  0.00    +0.000 NA
ATOM     24  H   UNL     1      44.736   5.856  10.211  0.00  0.00    +0.000 HD
BRANCH  21  25
ATOM     25  C   UNL     1      47.020   1.022   7.377  0.00  0.00    +0.000 C 
ATOM     26  O   UNL     1      47.837   1.161   6.483  0.00  0.00    +0.000 OA
BRANCH  25  27
ATOM     27  O   UNL     1      46.749  -0.170   7.944  0.00  0.00    +0.000 OA
ATOM     28  H   UNL     1      46.225  -0.143   8.766  0.00  0.00    +0.000 HD
ENDBRANCH  25  27
ENDBRANCH  21  25
ENDBRANCH  16  17
ENDBRANCH  15  16
ENDBRANCH   6  15
TORSDOF 6
ENDMDL
MODEL 3
REMARK VINA RESULT:    -8.272      2.528      4.265
REMARK INTER + INTRA:         -11.357
REMARK INTER:                 -11.066
REMARK INTRA:                  -0.290
REMARK UNBOUND:                -0.425
REMARK  Name = 
REMARK  7 active torsions:
REMARK  status: ('A' for Active; 'I' for Inactive)
REMARK    1  A    between atoms: C_1  and  C_2
REMARK    2  A    between atoms: C_7  and  C_8
REMARK    3  A    between atoms: C_13  and  C_14
REMARK    4  A    between atoms: C_14  and  C_15
REMARK    5  A    between atoms: C_15  and  N_16
REMARK    6  A    between atoms: C_20  and  C_21
REMARK    7  A    between atoms: C_21  and  O_23
REMARK                            x       y       z     vdW  Elec       q    Type
REMARK                         _______ _______ _______ _____ _____    ______ ____
ROOT
ATOM      1  C   UNL     1      47.076   5.478  13.926  0.00  0.00    +0.000 A 
ATOM      2  C   UNL     1      47.840   6.256  13.050  0.00  0.00    +0.000 A 
ATOM      3  C   UNL     1      47.237   6.823  11.927  0.00  0.00    +0.000 A 
ATOM      4  C   UNL     1      45.893   6.584  11.690  0.00  0.00    +0.000 A 
ATOM      5  F   UNL     1      45.304   7.118  10.612  0.00  0.00    +0.000 F 
ATOM      6  C   UNL     1      45.178   5.793  12.577  0.00  0.00    +0.000 A 
ATOM      7  N   UNL     1      45.757   5.255  13.684  0.00  0.00    +0.000 NA
ENDROOT
BRANCH   1  14
ATOM      8  C   UNL     1      48.743   7.068  15.937  0.00  0.00    +0.000 C 
ATOM      9  C   UNL     1      48.418   5.609  16.099  0.00  0.00    +0.000 A 
ATOM     10  N   UNL     1      48.948   5.047  17.226  0.00  0.00    +0.000 NA
ATOM     11  C   UNL     1      48.693   3.749  17.472  0.00  0.00    +0.000 A 
ATOM     12  C   UNL     1      47.913   2.965  16.652  0.00  0.00    +0.000 A 
ATOM     13  C   UNL     1      47.382   3.544  15.501  0.00  0.00    +0.000 A 
ATOM     14  C   UNL     1      47.623   4.896  15.177  0.00  0.00    +0.000 A 
ENDBRANCH   1  14
BRANCH   6  15
ATOM     15  C   UNL     1      43.726   5.465  12.334  0.00  0.00    +0.000 C 
BRANCH  15  16
ATOM     16  C   UNL     1      43.487   5.047  10.880  0.00  0.00    +0.000 C 
BRANCH  16  17
ATOM     17  N   UNL     1      43.714   3.601  10.699  0.00  0.00    +0.000 N 
ATOM     18  C   UNL     1      44.633   3.310   9.670  0.00  0.00    +0.000 A 
ATOM     19  C   UNL     1      44.928   1.975   9.387  0.00  0.00    +0.000 A 
ATOM     20  C   UNL     1      45.825   1.663   8.358  0.00  0.00    +0.000 A 
ATOM     21  C   UNL     1      46.416   2.698   7.638  0.00  0.00    +0.000 A 
ATOM     22  C   UNL     1      46.073   3.995   7.983  0.00  0.00    +0.000 A 
ATOM     23  N   UNL     1      45.214   4.310   8.982  0.00  0.00    +0.000 NA
ATOM     24  H   UNL     1      42.850   3.100  10.513  0.00  0.00    +0.000 HD
BRANCH  21  25
ATOM     25  C   UNL     1      47.338   2.509   6.497  0.00  0.00    +0.000 C 
ATOM     26  O   UNL     1      48.221   1.668   6.504  0.00  0.00    +0.000 OA
BRANCH  25  27
ATOM     27  O   UNL     1      47.108   3.323   5.448  0.00  0.00    +0.000 OA
ATOM     28  H   UNL     1      47.885   3.795   5.096  0.00  0.00    +0.000 HD
ENDBRANCH  25  27
ENDBRANCH  21  25
ENDBRANCH  16  17
ENDBRANCH  15  16
ENDBRANCH   6  15
TORSDOF 6
ENDMDL
MODEL 4
REMARK VINA RESULT:    -7.740      5.048      7.411
REMARK INTER + INTRA:         -10.654
REMARK INTER:                  -9.520
REMARK INTRA:                  -1.134
REMARK UNBOUND:                -0.425
REMARK  Name = 
REMARK  7 active torsions:
REMARK  status: ('A' for Active; 'I' for Inactive)
REMARK    1  A    between atoms: C_1  and  C_2
REMARK    2  A    between atoms: C_7  and  C_8
REMARK    3  A    between atoms: C_13  and  C_14
REMARK    4  A    between atoms: C_14  and  C_15
REMARK    5  A    between atoms: C_15  and  N_16
REMARK    6  A    between atoms: C_20  and  C_21
REMARK    7  A    between atoms: C_21  and  O_23
REMARK                            x       y       z     vdW  Elec       q    Type
REMARK                         _______ _______ _______ _____ _____    ______ ____
ROOT
ATOM      1  C   UNL     1      49.871   5.106  17.514  0.00  0.00    +0.000 A 
ATOM      2  C   UNL     1      49.279   5.641  18.663  0.00  0.00    +0.000 A 
ATOM      3  C   UNL     1      48.627   6.872  18.593  0.00  0.00    +0.000 A 
ATOM      4  C   UNL     1      48.601   7.554  17.387  0.00  0.00    +0.000 A 
ATOM      5  F   UNL     1      47.983   8.740  17.309  0.00  0.00    +0.000 F 
ATOM      6  C   UNL     1      49.215   6.993  16.278  0.00  0.00    +0.000 A 
ATOM      7  N   UNL     1      49.833   5.783  16.336  0.00  0.00    +0.000 NA
ENDROOT
BRANCH   1  14
ATOM      8  C   UNL     1      48.442   2.547  16.639  0.00  0.00    +0.000 C 
ATOM      9  C   UNL     1      49.868   2.581  17.113  0.00  0.00    +0.000 A 
ATOM     10  N   UNL     1      50.471   1.354  17.133  0.00  0.00    +0.000 NA
ATOM     11  C   UNL     1      51.758   1.283  17.520  0.00  0.00    +0.000 A 
ATOM     12  C   UNL     1      52.499   2.384  17.885  0.00  0.00    +0.000 A 
ATOM     13  C   UNL     1      51.874   3.630  17.869  0.00  0.00    +0.000 A 
ATOM     14  C   UNL     1      50.523   3.773  17.486  0.00  0.00    +0.000 A 
ENDBRANCH   1  14
BRANCH   6  15
ATOM     15  C   UNL     1      49.254   7.721  14.957  0.00  0.00    +0.000 C 
BRANCH  15  16
ATOM     16  C   UNL     1      48.072   7.322  14.068  0.00  0.00    +0.000 C 
BRANCH  16  17
ATOM     17  N   UNL     1      47.659   5.930  14.327  0.00  0.00    +0.000 N 
ATOM     18  C   UNL     1      46.785   5.421  13.344  0.00  0.00    +0.000 A 
ATOM     19  C   UNL     1      46.308   4.115  13.477  0.00  0.00    +0.000 A 
ATOM     20  C   UNL     1      45.426   3.596  12.521  0.00  0.00    +0.000 A 
ATOM     21  C   UNL     1      45.045   4.395  11.446  0.00  0.00    +0.000 A 
ATOM     22  C   UNL     1      45.565   5.678  11.386  0.00  0.00    +0.000 A 
ATOM     23  N   UNL     1      46.427   6.189  12.299  0.00  0.00    +0.000 NA
ATOM     24  H   UNL     1      47.221   5.824  15.237  0.00  0.00    +0.000 HD
BRANCH  21  25
ATOM     25  C   UNL     1      44.083   3.991  10.398  0.00  0.00    +0.000 C 
ATOM     26  O   UNL     1      43.817   2.823  10.171  0.00  0.00    +0.000 OA
BRANCH  25  27
ATOM     27  O   UNL     1      43.513   5.016   9.733  0.00  0.00    +0.000 OA
ATOM     28  H   UNL     1      42.602   5.242   9.996  0.00  0.00    +0.000 HD
ENDBRANCH  25  27
ENDBRANCH  21  25
ENDBRANCH  16  17
ENDBRANCH  15  16
ENDBRANCH   6  15
TORSDOF 6
ENDMDL
MODEL 5
REMARK VINA RESULT:    -7.533      4.979      8.104
REMARK INTER + INTRA:         -10.380
REMARK INTER:                  -9.408
REMARK INTRA:                  -0.972
REMARK UNBOUND:                -0.425
REMARK  Name = 
REMARK  7 active torsions:
REMARK  status: ('A' for Active; 'I' for Inactive)
REMARK    1  A    between atoms: C_1  and  C_2
REMARK    2  A    between atoms: C_7  and  C_8
REMARK    3  A    between atoms: C_13  and  C_14
REMARK    4  A    between atoms: C_14  and  C_15
REMARK    5  A    between atoms: C_15  and  N_16
REMARK    6  A    between atoms: C_20  and  C_21
REMARK    7  A    between atoms: C_21  and  O_23
REMARK                            x       y       z     vdW  Elec       q    Type
REMARK                         _______ _______ _______ _____ _____    ______ ____
ROOT
ATOM      1  C   UNL     1      45.457   6.087  11.096  0.00  0.00    +0.000 A 
ATOM      2  C   UNL     1      44.576   7.152  11.313  0.00  0.00    +0.000 A 
ATOM      3  C   UNL     1      45.030   8.302  11.957  0.00  0.00    +0.000 A 
ATOM      4  C   UNL     1      46.345   8.358  12.390  0.00  0.00    +0.000 A 
ATOM      5  F   UNL     1      46.793   9.454  13.015  0.00  0.00    +0.000 F 
ATOM      6  C   UNL     1      47.179   7.272  12.167  0.00  0.00    +0.000 A 
ATOM      7  N   UNL     1      46.745   6.157  11.522  0.00  0.00    +0.000 NA
ENDROOT
BRANCH   1  14
ATOM      8  C   UNL     1      43.888   3.784  12.358  0.00  0.00    +0.000 C 
ATOM      9  C   UNL     1      44.376   3.775  10.936  0.00  0.00    +0.000 A 
ATOM     10  N   UNL     1      44.066   2.632  10.255  0.00  0.00    +0.000 NA
ATOM     11  C   UNL     1      44.439   2.537   8.965  0.00  0.00    +0.000 A 
ATOM     12  C   UNL     1      45.104   3.539   8.296  0.00  0.00    +0.000 A 
ATOM     13  C   UNL     1      45.422   4.699   9.001  0.00  0.00    +0.000 A 
ATOM     14  C   UNL     1      45.072   4.857  10.359  0.00  0.00    +0.000 A 
ENDBRANCH   1  14
BRANCH   6  15
ATOM     15  C   UNL     1      48.603   7.267  12.665  0.00  0.00    +0.000 C 
BRANCH  15  16
ATOM     16  C   UNL     1      48.662   7.050  14.179  0.00  0.00    +0.000 C 
BRANCH  16  17
ATOM     17  N   UNL     1      47.854   5.882  14.579  0.00  0.00    +0.000 N 
ATOM     18  C   UNL     1      48.084   5.482  15.912  0.00  0.00    +0.000 A 
ATOM     19  C   UNL     1      47.391   4.379  16.414  0.00  0.00    +0.000 A 
ATOM     20  C   UNL     1      47.615   3.955  17.730  0.00  0.00    +0.000 A 
ATOM     21  C   UNL     1      48.527   4.652  18.519  0.00  0.00    +0.000 A 
ATOM     22  C   UNL     1      49.170   5.737  17.948  0.00  0.00    +0.000 A 
ATOM     23  N   UNL     1      48.955   6.163  16.680  0.00  0.00    +0.000 NA
ATOM     24  H   UNL     1      48.010   5.084  13.971  0.00  0.00    +0.000 HD
BRANCH  21  25
ATOM     25  C   UNL     1      48.896   4.281  19.903  0.00  0.00    +0.000 C 
ATOM     26  O   UNL     1      49.653   4.956  20.580  0.00  0.00    +0.000 OA
BRANCH  25  27
ATOM     27  O   UNL     1      48.313   3.155  20.357  0.00  0.00    +0.000 OA
ATOM     28  H   UNL     1      47.832   3.232  21.201  0.00  0.00    +0.000 HD
ENDBRANCH  25  27
ENDBRANCH  21  25
ENDBRANCH  16  17
ENDBRANCH  15  16
ENDBRANCH   6  15
TORSDOF 6
ENDMDL
MODEL 6
REMARK VINA RESULT:    -7.432      4.208      7.415
REMARK INTER + INTRA:         -10.246
REMARK INTER:                  -9.137
REMARK INTRA:                  -1.110
REMARK UNBOUND:                -0.425
REMARK  Name = 
REMARK  7 active torsions:
REMARK  status: ('A' for Active; 'I' for Inactive)
REMARK    1  A    between atoms: C_1  and  C_2
REMARK    2  A    between atoms: C_7  and  C_8
REMARK    3  A    between atoms: C_13  and  C_14
REMARK    4  A    between atoms: C_14  and  C_15
REMARK    5  A    between atoms: C_15  and  N_16
REMARK    6  A    between atoms: C_20  and  C_21
REMARK    7  A    between atoms: C_21  and  O_23
REMARK                            x       y       z     vdW  Elec       q    Type
REMARK                         _______ _______ _______ _____ _____    ______ ____
ROOT
ATOM      1  C   UNL     1      45.740   6.922  11.380  0.00  0.00    +0.000 A 
ATOM      2  C   UNL     1      44.780   7.911  11.619  0.00  0.00    +0.000 A 
ATOM      3  C   UNL     1      45.187   9.184  12.020  0.00  0.00    +0.000 A 
ATOM      4  C   UNL     1      46.538   9.435  12.197  0.00  0.00    +0.000 A 
ATOM      5  F   UNL     1      46.941  10.651  12.588  0.00  0.00    +0.000 F 
ATOM      6  C   UNL     1      47.453   8.419  11.963  0.00  0.00    +0.000 A 
ATOM      7  N   UNL     1      47.062   7.184  11.552  0.00  0.00    +0.000 NA
ENDROOT
BRANCH   1  14
ATOM      8  C   UNL     1      44.756   4.664  13.193  0.00  0.00    +0.000 C 
ATOM      9  C   UNL     1      44.970   4.506  11.713  0.00  0.00    +0.000 A 
ATOM     10  N   UNL     1      44.698   3.251  11.247  0.00  0.00    +0.000 NA
ATOM     11  C   UNL     1      44.837   3.016   9.929  0.00  0.00    +0.000 A 
ATOM     12  C   UNL     1      45.226   3.980   9.027  0.00  0.00    +0.000 A 
ATOM     13  C   UNL     1      45.509   5.256   9.512  0.00  0.00    +0.000 A 
ATOM     14  C   UNL     1      45.396   5.565  10.885  0.00  0.00    +0.000 A 
ENDBRANCH   1  14
BRANCH   6  15
ATOM     15  C   UNL     1      48.929   8.633  12.189  0.00  0.00    +0.000 C 
BRANCH  15  16
ATOM     16  C   UNL     1      49.623   7.329  12.595  0.00  0.00    +0.000 C 
BRANCH  16  17
ATOM     17  N   UNL     1      50.134   7.407  13.976  0.00  0.00    +0.000 N 
ATOM     18  C   UNL     1      49.385   6.632  14.887  0.00  0.00    +0.000 A 
ATOM     19  C   UNL     1      49.756   6.628  16.232  0.00  0.00    +0.000 A 
ATOM     20  C   UNL     1      49.018   5.877  17.156  0.00  0.00    +0.000 A 
ATOM     21  C   UNL     1      47.924   5.140  16.709  0.00  0.00    +0.000 A 
ATOM     22  C   UNL     1      47.625   5.195  15.357  0.00  0.00    +0.000 A 
ATOM     23  N   UNL     1      48.337   5.909  14.452  0.00  0.00    +0.000 NA
ATOM     24  H   UNL     1      50.168   8.363  14.317  0.00  0.00    +0.000 HD
BRANCH  21  25
ATOM     25  C   UNL     1      47.030   4.349  17.582  0.00  0.00    +0.000 C 
ATOM     26  O   UNL     1      46.830   3.159  17.405  0.00  0.00    +0.000 OA
BRANCH  25  27
ATOM     27  O   UNL     1      46.475   5.043  18.594  0.00  0.00    +0.000 OA
ATOM     28  H   UNL     1      45.568   5.366  18.445  0.00  0.00    +0.000 HD
ENDBRANCH  25  27
ENDBRANCH  21  25
ENDBRANCH  16  17
ENDBRANCH  15  16
ENDBRANCH   6  15
TORSDOF 6
ENDMDL
MODEL 7
REMARK VINA RESULT:    -7.358      2.761      5.141
REMARK INTER + INTRA:         -10.148
REMARK INTER:                  -8.698
REMARK INTRA:                  -1.450
REMARK UNBOUND:                -0.425
REMARK  Name = 
REMARK  7 active torsions:
REMARK  status: ('A' for Active; 'I' for Inactive)
REMARK    1  A    between atoms: C_1  and  C_2
REMARK    2  A    between atoms: C_7  and  C_8
REMARK    3  A    between atoms: C_13  and  C_14
REMARK    4  A    between atoms: C_14  and  C_15
REMARK    5  A    between atoms: C_15  and  N_16
REMARK    6  A    between atoms: C_20  and  C_21
REMARK    7  A    between atoms: C_21  and  O_23
REMARK                            x       y       z     vdW  Elec       q    Type
REMARK                         _______ _______ _______ _____ _____    ______ ____
ROOT
ATOM      1  C   UNL     1      48.099   6.816  13.823  0.00  0.00    +0.000 A 
ATOM      2  C   UNL     1      49.294   6.979  13.114  0.00  0.00    +0.000 A 
ATOM      3  C   UNL     1      49.403   8.004  12.174  0.00  0.00    +0.000 A 
ATOM      4  C   UNL     1      48.312   8.828  11.945  0.00  0.00    +0.000 A 
ATOM      5  F   UNL     1      48.402   9.811  11.041  0.00  0.00    +0.000 F 
ATOM      6  C   UNL     1      47.143   8.618  12.660  0.00  0.00    +0.000 A 
ATOM      7  N   UNL     1      47.039   7.634  13.592  0.00  0.00    +0.000 NA
ENDROOT
BRANCH   1  14
ATOM      8  C   UNL     1      46.465   4.256  13.456  0.00  0.00    +0.000 C 
ATOM      9  C   UNL     1      47.149   4.627  14.742  0.00  0.00    +0.000 A 
ATOM     10  N   UNL     1      46.964   3.718  15.746  0.00  0.00    +0.000 NA
ATOM     11  C   UNL     1      47.557   3.948  16.932  0.00  0.00    +0.000 A 
ATOM     12  C   UNL     1      48.351   5.045  17.178  0.00  0.00    +0.000 A 
ATOM     13  C   UNL     1      48.529   5.970  16.151  0.00  0.00    +0.000 A 
ATOM     14  C   UNL     1      47.924   5.796  14.888  0.00  0.00    +0.000 A 
ENDBRANCH   1  14
BRANCH   6  15
ATOM     15  C   UNL     1      45.915   9.458  12.409  0.00  0.00    +0.000 C 
BRANCH  15  16
ATOM     16  C   UNL     1      45.058   8.867  11.285  0.00  0.00    +0.000 C 
BRANCH  16  17
ATOM     17  N   UNL     1      44.018   7.972  11.825  0.00  0.00    +0.000 N 
ATOM     18  C   UNL     1      44.141   6.643  11.368  0.00  0.00    +0.000 A 
ATOM     19  C   UNL     1      43.211   5.694  11.796  0.00  0.00    +0.000 A 
ATOM     20  C   UNL     1      43.305   4.373  11.341  0.00  0.00    +0.000 A 
ATOM     21  C   UNL     1      44.337   4.028  10.472  0.00  0.00    +0.000 A 
ATOM     22  C   UNL     1      45.220   5.027  10.098  0.00  0.00    +0.000 A 
ATOM     23  N   UNL     1      45.146   6.307  10.538  0.00  0.00    +0.000 NA
ATOM     24  H   UNL     1      43.082   8.302  11.612  0.00  0.00    +0.000 HD
BRANCH  21  25
ATOM     25  C   UNL     1      44.521   2.686   9.877  0.00  0.00    +0.000 C 
ATOM     26  O   UNL     1      45.303   2.478   8.964  0.00  0.00    +0.000 OA
BRANCH  25  27
ATOM     27  O   UNL     1      43.774   1.715  10.438  0.00  0.00    +0.000 OA
ATOM     28  H   UNL     1      44.173   0.826  10.456  0.00  0.00    +0.000 HD
ENDBRANCH  25  27
ENDBRANCH  21  25
ENDBRANCH  16  17
ENDBRANCH  15  16
ENDBRANCH   6  15
TORSDOF 6
ENDMDL
MODEL 8
REMARK VINA RESULT:    -6.976      4.861      7.606
REMARK INTER + INTRA:          -9.643
REMARK INTER:                  -8.163
REMARK INTRA:                  -1.480
REMARK UNBOUND:                -0.425
REMARK  Name = 
REMARK  7 active torsions:
REMARK  status: ('A' for Active; 'I' for Inactive)
REMARK    1  A    between atoms: C_1  and  C_2
REMARK    2  A    between atoms: C_7  and  C_8
REMARK    3  A    between atoms: C_13  and  C_14
REMARK    4  A    between atoms: C_14  and  C_15
REMARK    5  A    between atoms: C_15  and  N_16
REMARK    6  A    between atoms: C_20  and  C_21
REMARK    7  A    between atoms: C_21  and  O_23
REMARK                            x       y       z     vdW  Elec       q    Type
REMARK                         _______ _______ _______ _____ _____    ______ ____
ROOT
ATOM      1  C   UNL     1      47.774   7.033  13.258  0.00  0.00    +0.000 A 
ATOM      2  C   UNL     1      49.019   7.048  12.621  0.00  0.00    +0.000 A 
ATOM      3  C   UNL     1      50.078   7.754  13.193  0.00  0.00    +0.000 A 
ATOM      4  C   UNL     1      49.866   8.447  14.374  0.00  0.00    +0.000 A 
ATOM      5  F   UNL     1      50.872   9.133  14.931  0.00  0.00    +0.000 F 
ATOM      6  C   UNL     1      48.610   8.416  14.962  0.00  0.00    +0.000 A 
ATOM      7  N   UNL     1      47.581   7.713  14.419  0.00  0.00    +0.000 NA
ENDROOT
BRANCH   1  14
ATOM      8  C   UNL     1      47.030   4.254  14.299  0.00  0.00    +0.000 C 
ATOM      9  C   UNL     1      46.280   4.958  13.202  0.00  0.00    +0.000 A 
ATOM     10  N   UNL     1      45.235   4.236  12.697  0.00  0.00    +0.000 NA
ATOM     11  C   UNL     1      44.487   4.791  11.726  0.00  0.00    +0.000 A 
ATOM     12  C   UNL     1      44.712   6.054  11.228  0.00  0.00    +0.000 A 
ATOM     13  C   UNL     1      45.784   6.781  11.744  0.00  0.00    +0.000 A 
ATOM     14  C   UNL     1      46.617   6.252  12.753  0.00  0.00    +0.000 A 
ENDBRANCH   1  14
BRANCH   6  15
ATOM     15  C   UNL     1      48.320   9.195  16.221  0.00  0.00    +0.000 C 
BRANCH  15  16
ATOM     16  C   UNL     1      48.773   8.428  17.466  0.00  0.00    +0.000 C 
BRANCH  16  17
ATOM     17  N   UNL     1      47.826   7.347  17.798  0.00  0.00    +0.000 N 
ATOM     18  C   UNL     1      48.387   6.060  17.662  0.00  0.00    +0.000 A 
ATOM     19  C   UNL     1      47.591   4.946  17.934  0.00  0.00    +0.000 A 
ATOM     20  C   UNL     1      48.123   3.658  17.791  0.00  0.00    +0.000 A 
ATOM     21  C   UNL     1      49.448   3.515  17.384  0.00  0.00    +0.000 A 
ATOM     22  C   UNL     1      50.171   4.671  17.138  0.00  0.00    +0.000 A 
ATOM     23  N   UNL     1      49.670   5.922  17.282  0.00  0.00    +0.000 NA
ATOM     24  H   UNL     1      46.982   7.393  17.234  0.00  0.00    +0.000 HD
BRANCH  21  25
ATOM     25  C   UNL     1      50.117   2.218  17.144  0.00  0.00    +0.000 C 
ATOM     26  O   UNL     1      49.876   1.530  16.166  0.00  0.00    +0.000 OA
BRANCH  25  27
ATOM     27  O   UNL     1      51.023   1.872  18.079  0.00  0.00    +0.000 OA
ATOM     28  H   UNL     1      51.689   1.213  17.806  0.00  0.00    +0.000 HD
ENDBRANCH  25  27
ENDBRANCH  21  25
ENDBRANCH  16  17
ENDBRANCH  15  16
ENDBRANCH   6  15
TORSDOF 6
ENDMDL
MODEL 9
REMARK VINA RESULT:    -6.531      5.495      7.760
REMARK INTER + INTRA:          -9.056
REMARK INTER:                  -8.149
REMARK INTRA:                  -0.907
REMARK UNBOUND:                -0.425
REMARK  Name = 
REMARK  7 active torsions:
REMARK  status: ('A' for Active; 'I' for Inactive)
REMARK    1  A    between atoms: C_1  and  C_2
REMARK    2  A    between atoms: C_7  and  C_8
REMARK    3  A    between atoms: C_13  and  C_14
REMARK    4  A    between atoms: C_14  and  C_15
REMARK    5  A    between atoms: C_15  and  N_16
REMARK    6  A    between atoms: C_20  and  C_21
REMARK    7  A    between atoms: C_21  and  O_23
REMARK                            x       y       z     vdW  Elec       q    Type
REMARK                         _______ _______ _______ _____ _____    ______ ____
ROOT
ATOM      1  C   UNL     1      50.025   5.046  17.834  0.00  0.00    +0.000 A 
ATOM      2  C   UNL     1      49.181   5.363  18.903  0.00  0.00    +0.000 A 
ATOM      3  C   UNL     1      48.431   6.538  18.864  0.00  0.00    +0.000 A 
ATOM      4  C   UNL     1      48.556   7.382  17.772  0.00  0.00    +0.000 A 
ATOM      5  F   UNL     1      47.846   8.516  17.726  0.00  0.00    +0.000 F 
ATOM      6  C   UNL     1      49.418   7.035  16.743  0.00  0.00    +0.000 A 
ATOM      7  N   UNL     1      50.135   5.880  16.767  0.00  0.00    +0.000 NA
ENDROOT
BRANCH   1  14
ATOM      8  C   UNL     1      52.932   4.804  18.756  0.00  0.00    +0.000 C 
ATOM      9  C   UNL     1      52.153   3.665  18.159  0.00  0.00    +0.000 A 
ATOM     10  N   UNL     1      52.869   2.506  18.050  0.00  0.00    +0.000 NA
ATOM     11  C   UNL     1      52.251   1.420  17.549  0.00  0.00    +0.000 A 
ATOM     12  C   UNL     1      50.933   1.417  17.153  0.00  0.00    +0.000 A 
ATOM     13  C   UNL     1      50.213   2.606  17.261  0.00  0.00    +0.000 A 
ATOM     14  C   UNL     1      50.804   3.784  17.765  0.00  0.00    +0.000 A 
ENDBRANCH   1  14
BRANCH   6  15
ATOM     15  C   UNL     1      49.623   7.946  15.558  0.00  0.00    +0.000 C 
BRANCH  15  16
ATOM     16  C   UNL     1      49.472   7.184  14.238  0.00  0.00    +0.000 C 
BRANCH  16  17
ATOM     17  N   UNL     1      48.284   7.642  13.494  0.00  0.00    +0.000 N 
ATOM     18  C   UNL     1      47.366   6.605  13.226  0.00  0.00    +0.000 A 
ATOM     19  C   UNL     1      46.202   6.902  12.516  0.00  0.00    +0.000 A 
ATOM     20  C   UNL     1      45.285   5.884  12.225  0.00  0.00    +0.000 A 
ATOM     21  C   UNL     1      45.552   4.588  12.659  0.00  0.00    +0.000 A 
ATOM     22  C   UNL     1      46.727   4.378  13.361  0.00  0.00    +0.000 A 
ATOM     23  N   UNL     1      47.618   5.355  13.657  0.00  0.00    +0.000 NA
ATOM     24  H   UNL     1      48.532   8.090  12.617  0.00  0.00    +0.000 HD
BRANCH  21  25
ATOM     25  C   UNL     1      44.697   3.415  12.376  0.00  0.00    +0.000 C 
ATOM     26  O   UNL     1      43.704   3.156  13.035  0.00  0.00    +0.000 OA
BRANCH  25  27
ATOM     27  O   UNL     1      45.093   2.672  11.325  0.00  0.00    +0.000 OA
ATOM     28  H   UNL     1      44.604   1.841  11.179  0.00  0.00    +0.000 HD
ENDBRANCH  25  27
ENDBRANCH  21  25
ENDBRANCH  16  17
ENDBRANCH  15  16
ENDBRANCH   6  15
TORSDOF 6
ENDMDL
