MODEL 1
REMARK VINA RESULT:    -7.750      0.000      0.000
REMARK INTER + INTRA:          -9.480
REMARK INTER:                  -9.109
REMARK INTRA:                  -0.370
REMARK UNBOUND:                -0.370
REMARK  Name = 
REMARK  3 active torsions:
REMARK  status: ('A' for Active; 'I' for Inactive)
REMARK    1  A    between atoms: C_5  and  N_6
REMARK    2  A    between atoms: N_6  and  C_7
REMARK    3  A    between atoms: C_7  and  C_8
REMARK                            x       y       z     vdW  Elec       q    Type
REMARK                         _______ _______ _______ _____ _____    ______ ____
ROOT
ATOM      1  C   UNL     1      44.663   3.600  10.527  0.00  0.00    +0.000 C 
ATOM      2  C   UNL     1      43.712   4.746  10.130  0.00  0.00    +0.000 C 
ATOM      3  C   UNL     1      43.960   5.984  10.980  0.00  0.00    +0.000 C 
ATOM      4  C   UNL     1      43.789   5.653  12.453  0.00  0.00    +0.000 C 
ATOM      5  N   UNL     1      44.659   4.544  12.852  0.00  0.00    +0.000 N 
ATOM      6  C   UNL     1      45.882   4.913  13.415  0.00  0.00    +0.000 A 
ATOM      7  C   UNL     1      46.478   4.093  14.358  0.00  0.00    +0.000 A 
ATOM      8  C   UNL     1      47.600   4.576  14.998  0.00  0.00    +0.000 A 
ATOM      9  N   UNL     1      48.152   5.770  14.733  0.00  0.00    +0.000 NA
ATOM     10  C   UNL     1      47.516   6.486  13.798  0.00  0.00    +0.000 A 
ATOM     11  N   UNL     1      46.408   6.121  13.136  0.00  0.00    +0.000 NA
ATOM     12  C   UNL     1      44.566   3.313  12.045  0.00  0.00    +0.000 C 
ENDROOT
BRANCH   1  13
ATOM     13  C   UNL     1      44.364   2.337   9.675  0.00  0.00    +0.000 C 
BRANCH  13  14
ATOM     14  N   UNL     1      45.625   1.768   9.198  0.00  0.00    +0.000 N 
ATOM     15  H   UNL     1      45.831   0.839   9.551  0.00  0.00    +0.000 HD
BRANCH  14  20
ATOM     16  C   UNL     1      46.729   3.389   6.024  0.00  0.00    +0.000 A 
ATOM     17  C   UNL     1      47.652   2.436   5.626  0.00  0.00    +0.000 A 
ATOM     18  N   UNL     1      47.900   1.313   6.323  0.00  0.00    +0.000 NA
ATOM     19  C   UNL     1      47.187   1.151   7.468  0.00  0.00    +0.000 A 
ATOM     20  C   UNL     1      46.213   2.030   7.966  0.00  0.00    +0.000 A 
ATOM     21  C   UNL     1      46.016   3.183   7.212  0.00  0.00    +0.000 A 
ENDBRANCH  14  20
ENDBRANCH  13  14
ENDBRANCH   1  13
TORSDOF 3
ENDMDL
MODEL 2
REMARK VINA RESULT:    -7.363      1.180      1.323
REMARK INTER + INTRA:          -9.025
REMARK INTER:                  -8.735
REMARK INTRA:                  -0.290
REMARK UNBOUND:                -0.370
REMARK  Name = 
REMARK  3 active torsions:
REMARK  status: ('A' for Active; 'I' for Inactive)
REMARK    1  A    between atoms: C_5  and  N_6
REMARK    2  A    between atoms: N_6  and  C_7
REMARK    3  A    between atoms: C_7  and  C_8
REMARK                            x       y       z     vdW  Elec       q    Type
REMARK                         _______ _______ _______ _____ _____    ______ ____
ROOT
ATOM      1  C   UNL     1      44.478   3.862  10.820  0.00  0.00    +0.000 C 
ATOM      2  C   UNL     1      43.008   4.270  11.045  0.00  0.00    +0.000 C 
ATOM      3  C   UNL     1      42.911   5.509  11.922  0.00  0.00    +0.000 C 
ATOM      4  C   UNL     1      43.592   5.262  13.259  0.00  0.00    +0.000 C 
ATOM      5  N   UNL     1      44.983   4.841  13.075  0.00  0.00    +0.000 N 
ATOM      6  C   UNL     1      45.933   5.860  13.153  0.00  0.00    +0.000 A 
ATOM      7  C   UNL     1      47.206   5.577  13.618  0.00  0.00    +0.000 A 
ATOM      8  C   UNL     1      48.056   6.642  13.825  0.00  0.00    +0.000 A 
ATOM      9  N   UNL     1      47.726   7.918  13.571  0.00  0.00    +0.000 NA
ATOM     10  C   UNL     1      46.482   8.094  13.111  0.00  0.00    +0.000 A 
ATOM     11  N   UNL     1      45.571   7.132  12.899  0.00  0.00    +0.000 NA
ATOM     12  C   UNL     1      45.209   3.695  12.174  0.00  0.00    +0.000 C 
ENDROOT
BRANCH   1  13
ATOM     13  C   UNL     1      44.550   2.574   9.956  0.00  0.00    +0.000 C 
BRANCH  13  14
ATOM     14  N   UNL     1      44.635   2.946   8.543  0.00  0.00    +0.000 N 
ATOM     15  H   UNL     1      44.195   3.830   8.312  0.00  0.00    +0.000 HD
BRANCH  14  20
ATOM     16  C   UNL     1      47.222   2.986   5.855  0.00  0.00    +0.000 A 
ATOM     17  C   UNL     1      47.892   1.827   6.209  0.00  0.00    +0.000 A 
ATOM     18  N   UNL     1      47.527   1.050   7.244  0.00  0.00    +0.000 NA
ATOM     19  C   UNL     1      46.442   1.466   7.949  0.00  0.00    +0.000 A 
ATOM     20  C   UNL     1      45.669   2.605   7.680  0.00  0.00    +0.000 A 
ATOM     21  C   UNL     1      46.109   3.379   6.610  0.00  0.00    +0.000 A 
ENDBRANCH  14  20
ENDBRANCH  13  14
ENDBRANCH   1  13
TORSDOF 3
ENDMDL
MODEL 3
REMARK VINA RESULT:    -6.982      1.263      6.957
REMARK INTER + INTRA:          -8.577
REMARK INTER:                  -8.220
REMARK INTRA:                  -0.356
REMARK UNBOUND:                -0.370
REMARK  Name = 
REMARK  3 active torsions:
REMARK  status: ('A' for Active; 'I' for Inactive)
REMARK    1  A    between atoms: C_5  and  N_6
REMARK    2  A    between atoms: N_6  and  C_7
REMARK    3  A    between atoms: C_7  and  C_8
REMARK                            x       y       z     vdW  Elec       q    Type
REMARK                         _______ _______ _______ _____ _____    ______ ____
ROOT
ATOM      1  C   UNL     1      45.655   4.938  10.713  0.00  0.00    +0.000 C 
ATOM      2  C   UNL     1      44.403   4.234  11.274  0.00  0.00    +0.000 C 
ATOM      3  C   UNL     1      44.147   2.917  10.555  0.00  0.00    +0.000 C 
ATOM      4  C   UNL     1      43.986   3.155   9.063  0.00  0.00    +0.000 C 
ATOM      5  N   UNL     1      45.149   3.852   8.508  0.00  0.00    +0.000 N 
ATOM      6  C   UNL     1      46.124   3.034   7.938  0.00  0.00    +0.000 A 
ATOM      7  C   UNL     1      46.890   3.509   6.886  0.00  0.00    +0.000 A 
ATOM      8  C   UNL     1      47.726   2.612   6.257  0.00  0.00    +0.000 A 
ATOM      9  N   UNL     1      47.856   1.329   6.628  0.00  0.00    +0.000 NA
ATOM     10  C   UNL     1      47.089   0.963   7.661  0.00  0.00    +0.000 A 
ATOM     11  N   UNL     1      46.227   1.748   8.325  0.00  0.00    +0.000 NA
ATOM     12  C   UNL     1      45.545   5.105   9.179  0.00  0.00    +0.000 C 
ENDROOT
BRANCH   1  13
ATOM     13  C   UNL     1      45.872   6.297  11.434  0.00  0.00    +0.000 C 
BRANCH  13  14
ATOM     14  N   UNL     1      47.163   6.275  12.122  0.00  0.00    +0.000 N 
ATOM     15  H   UNL     1      47.823   6.979  11.806  0.00  0.00    +0.000 HD
BRANCH  14  20
ATOM     16  C   UNL     1      47.148   4.403  15.349  0.00  0.00    +0.000 A 
ATOM     17  C   UNL     1      48.080   5.171  16.027  0.00  0.00    +0.000 A 
ATOM     18  N   UNL     1      48.674   6.253  15.493  0.00  0.00    +0.000 NA
ATOM     19  C   UNL     1      48.311   6.566  14.222  0.00  0.00    +0.000 A 
ATOM     20  C   UNL     1      47.369   5.883  13.439  0.00  0.00    +0.000 A 
ATOM     21  C   UNL     1      46.804   4.761  14.040  0.00  0.00    +0.000 A 
ENDBRANCH  14  20
ENDBRANCH  13  14
ENDBRANCH   1  13
TORSDOF 3
ENDMDL
MODEL 4
REMARK VINA RESULT:    -6.782      2.760      7.022
REMARK INTER + INTRA:          -8.342
REMARK INTER:                  -7.999
REMARK INTRA:                  -0.343
REMARK UNBOUND:                -0.370
REMARK  Name = 
REMARK  3 active torsions:
REMARK  status: ('A' for Active; 'I' for Inactive)
REMARK    1  A    between atoms: C_5  and  N_6
REMARK    2  A    between atoms: N_6  and  C_7
REMARK    3  A    between atoms: C_7  and  C_8
REMARK                            x       y       z     vdW  Elec       q    Type
REMARK                         _______ _______ _______ _____ _____    ______ ____
ROOT
ATOM      1  C   UNL     1      45.548   5.232  12.179  0.00  0.00    +0.000 C 
ATOM      2  C   UNL     1      44.389   4.532  12.919  0.00  0.00    +0.000 C 
ATOM      3  C   UNL     1      43.877   3.336  12.128  0.00  0.00    +0.000 C 
ATOM      4  C   UNL     1      43.422   3.776  10.746  0.00  0.00    +0.000 C 
ATOM      5  N   UNL     1      44.494   4.473  10.032  0.00  0.00    +0.000 N 
ATOM      6  C   UNL     1      45.253   3.682   9.169  0.00  0.00    +0.000 A 
ATOM      7  C   UNL     1      45.814   4.246   8.036  0.00  0.00    +0.000 A 
ATOM      8  C   UNL     1      46.419   3.394   7.137  0.00  0.00    +0.000 A 
ATOM      9  N   UNL     1      46.518   2.068   7.320  0.00  0.00    +0.000 NA
ATOM     10  C   UNL     1      45.960   1.615   8.449  0.00  0.00    +0.000 A 
ATOM     11  N   UNL     1      45.328   2.353   9.374  0.00  0.00    +0.000 NA
ATOM     12  C   UNL     1      45.127   5.604  10.737  0.00  0.00    +0.000 C 
ENDROOT
BRANCH   1  13
ATOM     13  C   UNL     1      46.026   6.470  12.985  0.00  0.00    +0.000 C 
BRANCH  13  14
ATOM     14  N   UNL     1      45.120   7.591  12.729  0.00  0.00    +0.000 N 
ATOM     15  H   UNL     1      44.228   7.531  13.208  0.00  0.00    +0.000 HD
BRANCH  14  20
ATOM     16  C   UNL     1      47.101  10.642  11.902  0.00  0.00    +0.000 A 
ATOM     17  C   UNL     1      46.045  11.515  11.704  0.00  0.00    +0.000 A 
ATOM     18  N   UNL     1      44.756  11.160  11.849  0.00  0.00    +0.000 NA
ATOM     19  C   UNL     1      44.530   9.868  12.204  0.00  0.00    +0.000 A 
ATOM     20  C   UNL     1      45.510   8.895  12.452  0.00  0.00    +0.000 A 
ATOM     21  C   UNL     1      46.823   9.318  12.267  0.00  0.00    +0.000 A 
ENDBRANCH  14  20
ENDBRANCH  13  14
ENDBRANCH   1  13
TORSDOF 3
ENDMDL
MODEL 5
REMARK VINA RESULT:    -6.664      1.570      7.133
REMARK INTER + INTRA:          -8.203
REMARK INTER:                  -7.836
REMARK INTRA:                  -0.367
REMARK UNBOUND:                -0.370
REMARK  Name = 
REMARK  3 active torsions:
REMARK  status: ('A' for Active; 'I' for Inactive)
REMARK    1  A    between atoms: C_5  and  N_6
REMARK    2  A    between atoms: N_6  and  C_7
REMARK    3  A    between atoms: C_7  and  C_8
REMARK                            x       y       z     vdW  Elec       q    Type
REMARK                         _______ _______ _______ _____ _____    ______ ____
ROOT
ATOM      1  C   UNL     1      45.685   5.402  12.333  0.00  0.00    +0.000 C 
ATOM      2  C   UNL     1      44.435   4.861  13.055  0.00  0.00    +0.000 C 
ATOM      3  C   UNL     1      43.782   3.742  12.258  0.00  0.00    +0.000 C 
ATOM      4  C   UNL     1      43.407   4.235  10.870  0.00  0.00    +0.000 C 
ATOM      5  N   UNL     1      44.571   4.784  10.170  0.00  0.00    +0.000 N 
ATOM      6  C   UNL     1      45.232   3.899   9.318  0.00  0.00    +0.000 A 
ATOM      7  C   UNL     1      45.878   4.383   8.193  0.00  0.00    +0.000 A 
ATOM      8  C   UNL     1      46.378   3.457   7.303  0.00  0.00    +0.000 A 
ATOM      9  N   UNL     1      46.300   2.130   7.486  0.00  0.00    +0.000 NA
ATOM     10  C   UNL     1      45.672   1.755   8.607  0.00  0.00    +0.000 A 
ATOM     11  N   UNL     1      45.129   2.572   9.523  0.00  0.00    +0.000 NA
ATOM     12  C   UNL     1      45.337   5.823  10.885  0.00  0.00    +0.000 C 
ENDROOT
BRANCH   1  13
ATOM     13  C   UNL     1      46.311   6.568  13.145  0.00  0.00    +0.000 C 
BRANCH  13  14
ATOM     14  N   UNL     1      47.581   6.126  13.721  0.00  0.00    +0.000 N 
ATOM     15  H   UNL     1      48.393   6.645  13.403  0.00  0.00    +0.000 HD
BRANCH  14  20
ATOM     16  C   UNL     1      47.479   3.861  16.684  0.00  0.00    +0.000 A 
ATOM     17  C   UNL     1      48.372   4.549  17.489  0.00  0.00    +0.000 A 
ATOM     18  N   UNL     1      48.968   5.696  17.118  0.00  0.00    +0.000 NA
ATOM     19  C   UNL     1      48.647   6.163  15.883  0.00  0.00    +0.000 A 
ATOM     20  C   UNL     1      47.745   5.573  14.985  0.00  0.00    +0.000 A 
ATOM     21  C   UNL     1      47.177   4.377  15.417  0.00  0.00    +0.000 A 
ENDBRANCH  14  20
ENDBRANCH  13  14
ENDBRANCH   1  13
TORSDOF 3
ENDMDL
MODEL 6
REMARK VINA RESULT:    -6.616      1.986      2.650
REMARK INTER + INTRA:          -8.146
REMARK INTER:                  -7.791
REMARK INTRA:                  -0.356
REMARK UNBOUND:                -0.370
REMARK  Name = 
REMARK  3 active torsions:
REMARK  status: ('A' for Active; 'I' for Inactive)
REMARK    1  A    between atoms: C_5  and  N_6
REMARK    2  A    between atoms: N_6  and  C_7
REMARK    3  A    between atoms: C_7  and  C_8
REMARK                            x       y       z     vdW  Elec       q    Type
REMARK                         _______ _______ _______ _____ _____    ______ ____
ROOT
ATOM      1  C   UNL     1      45.386   5.380  11.223  0.00  0.00    +0.000 C 
ATOM      2  C   UNL     1      44.216   6.378  11.114  0.00  0.00    +0.000 C 
ATOM      3  C   UNL     1      44.676   7.797  11.417  0.00  0.00    +0.000 C 
ATOM      4  C   UNL     1      45.289   7.866  12.806  0.00  0.00    +0.000 C 
ATOM      5  N   UNL     1      46.385   6.904  12.949  0.00  0.00    +0.000 N 
ATOM      6  C   UNL     1      47.664   7.412  12.719  0.00  0.00    +0.000 A 
ATOM      7  C   UNL     1      48.748   6.871  13.389  0.00  0.00    +0.000 A 
ATOM      8  C   UNL     1      49.962   7.509  13.246  0.00  0.00    +0.000 A 
ATOM      9  N   UNL     1      50.148   8.593  12.477  0.00  0.00    +0.000 NA
ATOM     10  C   UNL     1      49.048   9.036  11.857  0.00  0.00    +0.000 A 
ATOM     11  N   UNL     1      47.818   8.505  11.947  0.00  0.00    +0.000 NA
ATOM     12  C   UNL     1      46.079   5.503  12.602  0.00  0.00    +0.000 C 
ENDROOT
BRANCH   1  13
ATOM     13  C   UNL     1      44.885   3.936  10.949  0.00  0.00    +0.000 C 
BRANCH  13  14
ATOM     14  N   UNL     1      44.609   3.785   9.520  0.00  0.00    +0.000 N 
ATOM     15  H   UNL     1      44.084   4.550   9.108  0.00  0.00    +0.000 HD
BRANCH  14  20
ATOM     16  C   UNL     1      47.017   2.978   6.788  0.00  0.00    +0.000 A 
ATOM     17  C   UNL     1      47.136   1.619   7.025  0.00  0.00    +0.000 A 
ATOM     18  N   UNL     1      46.464   0.978   7.997  0.00  0.00    +0.000 NA
ATOM     19  C   UNL     1      45.642   1.745   8.760  0.00  0.00    +0.000 A 
ATOM     20  C   UNL     1      45.419   3.121   8.608  0.00  0.00    +0.000 A 
ATOM     21  C   UNL     1      46.159   3.732   7.598  0.00  0.00    +0.000 A 
ENDBRANCH  14  20
ENDBRANCH  13  14
ENDBRANCH   1  13
TORSDOF 3
ENDMDL
MODEL 7
REMARK VINA RESULT:    -6.516      2.002      6.586
REMARK INTER + INTRA:          -8.029
REMARK INTER:                  -7.691
REMARK INTRA:                  -0.337
REMARK UNBOUND:                -0.370
REMARK  Name = 
REMARK  3 active torsions:
REMARK  status: ('A' for Active; 'I' for Inactive)
REMARK    1  A    between atoms: C_5  and  N_6
REMARK    2  A    between atoms: N_6  and  C_7
REMARK    3  A    between atoms: C_7  and  C_8
REMARK                            x       y       z     vdW  Elec       q    Type
REMARK                         _______ _______ _______ _____ _____    ______ ____
ROOT
ATOM      1  C   UNL     1      45.603   5.137  12.121  0.00  0.00    +0.000 C 
ATOM      2  C   UNL     1      44.437   4.435  12.846  0.00  0.00    +0.000 C 
ATOM      3  C   UNL     1      43.923   3.252  12.039  0.00  0.00    +0.000 C 
ATOM      4  C   UNL     1      43.477   3.710  10.660  0.00  0.00    +0.000 C 
ATOM      5  N   UNL     1      44.557   4.409   9.959  0.00  0.00    +0.000 N 
ATOM      6  C   UNL     1      45.316   3.624   9.091  0.00  0.00    +0.000 A 
ATOM      7  C   UNL     1      45.886   4.198   7.967  0.00  0.00    +0.000 A 
ATOM      8  C   UNL     1      46.491   3.352   7.062  0.00  0.00    +0.000 A 
ATOM      9  N   UNL     1      46.581   2.023   7.230  0.00  0.00    +0.000 NA
ATOM     10  C   UNL     1      46.015   1.560   8.351  0.00  0.00    +0.000 A 
ATOM     11  N   UNL     1      45.382   2.292   9.281  0.00  0.00    +0.000 NA
ATOM     12  C   UNL     1      45.192   5.528  10.681  0.00  0.00    +0.000 C 
ENDROOT
BRANCH   1  13
ATOM     13  C   UNL     1      46.085   6.363  12.943  0.00  0.00    +0.000 C 
BRANCH  13  14
ATOM     14  N   UNL     1      47.434   6.105  13.447  0.00  0.00    +0.000 N 
ATOM     15  H   UNL     1      47.635   5.129  13.636  0.00  0.00    +0.000 HD
BRANCH  14  20
ATOM     16  C   UNL     1      49.994   8.179  11.698  0.00  0.00    +0.000 A 
ATOM     17  C   UNL     1      50.782   8.486  12.795  0.00  0.00    +0.000 A 
ATOM     18  N   UNL     1      50.526   8.037  14.036  0.00  0.00    +0.000 NA
ATOM     19  C   UNL     1      49.428   7.248  14.171  0.00  0.00    +0.000 A 
ATOM     20  C   UNL     1      48.566   6.849  13.140  0.00  0.00    +0.000 A 
ATOM     21  C   UNL     1      48.871   7.363  11.882  0.00  0.00    +0.000 A 
ENDBRANCH  14  20
ENDBRANCH  13  14
ENDBRANCH   1  13
TORSDOF 3
ENDMDL
MODEL 8
REMARK VINA RESULT:    -6.027      3.411      7.356
REMARK INTER + INTRA:          -7.455
REMARK INTER:                  -7.123
REMARK INTRA:                  -0.332
REMARK UNBOUND:                -0.370
REMARK  Name = 
REMARK  3 active torsions:
REMARK  status: ('A' for Active; 'I' for Inactive)
REMARK    1  A    between atoms: C_5  and  N_6
REMARK    2  A    between atoms: N_6  and  C_7
REMARK    3  A    between atoms: C_7  and  C_8
REMARK                            x       y       z     vdW  Elec       q    Type
REMARK                         _______ _______ _______ _____ _____    ______ ____
ROOT
ATOM      1  C   UNL     1      47.246   6.921  13.800  0.00  0.00    +0.000 C 
ATOM      2  C   UNL     1      46.870   8.408  13.640  0.00  0.00    +0.000 C 
ATOM      3  C   UNL     1      45.566   8.564  12.871  0.00  0.00    +0.000 C 
ATOM      4  C   UNL     1      45.679   7.907  11.505  0.00  0.00    +0.000 C 
ATOM      5  N   UNL     1      46.067   6.499  11.625  0.00  0.00    +0.000 N 
ATOM      6  C   UNL     1      45.015   5.583  11.613  0.00  0.00    +0.000 A 
ATOM      7  C   UNL     1      45.216   4.313  11.100  0.00  0.00    +0.000 A 
ATOM      8  C   UNL     1      44.110   3.502  10.966  0.00  0.00    +0.000 A 
ATOM      9  N   UNL     1      42.871   3.866  11.332  0.00  0.00    +0.000 NA
ATOM     10  C   UNL     1      42.775   5.104  11.831  0.00  0.00    +0.000 A 
ATOM     11  N   UNL     1      43.781   5.979  11.980  0.00  0.00    +0.000 NA
ATOM     12  C   UNL     1      47.276   6.216  12.422  0.00  0.00    +0.000 C 
ENDROOT
BRANCH   1  13
ATOM     13  C   UNL     1      48.599   6.789  14.551  0.00  0.00    +0.000 C 
BRANCH  13  14
ATOM     14  N   UNL     1      48.339   6.510  15.964  0.00  0.00    +0.000 N 
ATOM     15  H   UNL     1      47.750   7.193  16.429  0.00  0.00    +0.000 HD
BRANCH  14  20
ATOM     16  C   UNL     1      49.067   3.411  17.910  0.00  0.00    +0.000 A 
ATOM     17  C   UNL     1      47.839   2.790  17.759  0.00  0.00    +0.000 A 
ATOM     18  N   UNL     1      46.826   3.319  17.050  0.00  0.00    +0.000 NA
ATOM     19  C   UNL     1      47.067   4.527  16.475  0.00  0.00    +0.000 A 
ATOM     20  C   UNL     1      48.270   5.245  16.537  0.00  0.00    +0.000 A 
ATOM     21  C   UNL     1      49.273   4.656  17.301  0.00  0.00    +0.000 A 
ENDBRANCH  14  20
ENDBRANCH  13  14
ENDBRANCH   1  13
TORSDOF 3
ENDMDL
MODEL 9
REMARK VINA RESULT:    -5.619      3.473      5.595
REMARK INTER + INTRA:          -6.975
REMARK INTER:                  -6.512
REMARK INTRA:                  -0.463
REMARK UNBOUND:                -0.370
REMARK  Name = 
REMARK  3 active torsions:
REMARK  status: ('A' for Active; 'I' for Inactive)
REMARK    1  A    between atoms: C_5  and  N_6
REMARK    2  A    between atoms: N_6  and  C_7
REMARK    3  A    between atoms: C_7  and  C_8
REMARK                            x       y       z     vdW  Elec       q    Type
REMARK                         _______ _______ _______ _____ _____    ______ ____
ROOT
ATOM      1  C   UNL     1      46.722   7.386  12.969  0.00  0.00    +0.000 C 
ATOM      2  C   UNL     1      47.673   7.123  11.784  0.00  0.00    +0.000 C 
ATOM      3  C   UNL     1      49.095   6.876  12.266  0.00  0.00    +0.000 C 
ATOM      4  C   UNL     1      49.590   8.064  13.075  0.00  0.00    +0.000 C 
ATOM      5  N   UNL     1      48.687   8.357  14.192  0.00  0.00    +0.000 N 
ATOM      6  C   UNL     1      49.045   7.793  15.417  0.00  0.00    +0.000 A 
ATOM      7  C   UNL     1      48.713   8.442  16.594  0.00  0.00    +0.000 A 
ATOM      8  C   UNL     1      49.224   7.927  17.766  0.00  0.00    +0.000 A 
ATOM      9  N   UNL     1      49.991   6.827  17.824  0.00  0.00    +0.000 NA
ATOM     10  C   UNL     1      50.248   6.260  16.640  0.00  0.00    +0.000 A 
ATOM     11  N   UNL     1      49.821   6.693  15.444  0.00  0.00    +0.000 NA
ATOM     12  C   UNL     1      47.262   8.535  13.855  0.00  0.00    +0.000 C 
ENDROOT
BRANCH   1  13
ATOM     13  C   UNL     1      45.287   7.674  12.451  0.00  0.00    +0.000 C 
BRANCH  13  14
ATOM     14  N   UNL     1      44.383   6.628  12.930  0.00  0.00    +0.000 N 
ATOM     15  H   UNL     1      43.578   6.968  13.445  0.00  0.00    +0.000 HD
BRANCH  14  20
ATOM     16  C   UNL     1      44.257   3.835  10.460  0.00  0.00    +0.000 A 
ATOM     17  C   UNL     1      43.823   2.836  11.314  0.00  0.00    +0.000 A 
ATOM     18  N   UNL     1      43.558   3.041  12.616  0.00  0.00    +0.000 NA
ATOM     19  C   UNL     1      43.744   4.308  13.070  0.00  0.00    +0.000 A 
ATOM     20  C   UNL     1      44.159   5.408  12.304  0.00  0.00    +0.000 A 
ATOM     21  C   UNL     1      44.436   5.128  10.969  0.00  0.00    +0.000 A 
ENDBRANCH  14  20
ENDBRANCH  13  14
ENDBRANCH   1  13
TORSDOF 3
ENDMDL
