MODEL 1
REMARK VINA RESULT:    -7.886      0.000      0.000
REMARK INTER + INTRA:         -11.862
REMARK INTER:                 -11.113
REMARK INTRA:                  -0.749
REMARK UNBOUND:                -0.749
REMARK  Name = 
REMARK  9 active torsions:
REMARK  status: ('A' for Active; 'I' for Inactive)
REMARK    1  A    between atoms: C_1  and  C_2
REMARK    2  A    between atoms: C_2  and  C_3
REMARK    3  A    between atoms: C_2  and  C_4
REMARK    4  A    between atoms: C_2  and  C_15
REMARK    5  A    between atoms: C_4  and  N_5
REMARK    6  A    between atoms: N_5  and  C_6
REMARK    7  A    between atoms: C_10  and  C_11
REMARK    8  A    between atoms: C_19  and  O_20
REMARK    9  A    between atoms: O_20  and  C_21
REMARK                            x       y       z     vdW  Elec       q    Type
REMARK                         _______ _______ _______ _____ _____    ______ ____
ROOT
ATOM      1  C   UNL     1      44.558   7.920  11.335  0.00  0.00    +0.000 C 
ATOM      2  C   UNL     1      44.891   6.419  11.490  0.00  0.00    +0.000 C 
ATOM      3  C   UNL     1      43.595   5.663  11.866  0.00  0.00    +0.000 C 
ENDROOT
BRANCH   2   4
ATOM      4  C   UNL     1      45.996   6.263  12.553  0.00  0.00    +0.000 A 
ATOM      5  C   UNL     1      46.848   7.296  12.941  0.00  0.00    +0.000 A 
ATOM      6  N   UNL     1      47.806   7.188  13.894  0.00  0.00    +0.000 NA
ATOM      7  C   UNL     1      47.909   5.994  14.523  0.00  0.00    +0.000 A 
ATOM      8  C   UNL     1      47.106   4.899  14.245  0.00  0.00    +0.000 A 
ATOM      9  C   UNL     1      46.174   5.034  13.220  0.00  0.00    +0.000 A 
BRANCH   8  10
ATOM     10  O   UNL     1      47.290   3.761  14.988  0.00  0.00    +0.000 OA
BRANCH  10  11
ATOM     11  C   UNL     1      48.005   3.875  16.244  0.00  0.00    +0.000 C 
ATOM     12  C   UNL     1      48.610   2.575  16.829  0.00  0.00    +0.000 C 
ATOM     13  C   UNL     1      48.015   2.929  18.196  0.00  0.00    +0.000 C 
ATOM     14  C   UNL     1      47.124   3.974  17.512  0.00  0.00    +0.000 C 
ENDBRANCH  10  11
ENDBRANCH   8  10
ENDBRANCH   2   4
BRANCH   2  15
ATOM     15  C   UNL     1      45.420   5.838  10.139  0.00  0.00    +0.000 C 
BRANCH  15  16
ATOM     16  N   UNL     1      44.465   4.920   9.498  0.00  0.00    +0.000 N 
ATOM     17  H   UNL     1      43.845   5.387   8.840  0.00  0.00    +0.000 HD
BRANCH  16  18
ATOM     18  C   UNL     1      44.993   3.754   8.921  0.00  0.00    +0.000 A 
ATOM     19  C   UNL     1      44.752   2.501   9.490  0.00  0.00    +0.000 A 
ATOM     20  N   UNL     1      45.255   1.331   9.031  0.00  0.00    +0.000 NA
ATOM     21  C   UNL     1      46.082   1.411   7.959  0.00  0.00    +0.000 A 
ATOM     22  C   UNL     1      46.435   2.598   7.339  0.00  0.00    +0.000 A 
ATOM     23  C   UNL     1      45.884   3.779   7.844  0.00  0.00    +0.000 A 
BRANCH  22  24
ATOM     24  C   UNL     1      47.355   2.693   6.180  0.00  0.00    +0.000 C 
ATOM     25  N   UNL     1      48.688   2.472   6.376  0.00  0.00    +0.000 N 
ATOM     26  O   UNL     1      46.943   2.958   5.060  0.00  0.00    +0.000 OA
ATOM     27  H   UNL     1      49.131   2.256   7.254  0.00  0.00    +0.000 HD
ATOM     28  H   UNL     1      49.285   2.556   5.563  0.00  0.00    +0.000 HD
ENDBRANCH  22  24
ENDBRANCH  16  18
ENDBRANCH  15  16
ENDBRANCH   2  15
TORSDOF 7
ENDMDL
MODEL 2
REMARK VINA RESULT:    -7.880      1.500      2.038
REMARK INTER + INTRA:         -11.853
REMARK INTER:                 -10.902
REMARK INTRA:                  -0.951
REMARK UNBOUND:                -0.749
REMARK  Name = 
REMARK  9 active torsions:
REMARK  status: ('A' for Active; 'I' for Inactive)
REMARK    1  A    between atoms: C_1  and  C_2
REMARK    2  A    between atoms: C_2  and  C_3
REMARK    3  A    between atoms: C_2  and  C_4
REMARK    4  A    between atoms: C_2  and  C_15
REMARK    5  A    between atoms: C_4  and  N_5
REMARK    6  A    between atoms: N_5  and  C_6
REMARK    7  A    between atoms: C_10  and  C_11
REMARK    8  A    between atoms: C_19  and  O_20
REMARK    9  A    between atoms: O_20  and  C_21
REMARK                            x       y       z     vdW  Elec       q    Type
REMARK                         _______ _______ _______ _____ _____    ______ ____
ROOT
ATOM      1  C   UNL     1      42.634   5.662  12.828  0.00  0.00    +0.000 C 
ATOM      2  C   UNL     1      43.655   4.637  12.287  0.00  0.00    +0.000 C 
ATOM      3  C   UNL     1      43.304   3.242  12.855  0.00  0.00    +0.000 C 
ENDROOT
BRANCH   2   4
ATOM      4  C   UNL     1      45.074   5.096  12.680  0.00  0.00    +0.000 A 
ATOM      5  C   UNL     1      45.666   6.268  12.213  0.00  0.00    +0.000 A 
ATOM      6  N   UNL     1      46.899   6.704  12.570  0.00  0.00    +0.000 NA
ATOM      7  C   UNL     1      47.577   5.950  13.466  0.00  0.00    +0.000 A 
ATOM      8  C   UNL     1      47.088   4.778  14.021  0.00  0.00    +0.000 A 
ATOM      9  C   UNL     1      45.842   4.336  13.585  0.00  0.00    +0.000 A 
BRANCH   8  10
ATOM     10  O   UNL     1      47.864   4.133  14.950  0.00  0.00    +0.000 OA
BRANCH  10  11
ATOM     11  C   UNL     1      47.391   4.087  16.320  0.00  0.00    +0.000 C 
ATOM     12  C   UNL     1      48.022   5.090  17.316  0.00  0.00    +0.000 C 
ATOM     13  C   UNL     1      48.221   3.949  18.319  0.00  0.00    +0.000 C 
ATOM     14  C   UNL     1      47.964   2.943  17.190  0.00  0.00    +0.000 C 
ENDBRANCH  10  11
ENDBRANCH   8  10
ENDBRANCH   2   4
BRANCH   2  15
ATOM     15  C   UNL     1      43.576   4.563  10.728  0.00  0.00    +0.000 C 
BRANCH  15  16
ATOM     16  N   UNL     1      44.066   3.283  10.190  0.00  0.00    +0.000 N 
ATOM     17  H   UNL     1      43.317   2.680   9.857  0.00  0.00    +0.000 HD
BRANCH  16  18
ATOM     18  C   UNL     1      45.096   3.347   9.239  0.00  0.00    +0.000 A 
ATOM     19  C   UNL     1      45.519   4.574   8.723  0.00  0.00    +0.000 A 
ATOM     20  N   UNL     1      46.472   4.729   7.773  0.00  0.00    +0.000 NA
ATOM     21  C   UNL     1      47.015   3.590   7.274  0.00  0.00    +0.000 A 
ATOM     22  C   UNL     1      46.645   2.316   7.671  0.00  0.00    +0.000 A 
ATOM     23  C   UNL     1      45.663   2.207   8.659  0.00  0.00    +0.000 A 
BRANCH  22  24
ATOM     24  C   UNL     1      47.221   1.067   7.115  0.00  0.00    +0.000 C 
ATOM     25  N   UNL     1      46.866  -0.127   7.672  0.00  0.00    +0.000 N 
ATOM     26  O   UNL     1      47.996   1.090   6.170  0.00  0.00    +0.000 OA
ATOM     27  H   UNL     1      46.244  -0.257   8.453  0.00  0.00    +0.000 HD
ATOM     28  H   UNL     1      47.288  -0.956   7.271  0.00  0.00    +0.000 HD
ENDBRANCH  22  24
ENDBRANCH  16  18
ENDBRANCH  15  16
ENDBRANCH   2  15
TORSDOF 7
ENDMDL
MODEL 3
REMARK VINA RESULT:    -7.746      1.933      8.188
REMARK INTER + INTRA:         -11.664
REMARK INTER:                 -11.009
REMARK INTRA:                  -0.656
REMARK UNBOUND:                -0.749
REMARK  Name = 
REMARK  9 active torsions:
REMARK  status: ('A' for Active; 'I' for Inactive)
REMARK    1  A    between atoms: C_1  and  C_2
REMARK    2  A    between atoms: C_2  and  C_3
REMARK    3  A    between atoms: C_2  and  C_4
REMARK    4  A    between atoms: C_2  and  C_15
REMARK    5  A    between atoms: C_4  and  N_5
REMARK    6  A    between atoms: N_5  and  C_6
REMARK    7  A    between atoms: C_10  and  C_11
REMARK    8  A    between atoms: C_19  and  O_20
REMARK    9  A    between atoms: O_20  and  C_21
REMARK                            x       y       z     vdW  Elec       q    Type
REMARK                         _______ _______ _______ _____ _____    ______ ____
ROOT
ATOM      1  C   UNL     1      43.175   5.857  12.529  0.00  0.00    +0.000 C 
ATOM      2  C   UNL     1      44.632   5.597  12.086  0.00  0.00    +0.000 C 
ATOM      3  C   UNL     1      45.253   6.936  11.622  0.00  0.00    +0.000 C 
ENDROOT
BRANCH   2   4
ATOM      4  C   UNL     1      44.629   4.530  10.972  0.00  0.00    +0.000 A 
ATOM      5  C   UNL     1      43.964   3.310  11.072  0.00  0.00    +0.000 A 
ATOM      6  N   UNL     1      43.924   2.372  10.094  0.00  0.00    +0.000 NA
ATOM      7  C   UNL     1      44.558   2.670   8.936  0.00  0.00    +0.000 A 
ATOM      8  C   UNL     1      45.234   3.858   8.706  0.00  0.00    +0.000 A 
ATOM      9  C   UNL     1      45.299   4.770   9.755  0.00  0.00    +0.000 A 
BRANCH   8  10
ATOM     10  O   UNL     1      45.798   4.048   7.470  0.00  0.00    +0.000 OA
BRANCH  10  11
ATOM     11  C   UNL     1      46.223   2.878   6.728  0.00  0.00    +0.000 C 
ATOM     12  C   UNL     1      47.541   2.201   7.177  0.00  0.00    +0.000 C 
ATOM     13  C   UNL     1      48.001   2.156   5.716  0.00  0.00    +0.000 C 
ATOM     14  C   UNL     1      46.894   3.156   5.361  0.00  0.00    +0.000 C 
ENDBRANCH  10  11
ENDBRANCH   8  10
ENDBRANCH   2   4
BRANCH   2  15
ATOM     15  C   UNL     1      45.477   5.058  13.285  0.00  0.00    +0.000 C 
BRANCH  15  16
ATOM     16  N   UNL     1      46.834   5.625  13.330  0.00  0.00    +0.000 N 
ATOM     17  H   UNL     1      46.879   6.574  12.967  0.00  0.00    +0.000 HD
BRANCH  16  18
ATOM     18  C   UNL     1      47.516   5.542  14.554  0.00  0.00    +0.000 A 
ATOM     19  C   UNL     1      48.608   6.371  14.822  0.00  0.00    +0.000 A 
ATOM     20  N   UNL     1      49.353   6.332  15.953  0.00  0.00    +0.000 NA
ATOM     21  C   UNL     1      49.017   5.383  16.861  0.00  0.00    +0.000 A 
ATOM     22  C   UNL     1      47.987   4.473  16.688  0.00  0.00    +0.000 A 
ATOM     23  C   UNL     1      47.242   4.558  15.509  0.00  0.00    +0.000 A 
BRANCH  22  24
ATOM     24  C   UNL     1      47.628   3.420  17.670  0.00  0.00    +0.000 C 
ATOM     25  N   UNL     1      48.407   3.262  18.780  0.00  0.00    +0.000 N 
ATOM     26  O   UNL     1      46.653   2.703  17.506  0.00  0.00    +0.000 OA
ATOM     27  H   UNL     1      49.233   3.792  19.007  0.00  0.00    +0.000 HD
ATOM     28  H   UNL     1      48.135   2.527  19.421  0.00  0.00    +0.000 HD
ENDBRANCH  22  24
ENDBRANCH  16  18
ENDBRANCH  15  16
ENDBRANCH   2  15
TORSDOF 7
ENDMDL
MODEL 4
REMARK VINA RESULT:    -7.627      1.588      2.000
REMARK INTER + INTRA:         -11.496
REMARK INTER:                 -10.756
REMARK INTRA:                  -0.740
REMARK UNBOUND:                -0.749
REMARK  Name = 
REMARK  9 active torsions:
REMARK  status: ('A' for Active; 'I' for Inactive)
REMARK    1  A    between atoms: C_1  and  C_2
REMARK    2  A    between atoms: C_2  and  C_3
REMARK    3  A    between atoms: C_2  and  C_4
REMARK    4  A    between atoms: C_2  and  C_15
REMARK    5  A    between atoms: C_4  and  N_5
REMARK    6  A    between atoms: N_5  and  C_6
REMARK    7  A    between atoms: C_10  and  C_11
REMARK    8  A    between atoms: C_19  and  O_20
REMARK    9  A    between atoms: O_20  and  C_21
REMARK                            x       y       z     vdW  Elec       q    Type
REMARK                         _______ _______ _______ _____ _____    ______ ____
ROOT
ATOM      1  C   UNL     1      46.290   6.170  10.123  0.00  0.00    +0.000 C 
ATOM      2  C   UNL     1      45.215   5.846  11.186  0.00  0.00    +0.000 C 
ATOM      3  C   UNL     1      44.533   7.166  11.616  0.00  0.00    +0.000 C 
ENDROOT
BRANCH   2   4
ATOM      4  C   UNL     1      45.889   5.117  12.366  0.00  0.00    +0.000 A 
ATOM      5  C   UNL     1      45.828   3.738  12.560  0.00  0.00    +0.000 A 
ATOM      6  N   UNL     1      46.437   3.075  13.573  0.00  0.00    +0.000 NA
ATOM      7  C   UNL     1      47.175   3.816  14.431  0.00  0.00    +0.000 A 
ATOM      8  C   UNL     1      47.333   5.190  14.331  0.00  0.00    +0.000 A 
ATOM      9  C   UNL     1      46.644   5.840  13.311  0.00  0.00    +0.000 A 
BRANCH   8  10
ATOM     10  O   UNL     1      48.143   5.813  15.246  0.00  0.00    +0.000 OA
BRANCH  10  11
ATOM     11  C   UNL     1      48.480   5.094  16.459  0.00  0.00    +0.000 C 
ATOM     12  C   UNL     1      47.829   5.590  17.774  0.00  0.00    +0.000 C 
ATOM     13  C   UNL     1      49.199   5.532  18.458  0.00  0.00    +0.000 C 
ATOM     14  C   UNL     1      49.859   5.427  17.077  0.00  0.00    +0.000 C 
ENDBRANCH  10  11
ENDBRANCH   8  10
ENDBRANCH   2   4
BRANCH   2  15
ATOM     15  C   UNL     1      44.122   4.906  10.584  0.00  0.00    +0.000 C 
BRANCH  15  16
ATOM     16  N   UNL     1      44.261   4.724   9.130  0.00  0.00    +0.000 N 
ATOM     17  H   UNL     1      44.678   5.528   8.667  0.00  0.00    +0.000 HD
BRANCH  16  18
ATOM     18  C   UNL     1      44.878   3.541   8.694  0.00  0.00    +0.000 A 
ATOM     19  C   UNL     1      44.608   2.321   9.319  0.00  0.00    +0.000 A 
ATOM     20  N   UNL     1      45.187   1.140   8.997  0.00  0.00    +0.000 NA
ATOM     21  C   UNL     1      46.123   1.176   8.016  0.00  0.00    +0.000 A 
ATOM     22  C   UNL     1      46.510   2.331   7.356  0.00  0.00    +0.000 A 
ATOM     23  C   UNL     1      45.879   3.523   7.717  0.00  0.00    +0.000 A 
BRANCH  22  24
ATOM     24  C   UNL     1      47.547   2.379   6.297  0.00  0.00    +0.000 C 
ATOM     25  N   UNL     1      47.389   3.253   5.260  0.00  0.00    +0.000 N 
ATOM     26  O   UNL     1      48.535   1.661   6.340  0.00  0.00    +0.000 OA
ATOM     27  H   UNL     1      46.613   3.881   5.125  0.00  0.00    +0.000 HD
ATOM     28  H   UNL     1      48.113   3.250   4.552  0.00  0.00    +0.000 HD
ENDBRANCH  22  24
ENDBRANCH  16  18
ENDBRANCH  15  16
ENDBRANCH   2  15
TORSDOF 7
ENDMDL
MODEL 5
REMARK VINA RESULT:    -7.338      2.007      8.073
REMARK INTER + INTRA:         -11.090
REMARK INTER:                 -10.464
REMARK INTRA:                  -0.626
REMARK UNBOUND:                -0.749
REMARK  Name = 
REMARK  9 active torsions:
REMARK  status: ('A' for Active; 'I' for Inactive)
REMARK    1  A    between atoms: C_1  and  C_2
REMARK    2  A    between atoms: C_2  and  C_3
REMARK    3  A    between atoms: C_2  and  C_4
REMARK    4  A    between atoms: C_2  and  C_15
REMARK    5  A    between atoms: C_4  and  N_5
REMARK    6  A    between atoms: N_5  and  C_6
REMARK    7  A    between atoms: C_10  and  C_11
REMARK    8  A    between atoms: C_19  and  O_20
REMARK    9  A    between atoms: O_20  and  C_21
REMARK                            x       y       z     vdW  Elec       q    Type
REMARK                         _______ _______ _______ _____ _____    ______ ____
ROOT
ATOM      1  C   UNL     1      44.330   5.902  13.116  0.00  0.00    +0.000 C 
ATOM      2  C   UNL     1      45.259   6.181  11.913  0.00  0.00    +0.000 C 
ATOM      3  C   UNL     1      44.965   7.604  11.382  0.00  0.00    +0.000 C 
ENDROOT
BRANCH   2   4
ATOM      4  C   UNL     1      45.028   5.092  10.846  0.00  0.00    +0.000 A 
ATOM      5  C   UNL     1      44.148   4.023  11.008  0.00  0.00    +0.000 A 
ATOM      6  N   UNL     1      43.908   3.074  10.072  0.00  0.00    +0.000 NA
ATOM      7  C   UNL     1      44.557   3.203   8.891  0.00  0.00    +0.000 A 
ATOM      8  C   UNL     1      45.436   4.234   8.598  0.00  0.00    +0.000 A 
ATOM      9  C   UNL     1      45.698   5.156   9.607  0.00  0.00    +0.000 A 
BRANCH   8  10
ATOM     10  O   UNL     1      45.994   4.268   7.345  0.00  0.00    +0.000 OA
BRANCH  10  11
ATOM     11  C   UNL     1      46.278   3.006   6.691  0.00  0.00    +0.000 C 
ATOM     12  C   UNL     1      47.579   2.277   7.106  0.00  0.00    +0.000 C 
ATOM     13  C   UNL     1      47.917   2.064   5.627  0.00  0.00    +0.000 C 
ATOM     14  C   UNL     1      46.854   3.107   5.258  0.00  0.00    +0.000 C 
ENDBRANCH  10  11
ENDBRANCH   8  10
ENDBRANCH   2   4
BRANCH   2  15
ATOM     15  C   UNL     1      46.756   6.126  12.358  0.00  0.00    +0.000 C 
BRANCH  15  16
ATOM     16  N   UNL     1      46.936   6.380  13.796  0.00  0.00    +0.000 N 
ATOM     17  H   UNL     1      46.131   6.833  14.223  0.00  0.00    +0.000 HD
BRANCH  16  18
ATOM     18  C   UNL     1      47.358   5.299  14.585  0.00  0.00    +0.000 A 
ATOM     19  C   UNL     1      47.231   3.985  14.126  0.00  0.00    +0.000 A 
ATOM     20  N   UNL     1      47.568   2.881  14.832  0.00  0.00    +0.000 NA
ATOM     21  C   UNL     1      48.026   3.089  16.092  0.00  0.00    +0.000 A 
ATOM     22  C   UNL     1      48.151   4.339  16.675  0.00  0.00    +0.000 A 
ATOM     23  C   UNL     1      47.798   5.449  15.904  0.00  0.00    +0.000 A 
BRANCH  22  24
ATOM     24  C   UNL     1      48.633   4.571  18.059  0.00  0.00    +0.000 C 
ATOM     25  N   UNL     1      47.884   5.347  18.895  0.00  0.00    +0.000 N 
ATOM     26  O   UNL     1      49.676   4.077  18.460  0.00  0.00    +0.000 OA
ATOM     27  H   UNL     1      47.017   5.804  18.664  0.00  0.00    +0.000 HD
ATOM     28  H   UNL     1      48.251   5.490  19.828  0.00  0.00    +0.000 HD
ENDBRANCH  22  24
ENDBRANCH  16  18
ENDBRANCH  15  16
ENDBRANCH   2  15
TORSDOF 7
ENDMDL
MODEL 6
REMARK VINA RESULT:    -7.281      2.232      8.223
REMARK INTER + INTRA:         -11.009
REMARK INTER:                 -10.269
REMARK INTRA:                  -0.740
REMARK UNBOUND:                -0.749
REMARK  Name = 
REMARK  9 active torsions:
REMARK  status: ('A' for Active; 'I' for Inactive)
REMARK    1  A    between atoms: C_1  and  C_2
REMARK    2  A    between atoms: C_2  and  C_3
REMARK    3  A    between atoms: C_2  and  C_4
REMARK    4  A    between atoms: C_2  and  C_15
REMARK    5  A    between atoms: C_4  and  N_5
REMARK    6  A    between atoms: N_5  and  C_6
REMARK    7  A    between atoms: C_10  and  C_11
REMARK    8  A    between atoms: C_19  and  O_20
REMARK    9  A    between atoms: O_20  and  C_21
REMARK                            x       y       z     vdW  Elec       q    Type
REMARK                         _______ _______ _______ _____ _____    ______ ____
ROOT
ATOM      1  C   UNL     1      45.629   8.078  12.680  0.00  0.00    +0.000 C 
ATOM      2  C   UNL     1      46.421   6.819  12.261  0.00  0.00    +0.000 C 
ATOM      3  C   UNL     1      47.661   7.263  11.450  0.00  0.00    +0.000 C 
ENDROOT
BRANCH   2   4
ATOM      4  C   UNL     1      45.488   5.892  11.456  0.00  0.00    +0.000 A 
ATOM      5  C   UNL     1      44.266   5.420  11.932  0.00  0.00    +0.000 A 
ATOM      6  N   UNL     1      43.419   4.629  11.230  0.00  0.00    +0.000 NA
ATOM      7  C   UNL     1      43.789   4.307   9.969  0.00  0.00    +0.000 A 
ATOM      8  C   UNL     1      44.966   4.733   9.373  0.00  0.00    +0.000 A 
ATOM      9  C   UNL     1      45.835   5.496  10.148  0.00  0.00    +0.000 A 
BRANCH   8  10
ATOM     10  O   UNL     1      45.198   4.366   8.072  0.00  0.00    +0.000 OA
BRANCH  10  11
ATOM     11  C   UNL     1      46.399   3.608   7.781  0.00  0.00    +0.000 C 
ATOM     12  C   UNL     1      46.718   3.341   6.290  0.00  0.00    +0.000 C 
ATOM     13  C   UNL     1      46.979   1.868   6.623  0.00  0.00    +0.000 C 
ATOM     14  C   UNL     1      46.291   2.077   7.978  0.00  0.00    +0.000 C 
ENDBRANCH  10  11
ENDBRANCH   8  10
ENDBRANCH   2   4
BRANCH   2  15
ATOM     15  C   UNL     1      46.917   6.045  13.525  0.00  0.00    +0.000 C 
BRANCH  15  16
ATOM     16  N   UNL     1      48.174   6.583  14.069  0.00  0.00    +0.000 N 
ATOM     17  H   UNL     1      48.239   7.595  13.991  0.00  0.00    +0.000 HD
BRANCH  16  18
ATOM     18  C   UNL     1      48.533   6.173  15.363  0.00  0.00    +0.000 A 
ATOM     19  C   UNL     1      49.604   6.771  16.032  0.00  0.00    +0.000 A 
ATOM     20  N   UNL     1      50.049   6.412  17.259  0.00  0.00    +0.000 NA
ATOM     21  C   UNL     1      49.416   5.367  17.847  0.00  0.00    +0.000 A 
ATOM     22  C   UNL     1      48.374   4.664  17.265  0.00  0.00    +0.000 A 
ATOM     23  C   UNL     1      47.944   5.076  16.001  0.00  0.00    +0.000 A 
BRANCH  22  24
ATOM     24  C   UNL     1      47.691   3.508  17.895  0.00  0.00    +0.000 C 
ATOM     25  N   UNL     1      48.179   3.016  19.071  0.00  0.00    +0.000 N 
ATOM     26  O   UNL     1      46.704   2.998  17.387  0.00  0.00    +0.000 OA
ATOM     27  H   UNL     1      48.986   3.356  19.568  0.00  0.00    +0.000 HD
ATOM     28  H   UNL     1      47.691   2.221  19.465  0.00  0.00    +0.000 HD
ENDBRANCH  22  24
ENDBRANCH  16  18
ENDBRANCH  15  16
ENDBRANCH   2  15
TORSDOF 7
ENDMDL
MODEL 7
REMARK VINA RESULT:    -7.081      2.432      8.060
REMARK INTER + INTRA:         -10.727
REMARK INTER:                  -9.906
REMARK INTRA:                  -0.821
REMARK UNBOUND:                -0.749
REMARK  Name = 
REMARK  9 active torsions:
REMARK  status: ('A' for Active; 'I' for Inactive)
REMARK    1  A    between atoms: C_1  and  C_2
REMARK    2  A    between atoms: C_2  and  C_3
REMARK    3  A    between atoms: C_2  and  C_4
REMARK    4  A    between atoms: C_2  and  C_15
REMARK    5  A    between atoms: C_4  and  N_5
REMARK    6  A    between atoms: N_5  and  C_6
REMARK    7  A    between atoms: C_10  and  C_11
REMARK    8  A    between atoms: C_19  and  O_20
REMARK    9  A    between atoms: O_20  and  C_21
REMARK                            x       y       z     vdW  Elec       q    Type
REMARK                         _______ _______ _______ _____ _____    ______ ____
ROOT
ATOM      1  C   UNL     1      45.027   5.715  13.198  0.00  0.00    +0.000 C 
ATOM      2  C   UNL     1      45.306   6.080  11.722  0.00  0.00    +0.000 C 
ATOM      3  C   UNL     1      44.477   7.334  11.358  0.00  0.00    +0.000 C 
ENDROOT
BRANCH   2   4
ATOM      4  C   UNL     1      44.960   4.865  10.837  0.00  0.00    +0.000 A 
ATOM      5  C   UNL     1      44.211   3.775  11.278  0.00  0.00    +0.000 A 
ATOM      6  N   UNL     1      43.871   2.713  10.508  0.00  0.00    +0.000 NA
ATOM      7  C   UNL     1      44.271   2.743   9.215  0.00  0.00    +0.000 A 
ATOM      8  C   UNL     1      44.998   3.780   8.652  0.00  0.00    +0.000 A 
ATOM      9  C   UNL     1      45.376   4.824   9.491  0.00  0.00    +0.000 A 
BRANCH   8  10
ATOM     10  O   UNL     1      45.302   3.702   7.317  0.00  0.00    +0.000 OA
BRANCH  10  11
ATOM     11  C   UNL     1      46.687   3.487   6.945  0.00  0.00    +0.000 C 
ATOM     12  C   UNL     1      46.978   3.207   5.451  0.00  0.00    +0.000 C 
ATOM     13  C   UNL     1      47.868   2.027   5.859  0.00  0.00    +0.000 C 
ATOM     14  C   UNL     1      47.260   2.086   7.266  0.00  0.00    +0.000 C 
ENDBRANCH  10  11
ENDBRANCH   8  10
ENDBRANCH   2   4
BRANCH   2  15
ATOM     15  C   UNL     1      46.818   6.420  11.524  0.00  0.00    +0.000 C 
BRANCH  15  16
ATOM     16  N   UNL     1      47.191   7.724  12.094  0.00  0.00    +0.000 N 
ATOM     17  H   UNL     1      46.395   8.239  12.463  0.00  0.00    +0.000 HD
BRANCH  16  18
ATOM     18  C   UNL     1      48.246   7.735  13.021  0.00  0.00    +0.000 A 
ATOM     19  C   UNL     1      49.462   8.349  12.714  0.00  0.00    +0.000 A 
ATOM     20  N   UNL     1      50.547   8.370  13.525  0.00  0.00    +0.000 NA
ATOM     21  C   UNL     1      50.431   7.706  14.701  0.00  0.00    +0.000 A 
ATOM     22  C   UNL     1      49.295   7.020  15.096  0.00  0.00    +0.000 A 
ATOM     23  C   UNL     1      48.199   7.033  14.230  0.00  0.00    +0.000 A 
BRANCH  22  24
ATOM     24  C   UNL     1      49.170   6.275  16.373  0.00  0.00    +0.000 C 
ATOM     25  N   UNL     1      48.242   6.686  17.286  0.00  0.00    +0.000 N 
ATOM     26  O   UNL     1      49.873   5.306  16.616  0.00  0.00    +0.000 OA
ATOM     27  H   UNL     1      47.621   7.472  17.190  0.00  0.00    +0.000 HD
ATOM     28  H   UNL     1      48.194   6.158  18.150  0.00  0.00    +0.000 HD
ENDBRANCH  22  24
ENDBRANCH  16  18
ENDBRANCH  15  16
ENDBRANCH   2  15
TORSDOF 7
ENDMDL
MODEL 8
REMARK VINA RESULT:    -6.810      2.835      7.693
REMARK INTER + INTRA:         -10.345
REMARK INTER:                  -9.665
REMARK INTRA:                  -0.681
REMARK UNBOUND:                -0.749
REMARK  Name = 
REMARK  9 active torsions:
REMARK  status: ('A' for Active; 'I' for Inactive)
REMARK    1  A    between atoms: C_1  and  C_2
REMARK    2  A    between atoms: C_2  and  C_3
REMARK    3  A    between atoms: C_2  and  C_4
REMARK    4  A    between atoms: C_2  and  C_15
REMARK    5  A    between atoms: C_4  and  N_5
REMARK    6  A    between atoms: N_5  and  C_6
REMARK    7  A    between atoms: C_10  and  C_11
REMARK    8  A    between atoms: C_19  and  O_20
REMARK    9  A    between atoms: O_20  and  C_21
REMARK                            x       y       z     vdW  Elec       q    Type
REMARK                         _______ _______ _______ _____ _____    ______ ____
ROOT
ATOM      1  C   UNL     1      44.219   5.712  13.147  0.00  0.00    +0.000 C 
ATOM      2  C   UNL     1      45.175   5.844  11.941  0.00  0.00    +0.000 C 
ATOM      3  C   UNL     1      44.967   7.234  11.295  0.00  0.00    +0.000 C 
ENDROOT
BRANCH   2   4
ATOM      4  C   UNL     1      44.897   4.689  10.958  0.00  0.00    +0.000 A 
ATOM      5  C   UNL     1      44.174   3.546  11.293  0.00  0.00    +0.000 A 
ATOM      6  N   UNL     1      43.893   2.533  10.436  0.00  0.00    +0.000 NA
ATOM      7  C   UNL     1      44.331   2.672   9.163  0.00  0.00    +0.000 A 
ATOM      8  C   UNL     1      45.039   3.771   8.702  0.00  0.00    +0.000 A 
ATOM      9  C   UNL     1      45.355   4.761   9.627  0.00  0.00    +0.000 A 
BRANCH   8  10
ATOM     10  O   UNL     1      45.386   3.802   7.375  0.00  0.00    +0.000 OA
BRANCH  10  11
ATOM     11  C   UNL     1      46.755   3.484   7.022  0.00  0.00    +0.000 C 
ATOM     12  C   UNL     1      47.059   3.255   5.521  0.00  0.00    +0.000 C 
ATOM     13  C   UNL     1      47.830   1.981   5.884  0.00  0.00    +0.000 C 
ATOM     14  C   UNL     1      47.194   2.022   7.279  0.00  0.00    +0.000 C 
ENDBRANCH  10  11
ENDBRANCH   8  10
ENDBRANCH   2   4
BRANCH   2  15
ATOM     15  C   UNL     1      46.662   5.744  12.413  0.00  0.00    +0.000 C 
BRANCH  15  16
ATOM     16  N   UNL     1      46.878   6.324  13.749  0.00  0.00    +0.000 N 
ATOM     17  H   UNL     1      46.528   5.734  14.499  0.00  0.00    +0.000 HD
BRANCH  16  18
ATOM     18  C   UNL     1      48.177   6.765  14.046  0.00  0.00    +0.000 A 
ATOM     19  C   UNL     1      48.648   6.770  15.362  0.00  0.00    +0.000 A 
ATOM     20  N   UNL     1      49.866   7.218  15.748  0.00  0.00    +0.000 NA
ATOM     21  C   UNL     1      50.656   7.730  14.772  0.00  0.00    +0.000 A 
ATOM     22  C   UNL     1      50.283   7.824  13.442  0.00  0.00    +0.000 A 
ATOM     23  C   UNL     1      49.020   7.341  13.090  0.00  0.00    +0.000 A 
BRANCH  22  24
ATOM     24  C   UNL     1      51.135   8.401  12.374  0.00  0.00    +0.000 C 
ATOM     25  N   UNL     1      52.487   8.226  12.443  0.00  0.00    +0.000 N 
ATOM     26  O   UNL     1      50.651   9.019  11.438  0.00  0.00    +0.000 OA
ATOM     27  H   UNL     1      52.987   7.741  13.171  0.00  0.00    +0.000 HD
ATOM     28  H   UNL     1      53.036   8.642  11.701  0.00  0.00    +0.000 HD
ENDBRANCH  22  24
ENDBRANCH  16  18
ENDBRANCH  15  16
ENDBRANCH   2  15
TORSDOF 7
ENDMDL
MODEL 9
REMARK VINA RESULT:    -6.692      2.391      3.536
REMARK INTER + INTRA:         -10.179
REMARK INTER:                  -9.292
REMARK INTRA:                  -0.888
REMARK UNBOUND:                -0.749
REMARK  Name = 
REMARK  9 active torsions:
REMARK  status: ('A' for Active; 'I' for Inactive)
REMARK    1  A    between atoms: C_1  and  C_2
REMARK    2  A    between atoms: C_2  and  C_3
REMARK    3  A    between atoms: C_2  and  C_4
REMARK    4  A    between atoms: C_2  and  C_15
REMARK    5  A    between atoms: C_4  and  N_5
REMARK    6  A    between atoms: N_5  and  C_6
REMARK    7  A    between atoms: C_10  and  C_11
REMARK    8  A    between atoms: C_19  and  O_20
REMARK    9  A    between atoms: O_20  and  C_21
REMARK                            x       y       z     vdW  Elec       q    Type
REMARK                         _______ _______ _______ _____ _____    ______ ____
ROOT
ATOM      1  C   UNL     1      49.222   8.266  11.747  0.00  0.00    +0.000 C 
ATOM      2  C   UNL     1      47.937   7.988  12.558  0.00  0.00    +0.000 C 
ATOM      3  C   UNL     1      46.917   9.115  12.270  0.00  0.00    +0.000 C 
ENDROOT
BRANCH   2   4
ATOM      4  C   UNL     1      48.304   7.891  14.053  0.00  0.00    +0.000 A 
ATOM      5  C   UNL     1      48.126   8.932  14.962  0.00  0.00    +0.000 A 
ATOM      6  N   UNL     1      48.414   8.857  16.285  0.00  0.00    +0.000 NA
ATOM      7  C   UNL     1      48.882   7.672  16.741  0.00  0.00    +0.000 A 
ATOM      8  C   UNL     1      49.080   6.557  15.942  0.00  0.00    +0.000 A 
ATOM      9  C   UNL     1      48.826   6.693  14.581  0.00  0.00    +0.000 A 
BRANCH   8  10
ATOM     10  O   UNL     1      49.520   5.405  16.543  0.00  0.00    +0.000 OA
BRANCH  10  11
ATOM     11  C   UNL     1      48.619   4.722  17.450  0.00  0.00    +0.000 C 
ATOM     12  C   UNL     1      48.901   3.225  17.728  0.00  0.00    +0.000 C 
ATOM     13  C   UNL     1      47.419   2.915  17.491  0.00  0.00    +0.000 C 
ATOM     14  C   UNL     1      47.256   4.300  16.852  0.00  0.00    +0.000 C 
ENDBRANCH  10  11
ENDBRANCH   8  10
ENDBRANCH   2   4
BRANCH   2  15
ATOM     15  C   UNL     1      47.299   6.631  12.118  0.00  0.00    +0.000 C 
BRANCH  15  16
ATOM     16  N   UNL     1      45.835   6.701  11.987  0.00  0.00    +0.000 N 
ATOM     17  H   UNL     1      45.532   7.361  11.276  0.00  0.00    +0.000 HD
BRANCH  16  18
ATOM     18  C   UNL     1      45.151   5.484  11.843  0.00  0.00    +0.000 A 
ATOM     19  C   UNL     1      44.577   4.850  12.947  0.00  0.00    +0.000 A 
ATOM     20  N   UNL     1      43.938   3.657  12.911  0.00  0.00    +0.000 NA
ATOM     21  C   UNL     1      43.898   3.032  11.709  0.00  0.00    +0.000 A 
ATOM     22  C   UNL     1      44.472   3.536  10.553  0.00  0.00    +0.000 A 
ATOM     23  C   UNL     1      45.113   4.775  10.638  0.00  0.00    +0.000 A 
BRANCH  22  24
ATOM     24  C   UNL     1      44.448   2.848   9.239  0.00  0.00    +0.000 C 
ATOM     25  N   UNL     1      44.329   3.597   8.105  0.00  0.00    +0.000 N 
ATOM     26  O   UNL     1      44.539   1.632   9.157  0.00  0.00    +0.000 OA
ATOM     27  H   UNL     1      44.241   4.600   8.062  0.00  0.00    +0.000 HD
ATOM     28  H   UNL     1      44.307   3.091   7.229  0.00  0.00    +0.000 HD
ENDBRANCH  22  24
ENDBRANCH  16  18
ENDBRANCH  15  16
ENDBRANCH   2  15
TORSDOF 7
ENDMDL
