MODEL 1
REMARK VINA RESULT:    -6.606      0.000      0.000
REMARK INTER + INTRA:          -8.873
REMARK INTER:                  -8.151
REMARK INTRA:                  -0.722
REMARK UNBOUND:                -0.722
REMARK  Name = 
REMARK  6 active torsions:
REMARK  status: ('A' for Active; 'I' for Inactive)
REMARK    1  A    between atoms: C_1  and  N_2
REMARK    2  A    between atoms: C_3  and  C_5
REMARK    3  A    between atoms: C_8  and  O_9
REMARK    4  A    between atoms: O_9  and  C_10
REMARK    5  A    between atoms: C_10  and  C_11
REMARK    6  A    between atoms: C_10  and  C_12
REMARK                            x       y       z     vdW  Elec       q    Type
REMARK                         _______ _______ _______ _____ _____    ______ ____
ROOT
ATOM      1  C   UNL     1      45.937   2.862   8.134  0.00  0.00    +0.000 A 
ATOM      2  C   UNL     1      45.161   2.200   9.088  0.00  0.00    +0.000 A 
ATOM      3  C   UNL     1      44.419   2.953  10.003  0.00  0.00    +0.000 A 
ATOM      4  C   UNL     1      44.502   4.336   9.946  0.00  0.00    +0.000 A 
ATOM      5  N   UNL     1      45.241   4.999   9.033  0.00  0.00    +0.000 NA
ATOM      6  C   UNL     1      45.947   4.250   8.153  0.00  0.00    +0.000 A 
ENDROOT
BRANCH   1   9
ATOM      7  C   UNL     1      48.025   2.318   5.032  0.00  0.00    +0.000 C 
ATOM      8  N   UNL     1      47.183   2.905   6.044  0.00  0.00    +0.000 N 
ATOM      9  C   UNL     1      46.783   2.166   7.137  0.00  0.00    +0.000 C 
ATOM     10  O   UNL     1      47.105   1.000   7.318  0.00  0.00    +0.000 OA
ATOM     11  H   UNL     1      47.039   3.906   6.026  0.00  0.00    +0.000 HD
ENDBRANCH   1   9
BRANCH   4  12
ATOM     12  O   UNL     1      43.758   5.049  10.861  0.00  0.00    +0.000 OA
BRANCH  12  13
ATOM     13  C   UNL     1      44.101   4.777  12.230  0.00  0.00    +0.000 C 
ATOM     14  C   UNL     1      42.863   5.001  13.102  0.00  0.00    +0.000 C 
BRANCH  13  15
ATOM     15  C   UNL     1      45.252   5.690  12.628  0.00  0.00    +0.000 A 
ATOM     16  C   UNL     1      46.451   5.132  13.105  0.00  0.00    +0.000 A 
ATOM     17  C   UNL     1      47.532   5.946  13.450  0.00  0.00    +0.000 A 
ATOM     18  C   UNL     1      47.431   7.329  13.322  0.00  0.00    +0.000 A 
ATOM     19  C   UNL     1      46.246   7.897  12.860  0.00  0.00    +0.000 A 
ATOM     20  C   UNL     1      45.163   7.085  12.514  0.00  0.00    +0.000 A 
ENDBRANCH  13  15
ENDBRANCH  12  13
ENDBRANCH   4  12
TORSDOF 4
ENDMDL
MODEL 2
REMARK VINA RESULT:    -6.597      3.277      7.002
REMARK INTER + INTRA:          -8.862
REMARK INTER:                  -8.252
REMARK INTRA:                  -0.609
REMARK UNBOUND:                -0.722
REMARK  Name = 
REMARK  6 active torsions:
REMARK  status: ('A' for Active; 'I' for Inactive)
REMARK    1  A    between atoms: C_1  and  N_2
REMARK    2  A    between atoms: C_3  and  C_5
REMARK    3  A    between atoms: C_8  and  O_9
REMARK    4  A    between atoms: O_9  and  C_10
REMARK    5  A    between atoms: C_10  and  C_11
REMARK    6  A    between atoms: C_10  and  C_12
REMARK                            x       y       z     vdW  Elec       q    Type
REMARK                         _______ _______ _______ _____ _____    ______ ____
ROOT
ATOM      1  C   UNL     1      47.737   5.875  14.534  0.00  0.00    +0.000 A 
ATOM      2  C   UNL     1      47.402   6.417  13.290  0.00  0.00    +0.000 A 
ATOM      3  C   UNL     1      46.463   5.760  12.492  0.00  0.00    +0.000 A 
ATOM      4  C   UNL     1      45.913   4.573  12.954  0.00  0.00    +0.000 A 
ATOM      5  N   UNL     1      46.216   4.031  14.151  0.00  0.00    +0.000 NA
ATOM      6  C   UNL     1      47.125   4.687  14.911  0.00  0.00    +0.000 A 
ENDROOT
BRANCH   1   9
ATOM      7  C   UNL     1      49.240   7.273  17.706  0.00  0.00    +0.000 C 
ATOM      8  N   UNL     1      48.328   6.713  16.741  0.00  0.00    +0.000 N 
ATOM      9  C   UNL     1      48.739   6.471  15.447  0.00  0.00    +0.000 C 
ATOM     10  O   UNL     1      49.870   6.705  15.043  0.00  0.00    +0.000 OA
ATOM     11  H   UNL     1      47.446   6.344  17.072  0.00  0.00    +0.000 HD
ENDBRANCH   1   9
BRANCH   4  12
ATOM     12  O   UNL     1      44.988   3.950  12.144  0.00  0.00    +0.000 OA
BRANCH  12  13
ATOM     13  C   UNL     1      44.658   4.695  10.959  0.00  0.00    +0.000 C 
ATOM     14  C   UNL     1      43.140   4.886  10.905  0.00  0.00    +0.000 C 
BRANCH  13  15
ATOM     15  C   UNL     1      45.179   3.931   9.751  0.00  0.00    +0.000 A 
ATOM     16  C   UNL     1      45.778   4.632   8.689  0.00  0.00    +0.000 A 
ATOM     17  C   UNL     1      46.291   3.953   7.581  0.00  0.00    +0.000 A 
ATOM     18  C   UNL     1      46.213   2.563   7.519  0.00  0.00    +0.000 A 
ATOM     19  C   UNL     1      45.613   1.856   8.558  0.00  0.00    +0.000 A 
ATOM     20  C   UNL     1      45.100   2.533   9.667  0.00  0.00    +0.000 A 
ENDBRANCH  13  15
ENDBRANCH  12  13
ENDBRANCH   4  12
TORSDOF 4
ENDMDL
MODEL 3
REMARK VINA RESULT:    -6.316      3.065      6.868
REMARK INTER + INTRA:          -8.515
REMARK INTER:                  -7.900
REMARK INTRA:                  -0.615
REMARK UNBOUND:                -0.722
REMARK  Name = 
REMARK  6 active torsions:
REMARK  status: ('A' for Active; 'I' for Inactive)
REMARK    1  A    between atoms: C_1  and  N_2
REMARK    2  A    between atoms: C_3  and  C_5
REMARK    3  A    between atoms: C_8  and  O_9
REMARK    4  A    between atoms: O_9  and  C_10
REMARK    5  A    between atoms: C_10  and  C_11
REMARK    6  A    between atoms: C_10  and  C_12
REMARK                            x       y       z     vdW  Elec       q    Type
REMARK                         _______ _______ _______ _____ _____    ______ ____
ROOT
ATOM      1  C   UNL     1      47.435   5.358  14.468  0.00  0.00    +0.000 A 
ATOM      2  C   UNL     1      46.948   6.107  13.393  0.00  0.00    +0.000 A 
ATOM      3  C   UNL     1      46.149   5.480  12.434  0.00  0.00    +0.000 A 
ATOM      4  C   UNL     1      45.889   4.124  12.569  0.00  0.00    +0.000 A 
ATOM      5  N   UNL     1      46.343   3.381  13.598  0.00  0.00    +0.000 NA
ATOM      6  C   UNL     1      47.110   4.009  14.520  0.00  0.00    +0.000 A 
ENDROOT
BRANCH   1   9
ATOM      7  C   UNL     1      49.136   7.914  16.670  0.00  0.00    +0.000 C 
ATOM      8  N   UNL     1      48.328   7.285  15.656  0.00  0.00    +0.000 N 
ATOM      9  C   UNL     1      48.312   5.913  15.525  0.00  0.00    +0.000 C 
ATOM     10  O   UNL     1      48.958   5.158  16.239  0.00  0.00    +0.000 OA
ATOM     11  H   UNL     1      47.649   7.851  15.164  0.00  0.00    +0.000 HD
ENDBRANCH   1   9
BRANCH   4  12
ATOM     12  O   UNL     1      45.096   3.537  11.608  0.00  0.00    +0.000 OA
BRANCH  12  13
ATOM     13  C   UNL     1      44.893   4.353  10.442  0.00  0.00    +0.000 C 
ATOM     14  C   UNL     1      43.392   4.588  10.260  0.00  0.00    +0.000 C 
BRANCH  13  15
ATOM     15  C   UNL     1      45.509   3.643   9.245  0.00  0.00    +0.000 A 
ATOM     16  C   UNL     1      45.543   2.238   9.209  0.00  0.00    +0.000 A 
ATOM     17  C   UNL     1      46.075   1.561   8.110  0.00  0.00    +0.000 A 
ATOM     18  C   UNL     1      46.583   2.279   7.029  0.00  0.00    +0.000 A 
ATOM     19  C   UNL     1      46.565   3.672   7.053  0.00  0.00    +0.000 A 
ATOM     20  C   UNL     1      46.032   4.351   8.152  0.00  0.00    +0.000 A 
ENDBRANCH  13  15
ENDBRANCH  12  13
ENDBRANCH   4  12
TORSDOF 4
ENDMDL
MODEL 4
REMARK VINA RESULT:    -6.084      3.767      7.370
REMARK INTER + INTRA:          -8.228
REMARK INTER:                  -7.607
REMARK INTRA:                  -0.622
REMARK UNBOUND:                -0.722
REMARK  Name = 
REMARK  6 active torsions:
REMARK  status: ('A' for Active; 'I' for Inactive)
REMARK    1  A    between atoms: C_1  and  N_2
REMARK    2  A    between atoms: C_3  and  C_5
REMARK    3  A    between atoms: C_8  and  O_9
REMARK    4  A    between atoms: O_9  and  C_10
REMARK    5  A    between atoms: C_10  and  C_11
REMARK    6  A    between atoms: C_10  and  C_12
REMARK                            x       y       z     vdW  Elec       q    Type
REMARK                         _______ _______ _______ _____ _____    ______ ____
ROOT
ATOM      1  C   UNL     1      48.094   5.681  15.567  0.00  0.00    +0.000 A 
ATOM      2  C   UNL     1      47.796   6.184  14.298  0.00  0.00    +0.000 A 
ATOM      3  C   UNL     1      47.013   5.418  13.429  0.00  0.00    +0.000 A 
ATOM      4  C   UNL     1      46.581   4.169  13.850  0.00  0.00    +0.000 A 
ATOM      5  N   UNL     1      46.852   3.663  15.070  0.00  0.00    +0.000 NA
ATOM      6  C   UNL     1      47.607   4.423  15.898  0.00  0.00    +0.000 A 
ENDROOT
BRANCH   1   9
ATOM      7  C   UNL     1      49.221   8.376  17.962  0.00  0.00    +0.000 C 
ATOM      8  N   UNL     1      48.478   7.619  16.986  0.00  0.00    +0.000 N 
ATOM      9  C   UNL     1      48.937   6.392  16.555  0.00  0.00    +0.000 C 
ATOM     10  O   UNL     1      49.969   5.877  16.960  0.00  0.00    +0.000 OA
ATOM     11  H   UNL     1      47.540   7.921  16.758  0.00  0.00    +0.000 HD
ENDBRANCH   1   9
BRANCH   4  12
ATOM     12  O   UNL     1      45.810   3.440  12.971  0.00  0.00    +0.000 OA
BRANCH  12  13
ATOM     13  C   UNL     1      44.808   4.218  12.294  0.00  0.00    +0.000 C 
ATOM     14  C   UNL     1      43.434   3.849  12.857  0.00  0.00    +0.000 C 
BRANCH  13  15
ATOM     15  C   UNL     1      44.908   3.935  10.802  0.00  0.00    +0.000 A 
ATOM     16  C   UNL     1      45.444   4.909   9.941  0.00  0.00    +0.000 A 
ATOM     17  C   UNL     1      45.573   4.664   8.573  0.00  0.00    +0.000 A 
ATOM     18  C   UNL     1      45.169   3.440   8.043  0.00  0.00    +0.000 A 
ATOM     19  C   UNL     1      44.627   2.468   8.881  0.00  0.00    +0.000 A 
ATOM     20  C   UNL     1      44.497   2.711  10.251  0.00  0.00    +0.000 A 
ENDBRANCH  13  15
ENDBRANCH  12  13
ENDBRANCH   4  12
TORSDOF 4
ENDMDL
MODEL 5
REMARK VINA RESULT:    -5.943      3.022      6.843
REMARK INTER + INTRA:          -8.055
REMARK INTER:                  -7.427
REMARK INTRA:                  -0.627
REMARK UNBOUND:                -0.722
REMARK  Name = 
REMARK  6 active torsions:
REMARK  status: ('A' for Active; 'I' for Inactive)
REMARK    1  A    between atoms: C_1  and  N_2
REMARK    2  A    between atoms: C_3  and  C_5
REMARK    3  A    between atoms: C_8  and  O_9
REMARK    4  A    between atoms: O_9  and  C_10
REMARK    5  A    between atoms: C_10  and  C_11
REMARK    6  A    between atoms: C_10  and  C_12
REMARK                            x       y       z     vdW  Elec       q    Type
REMARK                         _______ _______ _______ _____ _____    ______ ____
ROOT
ATOM      1  C   UNL     1      47.614   7.807  13.524  0.00  0.00    +0.000 A 
ATOM      2  C   UNL     1      46.326   8.162  13.114  0.00  0.00    +0.000 A 
ATOM      3  C   UNL     1      45.421   7.155  12.766  0.00  0.00    +0.000 A 
ATOM      4  C   UNL     1      45.845   5.835  12.815  0.00  0.00    +0.000 A 
ATOM      5  N   UNL     1      47.081   5.467  13.210  0.00  0.00    +0.000 NA
ATOM      6  C   UNL     1      47.939   6.457  13.548  0.00  0.00    +0.000 A 
ENDROOT
BRANCH   1   9
ATOM      7  C   UNL     1      49.176  11.088  14.557  0.00  0.00    +0.000 C 
ATOM      8  N   UNL     1      48.231  10.069  14.174  0.00  0.00    +0.000 N 
ATOM      9  C   UNL     1      48.660   8.790  13.887  0.00  0.00    +0.000 C 
ATOM     10  O   UNL     1      49.832   8.443  13.938  0.00  0.00    +0.000 OA
ATOM     11  H   UNL     1      47.245  10.261  14.289  0.00  0.00    +0.000 HD
ENDBRANCH   1   9
BRANCH   4  12
ATOM     12  O   UNL     1      44.928   4.867  12.468  0.00  0.00    +0.000 OA
BRANCH  12  13
ATOM     13  C   UNL     1      44.182   5.172  11.277  0.00  0.00    +0.000 C 
ATOM     14  C   UNL     1      42.691   4.995  11.572  0.00  0.00    +0.000 C 
BRANCH  13  15
ATOM     15  C   UNL     1      44.656   4.250  10.163  0.00  0.00    +0.000 A 
ATOM     16  C   UNL     1      45.421   4.771   9.105  0.00  0.00    +0.000 A 
ATOM     17  C   UNL     1      45.893   3.941   8.085  0.00  0.00    +0.000 A 
ATOM     18  C   UNL     1      45.607   2.577   8.109  0.00  0.00    +0.000 A 
ATOM     19  C   UNL     1      44.843   2.048   9.145  0.00  0.00    +0.000 A 
ATOM     20  C   UNL     1      44.370   2.876  10.167  0.00  0.00    +0.000 A 
ENDBRANCH  13  15
ENDBRANCH  12  13
ENDBRANCH   4  12
TORSDOF 4
ENDMDL
MODEL 6
REMARK VINA RESULT:    -5.796      2.340      6.402
REMARK INTER + INTRA:          -7.873
REMARK INTER:                  -8.692
REMARK INTRA:                   0.819
REMARK UNBOUND:                -0.722
REMARK  Name = 
REMARK  6 active torsions:
REMARK  status: ('A' for Active; 'I' for Inactive)
REMARK    1  A    between atoms: C_1  and  N_2
REMARK    2  A    between atoms: C_3  and  C_5
REMARK    3  A    between atoms: C_8  and  O_9
REMARK    4  A    between atoms: O_9  and  C_10
REMARK    5  A    between atoms: C_10  and  C_11
REMARK    6  A    between atoms: C_10  and  C_12
REMARK                            x       y       z     vdW  Elec       q    Type
REMARK                         _______ _______ _______ _____ _____    ______ ____
ROOT
ATOM      1  C   UNL     1      46.599   6.363  12.843  0.00  0.00    +0.000 A 
ATOM      2  C   UNL     1      45.400   5.766  13.241  0.00  0.00    +0.000 A 
ATOM      3  C   UNL     1      44.540   5.251  12.267  0.00  0.00    +0.000 A 
ATOM      4  C   UNL     1      44.898   5.375  10.932  0.00  0.00    +0.000 A 
ATOM      5  N   UNL     1      46.051   5.942  10.523  0.00  0.00    +0.000 NA
ATOM      6  C   UNL     1      46.871   6.430  11.483  0.00  0.00    +0.000 A 
ENDROOT
BRANCH   1   9
ATOM      7  C   UNL     1      48.183   8.917  15.132  0.00  0.00    +0.000 C 
ATOM      8  N   UNL     1      47.306   8.255  14.199  0.00  0.00    +0.000 N 
ATOM      9  C   UNL     1      47.568   6.966  13.786  0.00  0.00    +0.000 C 
ATOM     10  O   UNL     1      48.530   6.315  14.172  0.00  0.00    +0.000 OA
ATOM     11  H   UNL     1      46.414   8.684  13.992  0.00  0.00    +0.000 HD
ENDBRANCH   1   9
BRANCH   4  12
ATOM     12  O   UNL     1      44.030   4.854   9.997  0.00  0.00    +0.000 OA
BRANCH  12  13
ATOM     13  C   UNL     1      44.055   3.419   9.916  0.00  0.00    +0.000 C 
ATOM     14  C   UNL     1      44.413   2.854  11.292  0.00  0.00    +0.000 C 
BRANCH  13  15
ATOM     15  C   UNL     1      45.066   3.015   8.853  0.00  0.00    +0.000 A 
ATOM     16  C   UNL     1      45.507   3.964   7.914  0.00  0.00    +0.000 A 
ATOM     17  C   UNL     1      46.457   3.628   6.946  0.00  0.00    +0.000 A 
ATOM     18  C   UNL     1      46.979   2.337   6.903  0.00  0.00    +0.000 A 
ATOM     19  C   UNL     1      46.545   1.383   7.819  0.00  0.00    +0.000 A 
ATOM     20  C   UNL     1      45.596   1.718   8.789  0.00  0.00    +0.000 A 
ENDBRANCH  13  15
ENDBRANCH  12  13
ENDBRANCH   4  12
TORSDOF 4
ENDMDL
MODEL 7
REMARK VINA RESULT:    -5.478      4.471      6.640
REMARK INTER + INTRA:          -7.482
REMARK INTER:                  -6.949
REMARK INTRA:                  -0.533
REMARK UNBOUND:                -0.722
REMARK  Name = 
REMARK  6 active torsions:
REMARK  status: ('A' for Active; 'I' for Inactive)
REMARK    1  A    between atoms: C_1  and  N_2
REMARK    2  A    between atoms: C_3  and  C_5
REMARK    3  A    between atoms: C_8  and  O_9
REMARK    4  A    between atoms: O_9  and  C_10
REMARK    5  A    between atoms: C_10  and  C_11
REMARK    6  A    between atoms: C_10  and  C_12
REMARK                            x       y       z     vdW  Elec       q    Type
REMARK                         _______ _______ _______ _____ _____    ______ ____
ROOT
ATOM      1  C   UNL     1      46.145   5.230  12.707  0.00  0.00    +0.000 A 
ATOM      2  C   UNL     1      46.932   6.350  12.986  0.00  0.00    +0.000 A 
ATOM      3  C   UNL     1      47.775   6.329  14.100  0.00  0.00    +0.000 A 
ATOM      4  C   UNL     1      47.779   5.201  14.908  0.00  0.00    +0.000 A 
ATOM      5  N   UNL     1      47.032   4.107  14.659  0.00  0.00    +0.000 NA
ATOM      6  C   UNL     1      46.227   4.146  13.571  0.00  0.00    +0.000 A 
ENDROOT
BRANCH   1   9
ATOM      7  C   UNL     1      44.135   3.748   9.871  0.00  0.00    +0.000 C 
ATOM      8  N   UNL     1      45.050   3.922  10.971  0.00  0.00    +0.000 N 
ATOM      9  C   UNL     1      45.197   5.155  11.571  0.00  0.00    +0.000 C 
ATOM     10  O   UNL     1      44.579   6.152  11.225  0.00  0.00    +0.000 OA
ATOM     11  H   UNL     1      45.446   3.096  11.401  0.00  0.00    +0.000 HD
ENDBRANCH   1   9
BRANCH   4  12
ATOM     12  O   UNL     1      48.622   5.211  15.998  0.00  0.00    +0.000 OA
BRANCH  12  13
ATOM     13  C   UNL     1      48.384   4.140  16.928  0.00  0.00    +0.000 C 
ATOM     14  C   UNL     1      47.689   4.711  18.167  0.00  0.00    +0.000 C 
BRANCH  13  15
ATOM     15  C   UNL     1      49.718   3.494  17.270  0.00  0.00    +0.000 A 
ATOM     16  C   UNL     1      49.916   2.126  17.013  0.00  0.00    +0.000 A 
ATOM     17  C   UNL     1      51.141   1.514  17.290  0.00  0.00    +0.000 A 
ATOM     18  C   UNL     1      52.186   2.261  17.828  0.00  0.00    +0.000 A 
ATOM     19  C   UNL     1      52.003   3.616  18.096  0.00  0.00    +0.000 A 
ATOM     20  C   UNL     1      50.779   4.230  17.819  0.00  0.00    +0.000 A 
ENDBRANCH  13  15
ENDBRANCH  12  13
ENDBRANCH   4  12
TORSDOF 4
ENDMDL
MODEL 8
REMARK VINA RESULT:    -5.200      2.811      4.687
REMARK INTER + INTRA:          -7.138
REMARK INTER:                  -6.525
REMARK INTRA:                  -0.613
REMARK UNBOUND:                -0.722
REMARK  Name = 
REMARK  6 active torsions:
REMARK  status: ('A' for Active; 'I' for Inactive)
REMARK    1  A    between atoms: C_1  and  N_2
REMARK    2  A    between atoms: C_3  and  C_5
REMARK    3  A    between atoms: C_8  and  O_9
REMARK    4  A    between atoms: O_9  and  C_10
REMARK    5  A    between atoms: C_10  and  C_11
REMARK    6  A    between atoms: C_10  and  C_12
REMARK                            x       y       z     vdW  Elec       q    Type
REMARK                         _______ _______ _______ _____ _____    ______ ____
ROOT
ATOM      1  C   UNL     1      45.165   4.332  11.305  0.00  0.00    +0.000 A 
ATOM      2  C   UNL     1      45.480   5.550  10.697  0.00  0.00    +0.000 A 
ATOM      3  C   UNL     1      46.142   6.530  11.440  0.00  0.00    +0.000 A 
ATOM      4  C   UNL     1      46.441   6.267  12.769  0.00  0.00    +0.000 A 
ATOM      5  N   UNL     1      46.153   5.098  13.378  0.00  0.00    +0.000 NA
ATOM      6  C   UNL     1      45.516   4.160  12.637  0.00  0.00    +0.000 A 
ENDROOT
BRANCH   1   9
ATOM      7  C   UNL     1      44.507   1.481   8.914  0.00  0.00    +0.000 C 
ATOM      8  N   UNL     1      45.124   2.574   9.622  0.00  0.00    +0.000 N 
ATOM      9  C   UNL     1      44.441   3.236  10.621  0.00  0.00    +0.000 C 
ATOM     10  O   UNL     1      43.304   2.948  10.966  0.00  0.00    +0.000 OA
ATOM     11  H   UNL     1      46.115   2.731   9.493  0.00  0.00    +0.000 HD
ENDBRANCH   1   9
BRANCH   4  12
ATOM     12  O   UNL     1      47.097   7.253  13.474  0.00  0.00    +0.000 OA
BRANCH  12  13
ATOM     13  C   UNL     1      48.528   7.116  13.472  0.00  0.00    +0.000 C 
ATOM     14  C   UNL     1      49.029   7.161  14.917  0.00  0.00    +0.000 C 
BRANCH  13  15
ATOM     15  C   UNL     1      49.116   8.239  12.630  0.00  0.00    +0.000 A 
ATOM     16  C   UNL     1      50.423   8.121  12.124  0.00  0.00    +0.000 A 
ATOM     17  C   UNL     1      50.976   9.123  11.324  0.00  0.00    +0.000 A 
ATOM     18  C   UNL     1      50.231  10.260  11.018  0.00  0.00    +0.000 A 
ATOM     19  C   UNL     1      48.939  10.397  11.520  0.00  0.00    +0.000 A 
ATOM     20  C   UNL     1      48.383   9.395  12.319  0.00  0.00    +0.000 A 
ENDBRANCH  13  15
ENDBRANCH  12  13
ENDBRANCH   4  12
TORSDOF 4
ENDMDL
MODEL 9
REMARK VINA RESULT:    -5.174      5.406      8.272
REMARK INTER + INTRA:          -7.106
REMARK INTER:                  -6.902
REMARK INTRA:                  -0.204
REMARK UNBOUND:                -0.722
REMARK  Name = 
REMARK  6 active torsions:
REMARK  status: ('A' for Active; 'I' for Inactive)
REMARK    1  A    between atoms: C_1  and  N_2
REMARK    2  A    between atoms: C_3  and  C_5
REMARK    3  A    between atoms: C_8  and  O_9
REMARK    4  A    between atoms: O_9  and  C_10
REMARK    5  A    between atoms: C_10  and  C_11
REMARK    6  A    between atoms: C_10  and  C_12
REMARK                            x       y       z     vdW  Elec       q    Type
REMARK                         _______ _______ _______ _____ _____    ______ ____
ROOT
ATOM      1  C   UNL     1      49.715   3.988  17.521  0.00  0.00    +0.000 A 
ATOM      2  C   UNL     1      49.012   2.858  17.097  0.00  0.00    +0.000 A 
ATOM      3  C   UNL     1      47.901   3.020  16.265  0.00  0.00    +0.000 A 
ATOM      4  C   UNL     1      47.518   4.305  15.910  0.00  0.00    +0.000 A 
ATOM      5  N   UNL     1      48.182   5.412  16.302  0.00  0.00    +0.000 NA
ATOM      6  C   UNL     1      49.259   5.232  17.104  0.00  0.00    +0.000 A 
ENDROOT
BRANCH   1   9
ATOM      7  C   UNL     1      53.074   2.941  18.897  0.00  0.00    +0.000 C 
ATOM      8  N   UNL     1      51.886   3.047  18.088  0.00  0.00    +0.000 N 
ATOM      9  C   UNL     1      50.887   3.936  18.425  0.00  0.00    +0.000 C 
ATOM     10  O   UNL     1      50.939   4.673  19.400  0.00  0.00    +0.000 OA
ATOM     11  H   UNL     1      51.878   2.591  17.185  0.00  0.00    +0.000 HD
ENDBRANCH   1   9
BRANCH   4  12
ATOM     12  O   UNL     1      46.420   4.430  15.087  0.00  0.00    +0.000 OA
BRANCH  12  13
ATOM     13  C   UNL     1      46.731   4.347  13.685  0.00  0.00    +0.000 C 
ATOM     14  C   UNL     1      47.551   5.577  13.289  0.00  0.00    +0.000 C 
BRANCH  13  15
ATOM     15  C   UNL     1      45.426   4.257  12.908  0.00  0.00    +0.000 A 
ATOM     16  C   UNL     1      44.373   5.138  13.210  0.00  0.00    +0.000 A 
ATOM     17  C   UNL     1      43.175   5.096  12.493  0.00  0.00    +0.000 A 
ATOM     18  C   UNL     1      43.012   4.172  11.463  0.00  0.00    +0.000 A 
ATOM     19  C   UNL     1      44.043   3.285  11.159  0.00  0.00    +0.000 A 
ATOM     20  C   UNL     1      45.242   3.326  11.874  0.00  0.00    +0.000 A 
ENDBRANCH  13  15
ENDBRANCH  12  13
ENDBRANCH   4  12
TORSDOF 4
ENDMDL
