MODEL 1
REMARK VINA RESULT:    -7.883      0.000      0.000
REMARK INTER + INTRA:         -10.213
REMARK INTER:                  -9.726
REMARK INTRA:                  -0.487
REMARK UNBOUND:                -0.487
REMARK  Name = 
REMARK  5 active torsions:
REMARK  status: ('A' for Active; 'I' for Inactive)
REMARK    1  A    between atoms: C_1  and  C_2
REMARK    2  A    between atoms: C_2  and  O_3
REMARK    3  A    between atoms: C_2  and  C_11
REMARK    4  A    between atoms: O_3  and  C_4
REMARK    5  A    between atoms: C_15  and  C_16
REMARK                            x       y       z     vdW  Elec       q    Type
REMARK                         _______ _______ _______ _____ _____    ______ ____
ROOT
ATOM      1  C   UNL     1      45.240   4.575  11.344  0.00  0.00    +0.000 A 
ATOM      2  C   UNL     1      45.635   5.836  10.924  0.00  0.00    +0.000 A 
ATOM      3  C   UNL     1      46.513   6.520  11.736  0.00  0.00    +0.000 A 
ATOM      4  N   UNL     1      47.000   6.027  12.887  0.00  0.00    +0.000 NA
ATOM      5  C   UNL     1      46.565   4.787  13.211  0.00  0.00    +0.000 A 
ATOM      6  N   UNL     1      45.707   4.032  12.493  0.00  0.00    +0.000 NA
ENDROOT
BRANCH   5   7
ATOM      7  C   UNL     1      47.096   4.211  14.505  0.00  0.00    +0.000 C 
ATOM      8  N   UNL     1      47.094   5.067  15.583  0.00  0.00    +0.000 N 
ATOM      9  O   UNL     1      47.505   3.061  14.624  0.00  0.00    +0.000 OA
ATOM     10  H   UNL     1      46.746   6.014  15.480  0.00  0.00    +0.000 HD
ATOM     11  H   UNL     1      47.428   4.735  16.476  0.00  0.00    +0.000 HD
ENDBRANCH   5   7
BRANCH   1  13
ATOM     12  C   UNL     1      43.129   3.232  11.390  0.00  0.00    +0.000 C 
ATOM     13  C   UNL     1      44.283   3.729  10.518  0.00  0.00    +0.000 C 
BRANCH  13  14
ATOM     14  O   UNL     1      44.921   2.559   9.982  0.00  0.00    +0.000 OA
BRANCH  14  15
ATOM     15  C   UNL     1      45.567   2.644   8.780  0.00  0.00    +0.000 A 
ATOM     16  C   UNL     1      45.672   3.778   7.970  0.00  0.00    +0.000 A 
ATOM     17  C   UNL     1      46.380   3.714   6.765  0.00  0.00    +0.000 A 
ATOM     18  C   UNL     1      46.983   2.523   6.380  0.00  0.00    +0.000 A 
ATOM     19  F   UNL     1      47.674   2.473   5.234  0.00  0.00    +0.000 F 
ATOM     20  C   UNL     1      46.880   1.386   7.169  0.00  0.00    +0.000 A 
ATOM     21  C   UNL     1      46.167   1.448   8.367  0.00  0.00    +0.000 A 
ENDBRANCH  14  15
ENDBRANCH  13  14
ENDBRANCH   1  13
TORSDOF 4
ENDMDL
MODEL 2
REMARK VINA RESULT:    -7.526      1.602      2.031
REMARK INTER + INTRA:          -9.773
REMARK INTER:                  -9.250
REMARK INTRA:                  -0.523
REMARK UNBOUND:                -0.487
REMARK  Name = 
REMARK  5 active torsions:
REMARK  status: ('A' for Active; 'I' for Inactive)
REMARK    1  A    between atoms: C_1  and  C_2
REMARK    2  A    between atoms: C_2  and  O_3
REMARK    3  A    between atoms: C_2  and  C_11
REMARK    4  A    between atoms: O_3  and  C_4
REMARK    5  A    between atoms: C_15  and  C_16
REMARK                            x       y       z     vdW  Elec       q    Type
REMARK                         _______ _______ _______ _____ _____    ______ ____
ROOT
ATOM      1  C   UNL     1      45.293   4.660  11.770  0.00  0.00    +0.000 A 
ATOM      2  C   UNL     1      45.433   3.425  12.384  0.00  0.00    +0.000 A 
ATOM      3  C   UNL     1      46.401   3.316  13.358  0.00  0.00    +0.000 A 
ATOM      4  N   UNL     1      47.191   4.334  13.738  0.00  0.00    +0.000 NA
ATOM      5  C   UNL     1      46.976   5.502  13.090  0.00  0.00    +0.000 A 
ATOM      6  N   UNL     1      46.062   5.718  12.122  0.00  0.00    +0.000 NA
ENDROOT
BRANCH   5   7
ATOM      7  C   UNL     1      47.857   6.662  13.497  0.00  0.00    +0.000 C 
ATOM      8  N   UNL     1      47.196   7.822  13.836  0.00  0.00    +0.000 N 
ATOM      9  O   UNL     1      49.082   6.610  13.537  0.00  0.00    +0.000 OA
ATOM     10  H   UNL     1      46.183   7.856  13.810  0.00  0.00    +0.000 HD
ATOM     11  H   UNL     1      47.732   8.627  14.126  0.00  0.00    +0.000 HD
ENDBRANCH   5   7
BRANCH   1  13
ATOM     12  C   UNL     1      42.911   5.281  11.322  0.00  0.00    +0.000 C 
ATOM     13  C   UNL     1      44.248   4.894  10.690  0.00  0.00    +0.000 C 
BRANCH  13  14
ATOM     14  O   UNL     1      44.004   3.713   9.909  0.00  0.00    +0.000 OA
BRANCH  14  15
ATOM     15  C   UNL     1      44.941   3.309   9.000  0.00  0.00    +0.000 A 
ATOM     16  C   UNL     1      45.643   4.126   8.110  0.00  0.00    +0.000 A 
ATOM     17  C   UNL     1      46.587   3.566   7.242  0.00  0.00    +0.000 A 
ATOM     18  C   UNL     1      46.828   2.197   7.272  0.00  0.00    +0.000 A 
ATOM     19  F   UNL     1      47.743   1.670   6.450  0.00  0.00    +0.000 F 
ATOM     20  C   UNL     1      46.131   1.372   8.144  0.00  0.00    +0.000 A 
ATOM     21  C   UNL     1      45.185   1.930   9.003  0.00  0.00    +0.000 A 
ENDBRANCH  14  15
ENDBRANCH  13  14
ENDBRANCH   1  13
TORSDOF 4
ENDMDL
MODEL 3
REMARK VINA RESULT:    -6.798      3.444      5.960
REMARK INTER + INTRA:          -8.875
REMARK INTER:                  -8.299
REMARK INTRA:                  -0.576
REMARK UNBOUND:                -0.487
REMARK  Name = 
REMARK  5 active torsions:
REMARK  status: ('A' for Active; 'I' for Inactive)
REMARK    1  A    between atoms: C_1  and  C_2
REMARK    2  A    between atoms: C_2  and  O_3
REMARK    3  A    between atoms: C_2  and  C_11
REMARK    4  A    between atoms: O_3  and  C_4
REMARK    5  A    between atoms: C_15  and  C_16
REMARK                            x       y       z     vdW  Elec       q    Type
REMARK                         _______ _______ _______ _____ _____    ______ ____
ROOT
ATOM      1  C   UNL     1      44.924   3.165  10.010  0.00  0.00    +0.000 A 
ATOM      2  C   UNL     1      44.399   4.112   9.144  0.00  0.00    +0.000 A 
ATOM      3  C   UNL     1      44.725   3.990   7.811  0.00  0.00    +0.000 A 
ATOM      4  N   UNL     1      45.503   3.011   7.322  0.00  0.00    +0.000 NA
ATOM      5  C   UNL     1      45.962   2.128   8.240  0.00  0.00    +0.000 A 
ATOM      6  N   UNL     1      45.709   2.155   9.565  0.00  0.00    +0.000 NA
ENDROOT
BRANCH   5   7
ATOM      7  C   UNL     1      46.844   1.018   7.715  0.00  0.00    +0.000 C 
ATOM      8  N   UNL     1      47.940   1.422   6.986  0.00  0.00    +0.000 N 
ATOM      9  O   UNL     1      46.631  -0.174   7.907  0.00  0.00    +0.000 OA
ATOM     10  H   UNL     1      48.117   2.410   6.838  0.00  0.00    +0.000 HD
ATOM     11  H   UNL     1      48.572   0.726   6.618  0.00  0.00    +0.000 HD
ENDBRANCH   5   7
BRANCH   1  13
ATOM     12  C   UNL     1      43.267   2.542  11.779  0.00  0.00    +0.000 C 
ATOM     13  C   UNL     1      44.620   3.198  11.500  0.00  0.00    +0.000 C 
BRANCH  13  14
ATOM     14  O   UNL     1      44.533   4.541  12.004  0.00  0.00    +0.000 OA
BRANCH  14  15
ATOM     15  C   UNL     1      45.679   5.197  12.354  0.00  0.00    +0.000 A 
ATOM     16  C   UNL     1      46.323   6.196  11.619  0.00  0.00    +0.000 A 
ATOM     17  C   UNL     1      47.490   6.787  12.115  0.00  0.00    +0.000 A 
ATOM     18  C   UNL     1      48.003   6.384  13.342  0.00  0.00    +0.000 A 
ATOM     19  F   UNL     1      49.110   6.966  13.819  0.00  0.00    +0.000 F 
ATOM     20  C   UNL     1      47.379   5.387  14.079  0.00  0.00    +0.000 A 
ATOM     21  C   UNL     1      46.220   4.792  13.581  0.00  0.00    +0.000 A 
ENDBRANCH  14  15
ENDBRANCH  13  14
ENDBRANCH   1  13
TORSDOF 4
ENDMDL
MODEL 4
REMARK VINA RESULT:    -6.684      1.780      2.803
REMARK INTER + INTRA:          -8.734
REMARK INTER:                  -8.300
REMARK INTRA:                  -0.434
REMARK UNBOUND:                -0.487
REMARK  Name = 
REMARK  5 active torsions:
REMARK  status: ('A' for Active; 'I' for Inactive)
REMARK    1  A    between atoms: C_1  and  C_2
REMARK    2  A    between atoms: C_2  and  O_3
REMARK    3  A    between atoms: C_2  and  C_11
REMARK    4  A    between atoms: O_3  and  C_4
REMARK    5  A    between atoms: C_15  and  C_16
REMARK                            x       y       z     vdW  Elec       q    Type
REMARK                         _______ _______ _______ _____ _____    ______ ____
ROOT
ATOM      1  C   UNL     1      46.505   6.632  12.067  0.00  0.00    +0.000 A 
ATOM      2  C   UNL     1      47.640   7.429  12.062  0.00  0.00    +0.000 A 
ATOM      3  C   UNL     1      48.612   7.139  12.994  0.00  0.00    +0.000 A 
ATOM      4  N   UNL     1      48.516   6.135  13.881  0.00  0.00    +0.000 NA
ATOM      5  C   UNL     1      47.378   5.407  13.805  0.00  0.00    +0.000 A 
ATOM      6  N   UNL     1      46.364   5.605  12.938  0.00  0.00    +0.000 NA
ENDROOT
BRANCH   5   7
ATOM      7  C   UNL     1      47.244   4.273  14.797  0.00  0.00    +0.000 C 
ATOM      8  N   UNL     1      47.002   4.647  16.100  0.00  0.00    +0.000 N 
ATOM      9  O   UNL     1      47.337   3.087  14.497  0.00  0.00    +0.000 OA
ATOM     10  H   UNL     1      46.917   5.628  16.340  0.00  0.00    +0.000 HD
ATOM     11  H   UNL     1      46.893   3.933  16.805  0.00  0.00    +0.000 HD
ENDBRANCH   5   7
BRANCH   1  13
ATOM     12  C   UNL     1      44.593   8.119  11.439  0.00  0.00    +0.000 C 
ATOM     13  C   UNL     1      45.375   6.857  11.074  0.00  0.00    +0.000 C 
BRANCH  13  14
ATOM     14  O   UNL     1      44.429   5.775  11.078  0.00  0.00    +0.000 OA
BRANCH  14  15
ATOM     15  C   UNL     1      44.674   4.673  10.308  0.00  0.00    +0.000 A 
ATOM     16  C   UNL     1      45.346   4.645   9.084  0.00  0.00    +0.000 A 
ATOM     17  C   UNL     1      45.531   3.430   8.415  0.00  0.00    +0.000 A 
ATOM     18  C   UNL     1      45.052   2.252   8.974  0.00  0.00    +0.000 A 
ATOM     19  F   UNL     1      45.247   1.091   8.337  0.00  0.00    +0.000 F 
ATOM     20  C   UNL     1      44.374   2.264  10.185  0.00  0.00    +0.000 A 
ATOM     21  C   UNL     1      44.183   3.477  10.848  0.00  0.00    +0.000 A 
ENDBRANCH  14  15
ENDBRANCH  13  14
ENDBRANCH   1  13
TORSDOF 4
ENDMDL
MODEL 5
REMARK VINA RESULT:    -6.509      1.687      2.108
REMARK INTER + INTRA:          -8.519
REMARK INTER:                  -8.657
REMARK INTRA:                   0.138
REMARK UNBOUND:                -0.487
REMARK  Name = 
REMARK  5 active torsions:
REMARK  status: ('A' for Active; 'I' for Inactive)
REMARK    1  A    between atoms: C_1  and  C_2
REMARK    2  A    between atoms: C_2  and  O_3
REMARK    3  A    between atoms: C_2  and  C_11
REMARK    4  A    between atoms: O_3  and  C_4
REMARK    5  A    between atoms: C_15  and  C_16
REMARK                            x       y       z     vdW  Elec       q    Type
REMARK                         _______ _______ _______ _____ _____    ______ ____
ROOT
ATOM      1  C   UNL     1      44.737   5.642  11.769  0.00  0.00    +0.000 A 
ATOM      2  C   UNL     1      44.334   6.913  11.389  0.00  0.00    +0.000 A 
ATOM      3  C   UNL     1      45.149   7.963  11.752  0.00  0.00    +0.000 A 
ATOM      4  N   UNL     1      46.296   7.813  12.432  0.00  0.00    +0.000 NA
ATOM      5  C   UNL     1      46.614   6.537  12.752  0.00  0.00    +0.000 A 
ATOM      6  N   UNL     1      45.889   5.439  12.452  0.00  0.00    +0.000 NA
ENDROOT
BRANCH   5   7
ATOM      7  C   UNL     1      47.900   6.342  13.523  0.00  0.00    +0.000 C 
ATOM      8  N   UNL     1      47.761   6.195  14.885  0.00  0.00    +0.000 N 
ATOM      9  O   UNL     1      49.010   6.309  13.004  0.00  0.00    +0.000 OA
ATOM     10  H   UNL     1      46.840   6.213  15.308  0.00  0.00    +0.000 HD
ATOM     11  H   UNL     1      48.585   6.051  15.452  0.00  0.00    +0.000 HD
ENDBRANCH   5   7
BRANCH   1  13
ATOM     12  C   UNL     1      44.643   3.144  11.868  0.00  0.00    +0.000 C 
ATOM     13  C   UNL     1      43.919   4.411  11.412  0.00  0.00    +0.000 C 
BRANCH  13  14
ATOM     14  O   UNL     1      43.725   4.283   9.995  0.00  0.00    +0.000 OA
BRANCH  14  15
ATOM     15  C   UNL     1      44.623   3.559   9.262  0.00  0.00    +0.000 A 
ATOM     16  C   UNL     1      44.749   2.168   9.239  0.00  0.00    +0.000 A 
ATOM     17  C   UNL     1      45.714   1.566   8.424  0.00  0.00    +0.000 A 
ATOM     18  C   UNL     1      46.541   2.354   7.633  0.00  0.00    +0.000 A 
ATOM     19  F   UNL     1      47.450   1.771   6.842  0.00  0.00    +0.000 F 
ATOM     20  C   UNL     1      46.433   3.737   7.651  0.00  0.00    +0.000 A 
ATOM     21  C   UNL     1      45.477   4.338   8.470  0.00  0.00    +0.000 A 
ENDBRANCH  14  15
ENDBRANCH  13  14
ENDBRANCH   1  13
TORSDOF 4
ENDMDL
MODEL 6
REMARK VINA RESULT:    -6.307      2.518      3.940
REMARK INTER + INTRA:          -8.268
REMARK INTER:                  -7.794
REMARK INTRA:                  -0.475
REMARK UNBOUND:                -0.487
REMARK  Name = 
REMARK  5 active torsions:
REMARK  status: ('A' for Active; 'I' for Inactive)
REMARK    1  A    between atoms: C_1  and  C_2
REMARK    2  A    between atoms: C_2  and  O_3
REMARK    3  A    between atoms: C_2  and  C_11
REMARK    4  A    between atoms: O_3  and  C_4
REMARK    5  A    between atoms: C_15  and  C_16
REMARK                            x       y       z     vdW  Elec       q    Type
REMARK                         _______ _______ _______ _____ _____    ______ ____
ROOT
ATOM      1  C   UNL     1      47.557   6.059  14.046  0.00  0.00    +0.000 A 
ATOM      2  C   UNL     1      48.533   6.935  14.496  0.00  0.00    +0.000 A 
ATOM      3  C   UNL     1      49.174   6.609  15.670  0.00  0.00    +0.000 A 
ATOM      4  N   UNL     1      48.910   5.498  16.378  0.00  0.00    +0.000 NA
ATOM      5  C   UNL     1      47.951   4.699  15.858  0.00  0.00    +0.000 A 
ATOM      6  N   UNL     1      47.258   4.923  14.721  0.00  0.00    +0.000 NA
ENDROOT
BRANCH   5   7
ATOM      7  C   UNL     1      47.632   3.444  16.639  0.00  0.00    +0.000 C 
ATOM      8  N   UNL     1      48.617   2.482  16.650  0.00  0.00    +0.000 N 
ATOM      9  O   UNL     1      46.577   3.261  17.238  0.00  0.00    +0.000 OA
ATOM     10  H   UNL     1      49.491   2.643  16.161  0.00  0.00    +0.000 HD
ATOM     11  H   UNL     1      48.465   1.626  17.164  0.00  0.00    +0.000 HD
ENDBRANCH   5   7
BRANCH   1  13
ATOM     12  C   UNL     1      46.442   7.799  12.636  0.00  0.00    +0.000 C 
ATOM     13  C   UNL     1      46.794   6.316  12.756  0.00  0.00    +0.000 C 
BRANCH  13  14
ATOM     14  O   UNL     1      45.552   5.597  12.710  0.00  0.00    +0.000 OA
BRANCH  14  15
ATOM     15  C   UNL     1      45.231   4.891  11.584  0.00  0.00    +0.000 A 
ATOM     16  C   UNL     1      45.521   5.251  10.265  0.00  0.00    +0.000 A 
ATOM     17  C   UNL     1      45.137   4.415   9.211  0.00  0.00    +0.000 A 
ATOM     18  C   UNL     1      44.474   3.223   9.479  0.00  0.00    +0.000 A 
ATOM     19  F   UNL     1      44.125   2.419   8.468  0.00  0.00    +0.000 F 
ATOM     20  C   UNL     1      44.172   2.856  10.783  0.00  0.00    +0.000 A 
ATOM     21  C   UNL     1      44.547   3.694  11.833  0.00  0.00    +0.000 A 
ENDBRANCH  14  15
ENDBRANCH  13  14
ENDBRANCH   1  13
TORSDOF 4
ENDMDL
MODEL 7
REMARK VINA RESULT:    -6.259      3.832      7.031
REMARK INTER + INTRA:          -8.210
REMARK INTER:                  -7.659
REMARK INTRA:                  -0.551
REMARK UNBOUND:                -0.487
REMARK  Name = 
REMARK  5 active torsions:
REMARK  status: ('A' for Active; 'I' for Inactive)
REMARK    1  A    between atoms: C_1  and  C_2
REMARK    2  A    between atoms: C_2  and  O_3
REMARK    3  A    between atoms: C_2  and  C_11
REMARK    4  A    between atoms: O_3  and  C_4
REMARK    5  A    between atoms: C_15  and  C_16
REMARK                            x       y       z     vdW  Elec       q    Type
REMARK                         _______ _______ _______ _____ _____    ______ ____
ROOT
ATOM      1  C   UNL     1      44.864   4.984  12.035  0.00  0.00    +0.000 A 
ATOM      2  C   UNL     1      43.916   4.081  12.493  0.00  0.00    +0.000 A 
ATOM      3  C   UNL     1      43.399   3.197  11.572  0.00  0.00    +0.000 A 
ATOM      4  N   UNL     1      43.771   3.164  10.282  0.00  0.00    +0.000 NA
ATOM      5  C   UNL     1      44.707   4.075   9.930  0.00  0.00    +0.000 A 
ATOM      6  N   UNL     1      45.276   4.987  10.745  0.00  0.00    +0.000 NA
ENDROOT
BRANCH   5   7
ATOM      7  C   UNL     1      45.140   4.061   8.480  0.00  0.00    +0.000 C 
ATOM      8  N   UNL     1      44.441   3.205   7.658  0.00  0.00    +0.000 N 
ATOM      9  O   UNL     1      46.046   4.754   8.030  0.00  0.00    +0.000 OA
ATOM     10  H   UNL     1      43.687   2.641   8.034  0.00  0.00    +0.000 HD
ATOM     11  H   UNL     1      44.678   3.160   6.678  0.00  0.00    +0.000 HD
ENDBRANCH   5   7
BRANCH   1  13
ATOM     12  C   UNL     1      45.308   7.415  12.431  0.00  0.00    +0.000 C 
ATOM     13  C   UNL     1      45.509   5.997  12.969  0.00  0.00    +0.000 C 
BRANCH  13  14
ATOM     14  O   UNL     1      46.928   5.802  13.082  0.00  0.00    +0.000 OA
BRANCH  14  15
ATOM     15  C   UNL     1      47.479   5.622  14.320  0.00  0.00    +0.000 A 
ATOM     16  C   UNL     1      48.373   6.481  14.965  0.00  0.00    +0.000 A 
ATOM     17  C   UNL     1      48.845   6.167  16.244  0.00  0.00    +0.000 A 
ATOM     18  C   UNL     1      48.417   5.004  16.874  0.00  0.00    +0.000 A 
ATOM     19  F   UNL     1      48.859   4.718  18.104  0.00  0.00    +0.000 F 
ATOM     20  C   UNL     1      47.536   4.137  16.242  0.00  0.00    +0.000 A 
ATOM     21  C   UNL     1      47.072   4.447  14.963  0.00  0.00    +0.000 A 
ENDBRANCH  14  15
ENDBRANCH  13  14
ENDBRANCH   1  13
TORSDOF 4
ENDMDL
MODEL 8
REMARK VINA RESULT:    -5.980      3.681      6.428
REMARK INTER + INTRA:          -7.866
REMARK INTER:                  -7.368
REMARK INTRA:                  -0.498
REMARK UNBOUND:                -0.487
REMARK  Name = 
REMARK  5 active torsions:
REMARK  status: ('A' for Active; 'I' for Inactive)
REMARK    1  A    between atoms: C_1  and  C_2
REMARK    2  A    between atoms: C_2  and  O_3
REMARK    3  A    between atoms: C_2  and  C_11
REMARK    4  A    between atoms: O_3  and  C_4
REMARK    5  A    between atoms: C_15  and  C_16
REMARK                            x       y       z     vdW  Elec       q    Type
REMARK                         _______ _______ _______ _____ _____    ______ ____
ROOT
ATOM      1  C   UNL     1      44.723   5.189  11.718  0.00  0.00    +0.000 A 
ATOM      2  C   UNL     1      43.808   4.617  12.588  0.00  0.00    +0.000 A 
ATOM      3  C   UNL     1      43.239   3.423  12.201  0.00  0.00    +0.000 A 
ATOM      4  N   UNL     1      43.532   2.798  11.049  0.00  0.00    +0.000 NA
ATOM      5  C   UNL     1      44.442   3.426  10.269  0.00  0.00    +0.000 A 
ATOM      6  N   UNL     1      45.056   4.595  10.547  0.00  0.00    +0.000 NA
ENDROOT
BRANCH   5   7
ATOM      7  C   UNL     1      44.786   2.744   8.964  0.00  0.00    +0.000 C 
ATOM      8  N   UNL     1      44.414   3.420   7.823  0.00  0.00    +0.000 N 
ATOM      9  O   UNL     1      45.360   1.664   8.887  0.00  0.00    +0.000 OA
ATOM     10  H   UNL     1      43.948   4.317   7.892  0.00  0.00    +0.000 HD
ATOM     11  H   UNL     1      44.626   3.018   6.921  0.00  0.00    +0.000 HD
ENDBRANCH   5   7
BRANCH   1  13
ATOM     12  C   UNL     1      44.621   7.680  11.493  0.00  0.00    +0.000 C 
ATOM     13  C   UNL     1      45.419   6.500  12.050  0.00  0.00    +0.000 C 
BRANCH  13  14
ATOM     14  O   UNL     1      46.728   6.581  11.464  0.00  0.00    +0.000 OA
BRANCH  14  15
ATOM     15  C   UNL     1      47.787   6.953  12.244  0.00  0.00    +0.000 A 
ATOM     16  C   UNL     1      47.971   6.649  13.596  0.00  0.00    +0.000 A 
ATOM     17  C   UNL     1      49.119   7.091  14.262  0.00  0.00    +0.000 A 
ATOM     18  C   UNL     1      50.077   7.827  13.576  0.00  0.00    +0.000 A 
ATOM     19  F   UNL     1      51.181   8.233  14.214  0.00  0.00    +0.000 F 
ATOM     20  C   UNL     1      49.904   8.144  12.236  0.00  0.00    +0.000 A 
ATOM     21  C   UNL     1      48.756   7.710  11.574  0.00  0.00    +0.000 A 
ENDBRANCH  14  15
ENDBRANCH  13  14
ENDBRANCH   1  13
TORSDOF 4
ENDMDL
MODEL 9
REMARK VINA RESULT:    -5.846      4.648      7.427
REMARK INTER + INTRA:          -7.700
REMARK INTER:                  -7.205
REMARK INTRA:                  -0.495
REMARK UNBOUND:                -0.487
REMARK  Name = 
REMARK  5 active torsions:
REMARK  status: ('A' for Active; 'I' for Inactive)
REMARK    1  A    between atoms: C_1  and  C_2
REMARK    2  A    between atoms: C_2  and  O_3
REMARK    3  A    between atoms: C_2  and  C_11
REMARK    4  A    between atoms: O_3  and  C_4
REMARK    5  A    between atoms: C_15  and  C_16
REMARK                            x       y       z     vdW  Elec       q    Type
REMARK                         _______ _______ _______ _____ _____    ______ ____
ROOT
ATOM      1  C   UNL     1      46.271   6.201  13.000  0.00  0.00    +0.000 A 
ATOM      2  C   UNL     1      45.743   7.338  12.407  0.00  0.00    +0.000 A 
ATOM      3  C   UNL     1      44.624   7.172  11.622  0.00  0.00    +0.000 A 
ATOM      4  N   UNL     1      44.029   5.986  11.416  0.00  0.00    +0.000 NA
ATOM      5  C   UNL     1      44.608   4.935  12.042  0.00  0.00    +0.000 A 
ATOM      6  N   UNL     1      45.704   4.983  12.828  0.00  0.00    +0.000 NA
ENDROOT
BRANCH   5   7
ATOM      7  C   UNL     1      43.959   3.587  11.823  0.00  0.00    +0.000 C 
ATOM      8  N   UNL     1      44.548   2.528  12.476  0.00  0.00    +0.000 N 
ATOM      9  O   UNL     1      42.970   3.411  11.119  0.00  0.00    +0.000 OA
ATOM     10  H   UNL     1      45.360   2.681  13.065  0.00  0.00    +0.000 HD
ATOM     11  H   UNL     1      44.152   1.605  12.376  0.00  0.00    +0.000 HD
ENDBRANCH   5   7
BRANCH   1  13
ATOM     12  C   UNL     1      48.707   6.765  13.100  0.00  0.00    +0.000 C 
ATOM     13  C   UNL     1      47.499   6.271  13.896  0.00  0.00    +0.000 C 
BRANCH  13  14
ATOM     14  O   UNL     1      47.857   4.984  14.424  0.00  0.00    +0.000 OA
BRANCH  14  15
ATOM     15  C   UNL     1      48.056   4.847  15.769  0.00  0.00    +0.000 A 
ATOM     16  C   UNL     1      48.684   5.765  16.614  0.00  0.00    +0.000 A 
ATOM     17  C   UNL     1      48.804   5.489  17.981  0.00  0.00    +0.000 A 
ATOM     18  C   UNL     1      48.291   4.304  18.495  0.00  0.00    +0.000 A 
ATOM     19  F   UNL     1      48.394   4.054  19.806  0.00  0.00    +0.000 F 
ATOM     20  C   UNL     1      47.673   3.379  17.666  0.00  0.00    +0.000 A 
ATOM     21  C   UNL     1      47.561   3.651  16.302  0.00  0.00    +0.000 A 
ENDBRANCH  14  15
ENDBRANCH  13  14
ENDBRANCH   1  13
TORSDOF 4
ENDMDL
