MODEL 1
REMARK VINA RESULT:    -8.384      0.000      0.000
REMARK INTER + INTRA:         -11.044
REMARK INTER:                 -10.344
REMARK INTRA:                  -0.699
REMARK UNBOUND:                -0.699
REMARK  Name = 
REMARK  5 active torsions:
REMARK  status: ('A' for Active; 'I' for Inactive)
REMARK    1  A    between atoms: C_1  and  O_2
REMARK    2  A    between atoms: O_2  and  C_3
REMARK    3  A    between atoms: C_6  and  C_7
REMARK    4  A    between atoms: C_7  and  N_8
REMARK    5  A    between atoms: C_13  and  C_14
REMARK                            x       y       z     vdW  Elec       q    Type
REMARK                         _______ _______ _______ _____ _____    ______ ____
ROOT
ATOM      1  N   UNL     1      44.257   2.885  11.378  0.00  0.00    +0.000 N 
ATOM      2  C   UNL     1      45.106   3.702  12.111  0.00  0.00    +0.000 A 
ATOM      3  N   UNL     1      45.939   3.078  12.950  0.00  0.00    +0.000 NA
ATOM      4  C   UNL     1      46.746   3.857  13.692  0.00  0.00    +0.000 A 
ATOM      5  C   UNL     1      46.766   5.226  13.610  0.00  0.00    +0.000 A 
ATOM      6  C   UNL     1      45.897   5.794  12.702  0.00  0.00    +0.000 A 
ATOM      7  N   UNL     1      45.063   5.031  11.958  0.00  0.00    +0.000 NA
ATOM      8  H   UNL     1      44.663   1.957  11.384  0.00  0.00    +0.000 HD
ENDROOT
BRANCH   6   9
ATOM      9  C   UNL     1      45.803   7.250  12.462  0.00  0.00    +0.000 A 
ATOM     10  C   UNL     1      46.744   8.161  12.984  0.00  0.00    +0.000 A 
ATOM     11  C   UNL     1      46.651   9.537  12.730  0.00  0.00    +0.000 A 
ATOM     12  C   UNL     1      45.614  10.030  11.945  0.00  0.00    +0.000 A 
ATOM     13  C   UNL     1      44.680   9.147  11.423  0.00  0.00    +0.000 A 
ATOM     14  F   UNL     1      43.682   9.618  10.664  0.00  0.00    +0.000 F 
ATOM     15  C   UNL     1      44.766   7.780  11.672  0.00  0.00    +0.000 A 
ENDBRANCH   6   9
BRANCH   1  16
ATOM     16  C   UNL     1      43.921   3.404  10.068  0.00  0.00    +0.000 C 
BRANCH  16  20
ATOM     17  C   UNL     1      46.973   2.202   7.233  0.00  0.00    +0.000 A 
ATOM     18  C   UNL     1      46.605   3.543   7.345  0.00  0.00    +0.000 A 
ATOM     19  C   UNL     1      45.609   3.925   8.252  0.00  0.00    +0.000 A 
ATOM     20  C   UNL     1      44.965   2.976   9.060  0.00  0.00    +0.000 A 
ATOM     21  C   UNL     1      45.341   1.632   8.941  0.00  0.00    +0.000 A 
ATOM     22  C   UNL     1      46.336   1.253   8.036  0.00  0.00    +0.000 A 
BRANCH  17  24
ATOM     23  C   UNL     1      48.053   2.311   5.119  0.00  0.00    +0.000 C 
ATOM     24  O   UNL     1      47.925   1.694   6.394  0.00  0.00    +0.000 OA
ENDBRANCH  17  24
ENDBRANCH  16  20
ENDBRANCH   1  16
TORSDOF 4
ENDMDL
MODEL 2
REMARK VINA RESULT:    -7.902      1.786      2.309
REMARK INTER + INTRA:         -10.449
REMARK INTER:                  -9.788
REMARK INTRA:                  -0.661
REMARK UNBOUND:                -0.699
REMARK  Name = 
REMARK  5 active torsions:
REMARK  status: ('A' for Active; 'I' for Inactive)
REMARK    1  A    between atoms: C_1  and  O_2
REMARK    2  A    between atoms: O_2  and  C_3
REMARK    3  A    between atoms: C_6  and  C_7
REMARK    4  A    between atoms: C_7  and  N_8
REMARK    5  A    between atoms: C_13  and  C_14
REMARK                            x       y       z     vdW  Elec       q    Type
REMARK                         _______ _______ _______ _____ _____    ______ ____
ROOT
ATOM      1  N   UNL     1      43.914   4.160  11.901  0.00  0.00    +0.000 N 
ATOM      2  C   UNL     1      45.053   4.655  12.519  0.00  0.00    +0.000 A 
ATOM      3  N   UNL     1      45.620   3.856  13.428  0.00  0.00    +0.000 NA
ATOM      4  C   UNL     1      46.706   4.334  14.060  0.00  0.00    +0.000 A 
ATOM      5  C   UNL     1      47.255   5.565  13.802  0.00  0.00    +0.000 A 
ATOM      6  C   UNL     1      46.628   6.319  12.832  0.00  0.00    +0.000 A 
ATOM      7  N   UNL     1      45.523   5.866  12.197  0.00  0.00    +0.000 NA
ATOM      8  H   UNL     1      43.925   3.154  12.024  0.00  0.00    +0.000 HD
ENDROOT
BRANCH   6   9
ATOM      9  C   UNL     1      47.098   7.656  12.408  0.00  0.00    +0.000 A 
ATOM     10  C   UNL     1      46.265   8.793  12.443  0.00  0.00    +0.000 A 
ATOM     11  C   UNL     1      46.732  10.057  12.056  0.00  0.00    +0.000 A 
ATOM     12  C   UNL     1      48.047  10.209  11.627  0.00  0.00    +0.000 A 
ATOM     13  C   UNL     1      48.880   9.102  11.588  0.00  0.00    +0.000 A 
ATOM     14  F   UNL     1      50.147   9.246  11.180  0.00  0.00    +0.000 F 
ATOM     15  C   UNL     1      48.422   7.844  11.970  0.00  0.00    +0.000 A 
ENDBRANCH   6   9
BRANCH   1  16
ATOM     16  C   UNL     1      43.736   4.612  10.536  0.00  0.00    +0.000 C 
BRANCH  16  20
ATOM     17  C   UNL     1      46.143   2.250   7.812  0.00  0.00    +0.000 A 
ATOM     18  C   UNL     1      45.297   1.624   8.727  0.00  0.00    +0.000 A 
ATOM     19  C   UNL     1      44.532   2.390   9.615  0.00  0.00    +0.000 A 
ATOM     20  C   UNL     1      44.600   3.791   9.603  0.00  0.00    +0.000 A 
ATOM     21  C   UNL     1      45.451   4.412   8.681  0.00  0.00    +0.000 A 
ATOM     22  C   UNL     1      46.213   3.645   7.795  0.00  0.00    +0.000 A 
BRANCH  17  24
ATOM     23  C   UNL     1      48.107   2.327   6.475  0.00  0.00    +0.000 C 
ATOM     24  O   UNL     1      46.941   1.627   6.893  0.00  0.00    +0.000 OA
ENDBRANCH  17  24
ENDBRANCH  16  20
ENDBRANCH   1  16
TORSDOF 4
ENDMDL
MODEL 3
REMARK VINA RESULT:    -7.616      4.227      7.886
REMARK INTER + INTRA:         -10.097
REMARK INTER:                  -9.671
REMARK INTRA:                  -0.426
REMARK UNBOUND:                -0.699
REMARK  Name = 
REMARK  5 active torsions:
REMARK  status: ('A' for Active; 'I' for Inactive)
REMARK    1  A    between atoms: C_1  and  O_2
REMARK    2  A    between atoms: O_2  and  C_3
REMARK    3  A    between atoms: C_6  and  C_7
REMARK    4  A    between atoms: C_7  and  N_8
REMARK    5  A    between atoms: C_13  and  C_14
REMARK                            x       y       z     vdW  Elec       q    Type
REMARK                         _______ _______ _______ _____ _____    ______ ____
ROOT
ATOM      1  N   UNL     1      45.437   4.400  14.094  0.00  0.00    +0.000 N 
ATOM      2  C   UNL     1      44.752   4.496  12.892  0.00  0.00    +0.000 A 
ATOM      3  N   UNL     1      43.562   5.102  12.944  0.00  0.00    +0.000 NA
ATOM      4  C   UNL     1      42.870   5.175  11.793  0.00  0.00    +0.000 A 
ATOM      5  C   UNL     1      43.330   4.686  10.597  0.00  0.00    +0.000 A 
ATOM      6  C   UNL     1      44.577   4.097  10.620  0.00  0.00    +0.000 A 
ATOM      7  N   UNL     1      45.284   3.997  11.770  0.00  0.00    +0.000 NA
ATOM      8  H   UNL     1      45.046   5.100  14.714  0.00  0.00    +0.000 HD
ENDROOT
BRANCH   6   9
ATOM      9  C   UNL     1      45.240   3.541   9.421  0.00  0.00    +0.000 A 
ATOM     10  C   UNL     1      45.756   4.361   8.397  0.00  0.00    +0.000 A 
ATOM     11  C   UNL     1      46.400   3.818   7.277  0.00  0.00    +0.000 A 
ATOM     12  C   UNL     1      46.543   2.439   7.159  0.00  0.00    +0.000 A 
ATOM     13  C   UNL     1      46.042   1.618   8.157  0.00  0.00    +0.000 A 
ATOM     14  F   UNL     1      46.180   0.290   8.049  0.00  0.00    +0.000 F 
ATOM     15  C   UNL     1      45.401   2.151   9.273  0.00  0.00    +0.000 A 
ENDBRANCH   6   9
BRANCH   1  16
ATOM     16  C   UNL     1      46.879   4.433  13.958  0.00  0.00    +0.000 C 
BRANCH  16  20
ATOM     17  C   UNL     1      48.802   4.497  17.843  0.00  0.00    +0.000 A 
ATOM     18  C   UNL     1      48.177   3.338  17.386  0.00  0.00    +0.000 A 
ATOM     19  C   UNL     1      47.544   3.325  16.137  0.00  0.00    +0.000 A 
ATOM     20  C   UNL     1      47.526   4.469  15.326  0.00  0.00    +0.000 A 
ATOM     21  C   UNL     1      48.157   5.629  15.791  0.00  0.00    +0.000 A 
ATOM     22  C   UNL     1      48.788   5.639  17.038  0.00  0.00    +0.000 A 
BRANCH  17  24
ATOM     23  C   UNL     1      48.645   4.805  20.194  0.00  0.00    +0.000 C 
ATOM     24  O   UNL     1      49.454   4.648  19.035  0.00  0.00    +0.000 OA
ENDBRANCH  17  24
ENDBRANCH  16  20
ENDBRANCH   1  16
TORSDOF 4
ENDMDL
MODEL 4
REMARK VINA RESULT:    -7.401      3.425      6.939
REMARK INTER + INTRA:          -9.831
REMARK INTER:                  -9.252
REMARK INTRA:                  -0.580
REMARK UNBOUND:                -0.699
REMARK  Name = 
REMARK  5 active torsions:
REMARK  status: ('A' for Active; 'I' for Inactive)
REMARK    1  A    between atoms: C_1  and  O_2
REMARK    2  A    between atoms: O_2  and  C_3
REMARK    3  A    between atoms: C_6  and  C_7
REMARK    4  A    between atoms: C_7  and  N_8
REMARK    5  A    between atoms: C_13  and  C_14
REMARK                            x       y       z     vdW  Elec       q    Type
REMARK                         _______ _______ _______ _____ _____    ______ ____
ROOT
ATOM      1  N   UNL     1      44.621   6.217  12.444  0.00  0.00    +0.000 N 
ATOM      2  C   UNL     1      44.371   4.982  11.864  0.00  0.00    +0.000 A 
ATOM      3  N   UNL     1      43.478   4.211  12.492  0.00  0.00    +0.000 NA
ATOM      4  C   UNL     1      43.248   2.997  11.962  0.00  0.00    +0.000 A 
ATOM      5  C   UNL     1      43.858   2.537  10.822  0.00  0.00    +0.000 A 
ATOM      6  C   UNL     1      44.747   3.402  10.218  0.00  0.00    +0.000 A 
ATOM      7  N   UNL     1      45.007   4.621  10.744  0.00  0.00    +0.000 NA
ATOM      8  H   UNL     1      43.833   6.425  13.047  0.00  0.00    +0.000 HD
ENDROOT
BRANCH   6   9
ATOM      9  C   UNL     1      45.475   3.084   8.969  0.00  0.00    +0.000 A 
ATOM     10  C   UNL     1      45.840   4.076   8.038  0.00  0.00    +0.000 A 
ATOM     11  C   UNL     1      46.548   3.760   6.869  0.00  0.00    +0.000 A 
ATOM     12  C   UNL     1      46.906   2.441   6.611  0.00  0.00    +0.000 A 
ATOM     13  C   UNL     1      46.556   1.452   7.518  0.00  0.00    +0.000 A 
ATOM     14  F   UNL     1      46.902   0.182   7.274  0.00  0.00    +0.000 F 
ATOM     15  C   UNL     1      45.853   1.760   8.679  0.00  0.00    +0.000 A 
ENDBRANCH   6   9
BRANCH   1  16
ATOM     16  C   UNL     1      44.962   7.258  11.496  0.00  0.00    +0.000 C 
BRANCH  16  20
ATOM     17  C   UNL     1      48.874   8.914  12.362  0.00  0.00    +0.000 A 
ATOM     18  C   UNL     1      48.740   7.570  12.015  0.00  0.00    +0.000 A 
ATOM     19  C   UNL     1      47.473   7.035  11.750  0.00  0.00    +0.000 A 
ATOM     20  C   UNL     1      46.322   7.833  11.827  0.00  0.00    +0.000 A 
ATOM     21  C   UNL     1      46.465   9.182  12.176  0.00  0.00    +0.000 A 
ATOM     22  C   UNL     1      47.731   9.713  12.440  0.00  0.00    +0.000 A 
BRANCH  17  24
ATOM     23  C   UNL     1      50.844   9.956  11.536  0.00  0.00    +0.000 C 
ATOM     24  O   UNL     1      50.044   9.562  12.645  0.00  0.00    +0.000 OA
ENDBRANCH  17  24
ENDBRANCH  16  20
ENDBRANCH   1  16
TORSDOF 4
ENDMDL
MODEL 5
REMARK VINA RESULT:    -7.231      3.534      6.896
REMARK INTER + INTRA:          -9.621
REMARK INTER:                  -9.016
REMARK INTRA:                  -0.606
REMARK UNBOUND:                -0.699
REMARK  Name = 
REMARK  5 active torsions:
REMARK  status: ('A' for Active; 'I' for Inactive)
REMARK    1  A    between atoms: C_1  and  O_2
REMARK    2  A    between atoms: O_2  and  C_3
REMARK    3  A    between atoms: C_6  and  C_7
REMARK    4  A    between atoms: C_7  and  N_8
REMARK    5  A    between atoms: C_13  and  C_14
REMARK                            x       y       z     vdW  Elec       q    Type
REMARK                         _______ _______ _______ _____ _____    ______ ____
ROOT
ATOM      1  N   UNL     1      45.176   6.760  12.901  0.00  0.00    +0.000 N 
ATOM      2  C   UNL     1      44.624   5.638  12.300  0.00  0.00    +0.000 A 
ATOM      3  N   UNL     1      43.528   5.142  12.882  0.00  0.00    +0.000 NA
ATOM      4  C   UNL     1      43.000   4.035  12.331  0.00  0.00    +0.000 A 
ATOM      5  C   UNL     1      43.510   3.424  11.213  0.00  0.00    +0.000 A 
ATOM      6  C   UNL     1      44.626   4.012  10.656  0.00  0.00    +0.000 A 
ATOM      7  N   UNL     1      45.186   5.115  11.204  0.00  0.00    +0.000 NA
ATOM      8  H   UNL     1      44.450   7.176  13.473  0.00  0.00    +0.000 HD
ENDROOT
BRANCH   6   9
ATOM      9  C   UNL     1      45.293   3.504   9.437  0.00  0.00    +0.000 A 
ATOM     10  C   UNL     1      45.803   4.365   8.444  0.00  0.00    +0.000 A 
ATOM     11  C   UNL     1      46.451   3.868   7.304  0.00  0.00    +0.000 A 
ATOM     12  C   UNL     1      46.603   2.495   7.136  0.00  0.00    +0.000 A 
ATOM     13  C   UNL     1      46.108   1.634   8.104  0.00  0.00    +0.000 A 
ATOM     14  F   UNL     1      46.255   0.312   7.946  0.00  0.00    +0.000 F 
ATOM     15  C   UNL     1      45.463   2.122   9.237  0.00  0.00    +0.000 A 
ENDBRANCH   6   9
BRANCH   1  16
ATOM     16  C   UNL     1      45.829   7.666  11.979  0.00  0.00    +0.000 C 
BRANCH  16  20
ATOM     17  C   UNL     1      49.952   8.192  13.207  0.00  0.00    +0.000 A 
ATOM     18  C   UNL     1      48.912   8.541  14.068  0.00  0.00    +0.000 A 
ATOM     19  C   UNL     1      47.581   8.384  13.662  0.00  0.00    +0.000 A 
ATOM     20  C   UNL     1      47.269   7.875  12.392  0.00  0.00    +0.000 A 
ATOM     21  C   UNL     1      48.320   7.527  11.534  0.00  0.00    +0.000 A 
ATOM     22  C   UNL     1      49.648   7.685  11.942  0.00  0.00    +0.000 A 
BRANCH  17  24
ATOM     23  C   UNL     1      52.148   8.552  12.369  0.00  0.00    +0.000 C 
ATOM     24  O   UNL     1      51.290   8.294  13.474  0.00  0.00    +0.000 OA
ENDBRANCH  17  24
ENDBRANCH  16  20
ENDBRANCH   1  16
TORSDOF 4
ENDMDL
MODEL 6
REMARK VINA RESULT:    -7.211      3.450      6.930
REMARK INTER + INTRA:          -9.597
REMARK INTER:                  -9.170
REMARK INTRA:                  -0.427
REMARK UNBOUND:                -0.699
REMARK  Name = 
REMARK  5 active torsions:
REMARK  status: ('A' for Active; 'I' for Inactive)
REMARK    1  A    between atoms: C_1  and  O_2
REMARK    2  A    between atoms: O_2  and  C_3
REMARK    3  A    between atoms: C_6  and  C_7
REMARK    4  A    between atoms: C_7  and  N_8
REMARK    5  A    between atoms: C_13  and  C_14
REMARK                            x       y       z     vdW  Elec       q    Type
REMARK                         _______ _______ _______ _____ _____    ______ ____
ROOT
ATOM      1  N   UNL     1      45.659   4.799  13.917  0.00  0.00    +0.000 N 
ATOM      2  C   UNL     1      44.924   4.770  12.740  0.00  0.00    +0.000 A 
ATOM      3  N   UNL     1      43.716   5.339  12.791  0.00  0.00    +0.000 NA
ATOM      4  C   UNL     1      42.977   5.291  11.669  0.00  0.00    +0.000 A 
ATOM      5  C   UNL     1      43.409   4.718  10.499  0.00  0.00    +0.000 A 
ATOM      6  C   UNL     1      44.677   4.176  10.519  0.00  0.00    +0.000 A 
ATOM      7  N   UNL     1      45.431   4.197  11.643  0.00  0.00    +0.000 NA
ATOM      8  H   UNL     1      45.267   5.536  14.492  0.00  0.00    +0.000 HD
ENDROOT
BRANCH   6   9
ATOM      9  C   UNL     1      45.313   3.543   9.343  0.00  0.00    +0.000 A 
ATOM     10  C   UNL     1      45.877   4.297   8.295  0.00  0.00    +0.000 A 
ATOM     11  C   UNL     1      46.494   3.681   7.197  0.00  0.00    +0.000 A 
ATOM     12  C   UNL     1      46.561   2.293   7.128  0.00  0.00    +0.000 A 
ATOM     13  C   UNL     1      46.012   1.535   8.152  0.00  0.00    +0.000 A 
ATOM     14  F   UNL     1      46.077   0.199   8.089  0.00  0.00    +0.000 F 
ATOM     15  C   UNL     1      45.397   2.141   9.244  0.00  0.00    +0.000 A 
ENDBRANCH   6   9
BRANCH   1  16
ATOM     16  C   UNL     1      47.092   4.869  13.719  0.00  0.00    +0.000 C 
BRANCH  16  20
ATOM     17  C   UNL     1      48.388   8.961  13.117  0.00  0.00    +0.000 A 
ATOM     18  C   UNL     1      48.465   8.378  14.381  0.00  0.00    +0.000 A 
ATOM     19  C   UNL     1      48.032   7.060  14.575  0.00  0.00    +0.000 A 
ATOM     20  C   UNL     1      47.516   6.306  13.510  0.00  0.00    +0.000 A 
ATOM     21  C   UNL     1      47.443   6.900  12.243  0.00  0.00    +0.000 A 
ATOM     22  C   UNL     1      47.877   8.215  12.053  0.00  0.00    +0.000 A 
BRANCH  17  24
ATOM     23  C   UNL     1      49.278  10.431  11.474  0.00  0.00    +0.000 C 
ATOM     24  O   UNL     1      48.774  10.232  12.789  0.00  0.00    +0.000 OA
ENDBRANCH  17  24
ENDBRANCH  16  20
ENDBRANCH   1  16
TORSDOF 4
ENDMDL
MODEL 7
REMARK VINA RESULT:    -7.134      4.145      7.605
REMARK INTER + INTRA:          -9.502
REMARK INTER:                  -9.040
REMARK INTRA:                  -0.462
REMARK UNBOUND:                -0.699
REMARK  Name = 
REMARK  5 active torsions:
REMARK  status: ('A' for Active; 'I' for Inactive)
REMARK    1  A    between atoms: C_1  and  O_2
REMARK    2  A    between atoms: O_2  and  C_3
REMARK    3  A    between atoms: C_6  and  C_7
REMARK    4  A    between atoms: C_7  and  N_8
REMARK    5  A    between atoms: C_13  and  C_14
REMARK                            x       y       z     vdW  Elec       q    Type
REMARK                         _______ _______ _______ _____ _____    ______ ____
ROOT
ATOM      1  N   UNL     1      45.957   5.918  13.764  0.00  0.00    +0.000 N 
ATOM      2  C   UNL     1      45.063   5.451  12.812  0.00  0.00    +0.000 A 
ATOM      3  N   UNL     1      43.767   5.632  13.088  0.00  0.00    +0.000 NA
ATOM      4  C   UNL     1      42.886   5.155  12.192  0.00  0.00    +0.000 A 
ATOM      5  C   UNL     1      43.250   4.528  11.027  0.00  0.00    +0.000 A 
ATOM      6  C   UNL     1      44.605   4.403  10.802  0.00  0.00    +0.000 A 
ATOM      7  N   UNL     1      45.510   4.859  11.699  0.00  0.00    +0.000 NA
ATOM      8  H   UNL     1      45.461   6.598  14.327  0.00  0.00    +0.000 HD
ENDROOT
BRANCH   6   9
ATOM      9  C   UNL     1      45.177   3.779   9.589  0.00  0.00    +0.000 A 
ATOM     10  C   UNL     1      45.707   4.542   8.529  0.00  0.00    +0.000 A 
ATOM     11  C   UNL     1      46.264   3.934   7.395  0.00  0.00    +0.000 A 
ATOM     12  C   UNL     1      46.303   2.547   7.300  0.00  0.00    +0.000 A 
ATOM     13  C   UNL     1      45.787   1.781   8.334  0.00  0.00    +0.000 A 
ATOM     14  F   UNL     1      45.826   0.445   8.247  0.00  0.00    +0.000 F 
ATOM     15  C   UNL     1      45.232   2.379   9.463  0.00  0.00    +0.000 A 
ENDBRANCH   6   9
BRANCH   1  16
ATOM     16  C   UNL     1      47.219   6.373  13.218  0.00  0.00    +0.000 C 
BRANCH  16  20
ATOM     17  C   UNL     1      50.184   6.694  16.364  0.00  0.00    +0.000 A 
ATOM     18  C   UNL     1      49.050   5.902  16.543  0.00  0.00    +0.000 A 
ATOM     19  C   UNL     1      48.087   5.812  15.530  0.00  0.00    +0.000 A 
ATOM     20  C   UNL     1      48.242   6.511  14.324  0.00  0.00    +0.000 A 
ATOM     21  C   UNL     1      49.383   7.304  14.152  0.00  0.00    +0.000 A 
ATOM     22  C   UNL     1      50.343   7.392  15.165  0.00  0.00    +0.000 A 
BRANCH  17  24
ATOM     23  C   UNL     1      52.523   6.856  16.752  0.00  0.00    +0.000 C 
ATOM     24  O   UNL     1      51.196   6.870  17.265  0.00  0.00    +0.000 OA
ENDBRANCH  17  24
ENDBRANCH  16  20
ENDBRANCH   1  16
TORSDOF 4
ENDMDL
MODEL 8
REMARK VINA RESULT:    -6.808      4.583      6.000
REMARK INTER + INTRA:          -9.099
REMARK INTER:                  -8.621
REMARK INTRA:                  -0.478
REMARK UNBOUND:                -0.699
REMARK  Name = 
REMARK  5 active torsions:
REMARK  status: ('A' for Active; 'I' for Inactive)
REMARK    1  A    between atoms: C_1  and  O_2
REMARK    2  A    between atoms: O_2  and  C_3
REMARK    3  A    between atoms: C_6  and  C_7
REMARK    4  A    between atoms: C_7  and  N_8
REMARK    5  A    between atoms: C_13  and  C_14
REMARK                            x       y       z     vdW  Elec       q    Type
REMARK                         _______ _______ _______ _____ _____    ______ ____
ROOT
ATOM      1  N   UNL     1      46.988   3.461  14.660  0.00  0.00    +0.000 N 
ATOM      2  C   UNL     1      47.742   3.477  15.824  0.00  0.00    +0.000 A 
ATOM      3  N   UNL     1      48.621   2.480  15.966  0.00  0.00    +0.000 NA
ATOM      4  C   UNL     1      49.337   2.463  17.103  0.00  0.00    +0.000 A 
ATOM      5  C   UNL     1      49.223   3.411  18.089  0.00  0.00    +0.000 A 
ATOM      6  C   UNL     1      48.313   4.422  17.856  0.00  0.00    +0.000 A 
ATOM      7  N   UNL     1      47.569   4.449  16.727  0.00  0.00    +0.000 NA
ATOM      8  H   UNL     1      47.484   2.879  13.995  0.00  0.00    +0.000 HD
ENDROOT
BRANCH   6   9
ATOM      9  C   UNL     1      48.078   5.540  18.795  0.00  0.00    +0.000 A 
ATOM     10  C   UNL     1      48.008   5.350  20.190  0.00  0.00    +0.000 A 
ATOM     11  C   UNL     1      47.805   6.424  21.068  0.00  0.00    +0.000 A 
ATOM     12  C   UNL     1      47.670   7.715  20.566  0.00  0.00    +0.000 A 
ATOM     13  C   UNL     1      47.739   7.920  19.196  0.00  0.00    +0.000 A 
ATOM     14  F   UNL     1      47.613   9.161  18.709  0.00  0.00    +0.000 F 
ATOM     15  C   UNL     1      47.939   6.857  18.319  0.00  0.00    +0.000 A 
ENDBRANCH   6   9
BRANCH   1  16
ATOM     16  C   UNL     1      46.619   4.775  14.174  0.00  0.00    +0.000 C 
BRANCH  16  20
ATOM     17  C   UNL     1      44.734   4.425  10.287  0.00  0.00    +0.000 A 
ATOM     18  C   UNL     1      45.298   5.635  10.689  0.00  0.00    +0.000 A 
ATOM     19  C   UNL     1      45.893   5.748  11.951  0.00  0.00    +0.000 A 
ATOM     20  C   UNL     1      45.934   4.656  12.830  0.00  0.00    +0.000 A 
ATOM     21  C   UNL     1      45.366   3.444  12.419  0.00  0.00    +0.000 A 
ATOM     22  C   UNL     1      44.773   3.334  11.158  0.00  0.00    +0.000 A 
BRANCH  17  24
ATOM     23  C   UNL     1      44.876   3.453   8.122  0.00  0.00    +0.000 C 
ATOM     24  O   UNL     1      44.124   4.176   9.088  0.00  0.00    +0.000 OA
ENDBRANCH  17  24
ENDBRANCH  16  20
ENDBRANCH   1  16
TORSDOF 4
ENDMDL
MODEL 9
REMARK VINA RESULT:    -6.588      4.869      6.598
REMARK INTER + INTRA:          -8.828
REMARK INTER:                  -8.343
REMARK INTRA:                  -0.484
REMARK UNBOUND:                -0.699
REMARK  Name = 
REMARK  5 active torsions:
REMARK  status: ('A' for Active; 'I' for Inactive)
REMARK    1  A    between atoms: C_1  and  O_2
REMARK    2  A    between atoms: O_2  and  C_3
REMARK    3  A    between atoms: C_6  and  C_7
REMARK    4  A    between atoms: C_7  and  N_8
REMARK    5  A    between atoms: C_13  and  C_14
REMARK                            x       y       z     vdW  Elec       q    Type
REMARK                         _______ _______ _______ _____ _____    ______ ____
ROOT
ATOM      1  N   UNL     1      46.505   4.773  15.200  0.00  0.00    +0.000 N 
ATOM      2  C   UNL     1      47.299   4.224  16.196  0.00  0.00    +0.000 A 
ATOM      3  N   UNL     1      46.718   3.295  16.962  0.00  0.00    +0.000 NA
ATOM      4  C   UNL     1      47.464   2.776  17.953  0.00  0.00    +0.000 A 
ATOM      5  C   UNL     1      48.768   3.133  18.190  0.00  0.00    +0.000 A 
ATOM      6  C   UNL     1      49.304   4.078  17.341  0.00  0.00    +0.000 A 
ATOM      7  N   UNL     1      48.566   4.627  16.348  0.00  0.00    +0.000 NA
ATOM      8  H   UNL     1      45.742   4.126  15.040  0.00  0.00    +0.000 HD
ENDROOT
BRANCH   6   9
ATOM      9  C   UNL     1      50.699   4.561  17.433  0.00  0.00    +0.000 A 
ATOM     10  C   UNL     1      51.747   3.747  17.906  0.00  0.00    +0.000 A 
ATOM     11  C   UNL     1      53.068   4.213  17.967  0.00  0.00    +0.000 A 
ATOM     12  C   UNL     1      53.366   5.507  17.553  0.00  0.00    +0.000 A 
ATOM     13  C   UNL     1      52.347   6.322  17.084  0.00  0.00    +0.000 A 
ATOM     14  F   UNL     1      52.631   7.567  16.681  0.00  0.00    +0.000 F 
ATOM     15  C   UNL     1      51.033   5.864  17.021  0.00  0.00    +0.000 A 
ENDBRANCH   6   9
BRANCH   1  16
ATOM     16  C   UNL     1      47.234   5.172  14.014  0.00  0.00    +0.000 C 
BRANCH  16  20
ATOM     17  C   UNL     1      44.806   4.656  10.460  0.00  0.00    +0.000 A 
ATOM     18  C   UNL     1      45.525   5.834  10.655  0.00  0.00    +0.000 A 
ATOM     19  C   UNL     1      46.297   6.004  11.812  0.00  0.00    +0.000 A 
ATOM     20  C   UNL     1      46.362   4.999  12.789  0.00  0.00    +0.000 A 
ATOM     21  C   UNL     1      45.637   3.818  12.584  0.00  0.00    +0.000 A 
ATOM     22  C   UNL     1      44.868   3.652  11.429  0.00  0.00    +0.000 A 
BRANCH  17  24
ATOM     23  C   UNL     1      44.636   3.675   8.301  0.00  0.00    +0.000 C 
ATOM     24  O   UNL     1      44.017   4.361   9.383  0.00  0.00    +0.000 OA
ENDBRANCH  17  24
ENDBRANCH  16  20
ENDBRANCH   1  16
TORSDOF 4
ENDMDL
