MODEL 1
REMARK VINA RESULT:    -7.217      0.000      0.000
REMARK INTER + INTRA:         -12.494
REMARK INTER:                 -10.592
REMARK INTRA:                  -1.902
REMARK UNBOUND:                -1.902
REMARK  Name = 
REMARK  8 active torsions:
REMARK  status: ('A' for Active; 'I' for Inactive)
REMARK    1  A    between atoms: C_2  and  C_4
REMARK    2  A    between atoms: N_9  and  C_10
REMARK    3  A    between atoms: C_10  and  N_12
REMARK    4  A    between atoms: N_12  and  C_13
REMARK    5  A    between atoms: C_13  and  C_14
REMARK    6  A    between atoms: C_17  and  C_18
REMARK    7  A    between atoms: C_18  and  N_19
REMARK    8  A    between atoms: C_20  and  C_22
REMARK                            x       y       z     vdW  Elec       q    Type
REMARK                         _______ _______ _______ _____ _____    ______ ____
ROOT
ATOM      1  C   UNL     1      48.977   7.898  16.087  0.00  0.00    +0.000 A 
ATOM      2  C   UNL     1      48.152   8.906  15.569  0.00  0.00    +0.000 A 
ATOM      3  C   UNL     1      47.928   9.008  14.192  0.00  0.00    +0.000 A 
ATOM      4  C   UNL     1      48.515   8.094  13.308  0.00  0.00    +0.000 A 
ATOM      5  C   UNL     1      49.362   7.105  13.821  0.00  0.00    +0.000 A 
ATOM      6  C   UNL     1      49.590   7.007  15.195  0.00  0.00    +0.000 A 
ENDROOT
BRANCH   1   7
ATOM      7  C   UNL     1      49.210   7.786  17.575  0.00  0.00    +0.000 C 
BRANCH   7   8
ATOM      8  N   UNL     1      49.789   6.501  17.940  0.00  0.00    +0.000 N 
ATOM      9  H   UNL     1      50.789   6.410  17.782  0.00  0.00    +0.000 HD
BRANCH   8  10
ATOM     10  C   UNL     1      49.175   5.451  18.589  0.00  0.00    +0.000 C 
ATOM     11  S   UNL     1      48.009   5.645  19.781  0.00  0.00    +0.000 S 
BRANCH  10  17
ATOM     12  C   UNL     1      48.857   3.706  16.833  0.00  0.00    +0.000 C 
ATOM     13  C   UNL     1      49.087   2.186  16.689  0.00  0.00    +0.000 C 
ATOM     14  C   UNL     1      50.563   1.805  16.707  0.00  0.00    +0.000 C 
ATOM     15  C   UNL     1      51.265   2.411  17.914  0.00  0.00    +0.000 C 
ATOM     16  C   UNL     1      51.010   3.909  17.999  0.00  0.00    +0.000 C 
ATOM     17  N   UNL     1      49.569   4.210  18.038  0.00  0.00    +0.000 N 
BRANCH  12  19
ATOM     18  N   UNL     1      46.882   4.798  15.844  0.00  0.00    +0.000 N 
ATOM     19  C   UNL     1      47.327   3.890  16.766  0.00  0.00    +0.000 C 
ATOM     20  O   UNL     1      46.524   3.251  17.442  0.00  0.00    +0.000 OA
ATOM     21  H   UNL     1      45.885   4.971  15.803  0.00  0.00    +0.000 HD
ATOM     22  H   UNL     1      47.495   5.415  15.329  0.00  0.00    +0.000 HD
ENDBRANCH  12  19
ENDBRANCH  10  17
ENDBRANCH   8  10
ENDBRANCH   7   8
ENDBRANCH   1   7
BRANCH   4  23
ATOM     23  C   UNL     1      48.267   8.180  11.826  0.00  0.00    +0.000 C 
BRANCH  23  24
ATOM     24  N   UNL     1      47.555   7.025  11.340  0.00  0.00    +0.000 N 
ATOM     25  C   UNL     1      46.187   6.944  11.357  0.00  0.00    +0.000 C 
ATOM     26  O   UNL     1      45.478   7.859  11.767  0.00  0.00    +0.000 OA
ATOM     27  H   UNL     1      48.104   6.185  11.192  0.00  0.00    +0.000 HD
BRANCH  25  28
ATOM     28  C   UNL     1      45.599   5.723  10.783  0.00  0.00    +0.000 A 
ATOM     29  C   UNL     1      45.758   5.467   9.428  0.00  0.00    +0.000 A 
ATOM     30  S   UNL     1      45.060   3.996   8.925  0.00  0.00    +0.000 S 
ATOM     31  C   UNL     1      44.477   3.676  10.490  0.00  0.00    +0.000 A 
ATOM     32  N   UNL     1      43.749   2.557  10.749  0.00  0.00    +0.000 NA
ATOM     33  C   UNL     1      43.341   2.455  11.967  0.00  0.00    +0.000 A 
ATOM     34  N   UNL     1      43.607   3.363  12.960  0.00  0.00    +0.000 N 
ATOM     35  C   UNL     1      44.390   4.474  12.761  0.00  0.00    +0.000 A 
ATOM     36  O   UNL     1      44.696   5.208  13.697  0.00  0.00    +0.000 OA
ATOM     37  C   UNL     1      44.837   4.660  11.393  0.00  0.00    +0.000 A 
ATOM     38  H   UNL     1      43.276   3.211  13.900  0.00  0.00    +0.000 HD
ENDBRANCH  25  28
ENDBRANCH  23  24
ENDBRANCH   4  23
TORSDOF 8
ENDMDL
MODEL 2
REMARK VINA RESULT:    -7.030      1.326      2.227
REMARK INTER + INTRA:         -12.220
REMARK INTER:                 -10.379
REMARK INTRA:                  -1.841
REMARK UNBOUND:                -1.902
REMARK  Name = 
REMARK  8 active torsions:
REMARK  status: ('A' for Active; 'I' for Inactive)
REMARK    1  A    between atoms: C_2  and  C_4
REMARK    2  A    between atoms: N_9  and  C_10
REMARK    3  A    between atoms: C_10  and  N_12
REMARK    4  A    between atoms: N_12  and  C_13
REMARK    5  A    between atoms: C_13  and  C_14
REMARK    6  A    between atoms: C_17  and  C_18
REMARK    7  A    between atoms: C_18  and  N_19
REMARK    8  A    between atoms: C_20  and  C_22
REMARK                            x       y       z     vdW  Elec       q    Type
REMARK                         _______ _______ _______ _____ _____    ______ ____
ROOT
ATOM      1  C   UNL     1      48.867   7.982  16.191  0.00  0.00    +0.000 A 
ATOM      2  C   UNL     1      49.230   6.885  15.396  0.00  0.00    +0.000 A 
ATOM      3  C   UNL     1      49.066   6.924  14.008  0.00  0.00    +0.000 A 
ATOM      4  C   UNL     1      48.550   8.067  13.386  0.00  0.00    +0.000 A 
ATOM      5  C   UNL     1      48.161   9.153  14.180  0.00  0.00    +0.000 A 
ATOM      6  C   UNL     1      48.319   9.111  15.567  0.00  0.00    +0.000 A 
ENDROOT
BRANCH   1   7
ATOM      7  C   UNL     1      49.052   7.940  17.689  0.00  0.00    +0.000 C 
BRANCH   7   8
ATOM      8  N   UNL     1      47.915   7.325  18.360  0.00  0.00    +0.000 N 
ATOM      9  H   UNL     1      47.014   7.760  18.184  0.00  0.00    +0.000 HD
BRANCH   8  10
ATOM     10  C   UNL     1      47.897   6.156  19.092  0.00  0.00    +0.000 C 
ATOM     11  S   UNL     1      47.399   6.065  20.691  0.00  0.00    +0.000 S 
BRANCH  10  17
ATOM     12  C   UNL     1      49.339   4.152  18.728  0.00  0.00    +0.000 C 
ATOM     13  C   UNL     1      49.859   3.331  17.528  0.00  0.00    +0.000 C 
ATOM     14  C   UNL     1      48.751   2.584  16.794  0.00  0.00    +0.000 C 
ATOM     15  C   UNL     1      47.609   3.525  16.434  0.00  0.00    +0.000 C 
ATOM     16  C   UNL     1      47.134   4.299  17.655  0.00  0.00    +0.000 C 
ATOM     17  N   UNL     1      48.236   5.045  18.285  0.00  0.00    +0.000 N 
BRANCH  12  19
ATOM     18  N   UNL     1      50.818   4.516  20.665  0.00  0.00    +0.000 N 
ATOM     19  C   UNL     1      50.595   4.802  19.345  0.00  0.00    +0.000 C 
ATOM     20  O   UNL     1      51.392   5.496  18.720  0.00  0.00    +0.000 OA
ATOM     21  H   UNL     1      51.611   4.961  21.111  0.00  0.00    +0.000 HD
ATOM     22  H   UNL     1      50.152   4.030  21.250  0.00  0.00    +0.000 HD
ENDBRANCH  12  19
ENDBRANCH  10  17
ENDBRANCH   8  10
ENDBRANCH   7   8
ENDBRANCH   1   7
BRANCH   4  23
ATOM     23  C   UNL     1      48.388   8.131  11.891  0.00  0.00    +0.000 C 
BRANCH  23  24
ATOM     24  N   UNL     1      47.645   7.002  11.390  0.00  0.00    +0.000 N 
ATOM     25  C   UNL     1      46.275   6.962  11.394  0.00  0.00    +0.000 C 
ATOM     26  O   UNL     1      45.590   7.896  11.805  0.00  0.00    +0.000 OA
ATOM     27  H   UNL     1      48.170   6.147  11.239  0.00  0.00    +0.000 HD
BRANCH  25  28
ATOM     28  C   UNL     1      45.655   5.765  10.805  0.00  0.00    +0.000 A 
ATOM     29  C   UNL     1      45.800   5.526   9.445  0.00  0.00    +0.000 A 
ATOM     30  S   UNL     1      45.065   4.080   8.924  0.00  0.00    +0.000 S 
ATOM     31  C   UNL     1      44.485   3.749  10.488  0.00  0.00    +0.000 A 
ATOM     32  N   UNL     1      43.733   2.643  10.735  0.00  0.00    +0.000 NA
ATOM     33  C   UNL     1      43.331   2.530  11.953  0.00  0.00    +0.000 A 
ATOM     34  N   UNL     1      43.624   3.417  12.959  0.00  0.00    +0.000 N 
ATOM     35  C   UNL     1      44.432   4.513  12.772  0.00  0.00    +0.000 A 
ATOM     36  O   UNL     1      44.760   5.224  13.717  0.00  0.00    +0.000 OA
ATOM     37  C   UNL     1      44.874   4.710  11.403  0.00  0.00    +0.000 A 
ATOM     38  H   UNL     1      43.295   3.257  13.898  0.00  0.00    +0.000 HD
ENDBRANCH  25  28
ENDBRANCH  23  24
ENDBRANCH   4  23
TORSDOF 8
ENDMDL
MODEL 3
REMARK VINA RESULT:    -6.924      1.851      2.860
REMARK INTER + INTRA:         -12.064
REMARK INTER:                 -10.215
REMARK INTRA:                  -1.850
REMARK UNBOUND:                -1.902
REMARK  Name = 
REMARK  8 active torsions:
REMARK  status: ('A' for Active; 'I' for Inactive)
REMARK    1  A    between atoms: C_2  and  C_4
REMARK    2  A    between atoms: N_9  and  C_10
REMARK    3  A    between atoms: C_10  and  N_12
REMARK    4  A    between atoms: N_12  and  C_13
REMARK    5  A    between atoms: C_13  and  C_14
REMARK    6  A    between atoms: C_17  and  C_18
REMARK    7  A    between atoms: C_18  and  N_19
REMARK    8  A    between atoms: C_20  and  C_22
REMARK                            x       y       z     vdW  Elec       q    Type
REMARK                         _______ _______ _______ _____ _____    ______ ____
ROOT
ATOM      1  C   UNL     1      49.038   7.902  16.094  0.00  0.00    +0.000 A 
ATOM      2  C   UNL     1      48.431   9.041  15.546  0.00  0.00    +0.000 A 
ATOM      3  C   UNL     1      47.911   9.017  14.248  0.00  0.00    +0.000 A 
ATOM      4  C   UNL     1      47.975   7.849  13.479  0.00  0.00    +0.000 A 
ATOM      5  C   UNL     1      48.605   6.720  14.014  0.00  0.00    +0.000 A 
ATOM      6  C   UNL     1      49.130   6.746  15.308  0.00  0.00    +0.000 A 
ENDROOT
BRANCH   1   7
ATOM      7  C   UNL     1      49.592   7.929  17.499  0.00  0.00    +0.000 C 
BRANCH   7   8
ATOM      8  N   UNL     1      48.567   7.650  18.494  0.00  0.00    +0.000 N 
ATOM      9  H   UNL     1      47.819   8.336  18.558  0.00  0.00    +0.000 HD
BRANCH   8  10
ATOM     10  C   UNL     1      48.419   6.512  19.259  0.00  0.00    +0.000 C 
ATOM     11  S   UNL     1      48.132   6.531  20.913  0.00  0.00    +0.000 S 
BRANCH  10  17
ATOM     12  C   UNL     1      49.417   4.284  18.741  0.00  0.00    +0.000 C 
ATOM     13  C   UNL     1      49.580   3.374  17.505  0.00  0.00    +0.000 C 
ATOM     14  C   UNL     1      48.254   2.824  16.993  0.00  0.00    +0.000 C 
ATOM     15  C   UNL     1      47.244   3.945  16.790  0.00  0.00    +0.000 C 
ATOM     16  C   UNL     1      47.121   4.802  18.041  0.00  0.00    +0.000 C 
ATOM     17  N   UNL     1      48.423   5.351  18.452  0.00  0.00    +0.000 N 
BRANCH  12  19
ATOM     18  N   UNL     1      51.217   4.471  20.415  0.00  0.00    +0.000 N 
ATOM     19  C   UNL     1      50.851   4.712  19.118  0.00  0.00    +0.000 C 
ATOM     20  O   UNL     1      51.658   5.195  18.328  0.00  0.00    +0.000 OA
ATOM     21  H   UNL     1      52.137   4.777  20.704  0.00  0.00    +0.000 HD
ATOM     22  H   UNL     1      50.570   4.162  21.128  0.00  0.00    +0.000 HD
ENDBRANCH  12  19
ENDBRANCH  10  17
ENDBRANCH   8  10
ENDBRANCH   7   8
ENDBRANCH   1   7
BRANCH   4  23
ATOM     23  C   UNL     1      47.401   7.803  12.089  0.00  0.00    +0.000 C 
BRANCH  23  24
ATOM     24  N   UNL     1      46.719   6.558  11.837  0.00  0.00    +0.000 N 
ATOM     25  C   UNL     1      45.355   6.476  11.726  0.00  0.00    +0.000 C 
ATOM     26  O   UNL     1      44.627   7.462  11.811  0.00  0.00    +0.000 OA
ATOM     27  H   UNL     1      47.262   5.712  11.967  0.00  0.00    +0.000 HD
BRANCH  25  28
ATOM     28  C   UNL     1      44.804   5.147  11.420  0.00  0.00    +0.000 A 
ATOM     29  C   UNL     1      44.027   4.500  12.371  0.00  0.00    +0.000 A 
ATOM     30  S   UNL     1      43.427   2.993  11.851  0.00  0.00    +0.000 S 
ATOM     31  C   UNL     1      44.226   3.130  10.356  0.00  0.00    +0.000 A 
ATOM     32  N   UNL     1      44.148   2.138   9.429  0.00  0.00    +0.000 NA
ATOM     33  C   UNL     1      44.828   2.354   8.356  0.00  0.00    +0.000 A 
ATOM     34  N   UNL     1      45.571   3.482   8.115  0.00  0.00    +0.000 N 
ATOM     35  C   UNL     1      45.629   4.537   8.994  0.00  0.00    +0.000 A 
ATOM     36  O   UNL     1      46.215   5.574   8.699  0.00  0.00    +0.000 OA
ATOM     37  C   UNL     1      44.916   4.323  10.241  0.00  0.00    +0.000 A 
ATOM     38  H   UNL     1      46.063   3.599   7.243  0.00  0.00    +0.000 HD
ENDBRANCH  25  28
ENDBRANCH  23  24
ENDBRANCH   4  23
TORSDOF 8
ENDMDL
MODEL 4
REMARK VINA RESULT:    -6.853      1.935      3.016
REMARK INTER + INTRA:         -11.960
REMARK INTER:                 -10.335
REMARK INTRA:                  -1.625
REMARK UNBOUND:                -1.902
REMARK  Name = 
REMARK  8 active torsions:
REMARK  status: ('A' for Active; 'I' for Inactive)
REMARK    1  A    between atoms: C_2  and  C_4
REMARK    2  A    between atoms: N_9  and  C_10
REMARK    3  A    between atoms: C_10  and  N_12
REMARK    4  A    between atoms: N_12  and  C_13
REMARK    5  A    between atoms: C_13  and  C_14
REMARK    6  A    between atoms: C_17  and  C_18
REMARK    7  A    between atoms: C_18  and  N_19
REMARK    8  A    between atoms: C_20  and  C_22
REMARK                            x       y       z     vdW  Elec       q    Type
REMARK                         _______ _______ _______ _____ _____    ______ ____
ROOT
ATOM      1  C   UNL     1      50.444   7.401  15.200  0.00  0.00    +0.000 A 
ATOM      2  C   UNL     1      50.808   8.020  13.995  0.00  0.00    +0.000 A 
ATOM      3  C   UNL     1      49.895   8.122  12.940  0.00  0.00    +0.000 A 
ATOM      4  C   UNL     1      48.594   7.621  13.077  0.00  0.00    +0.000 A 
ATOM      5  C   UNL     1      48.238   6.979  14.269  0.00  0.00    +0.000 A 
ATOM      6  C   UNL     1      49.153   6.871  15.319  0.00  0.00    +0.000 A 
ENDROOT
BRANCH   1   7
ATOM      7  C   UNL     1      51.431   7.299  16.338  0.00  0.00    +0.000 C 
BRANCH   7   8
ATOM      8  N   UNL     1      51.557   5.933  16.828  0.00  0.00    +0.000 N 
ATOM      9  H   UNL     1      52.062   5.294  16.219  0.00  0.00    +0.000 HD
BRANCH   8  10
ATOM     10  C   UNL     1      51.193   5.441  18.063  0.00  0.00    +0.000 C 
ATOM     11  S   UNL     1      52.287   4.857  19.194  0.00  0.00    +0.000 S 
BRANCH  10  17
ATOM     12  C   UNL     1      48.947   4.394  18.360  0.00  0.00    +0.000 C 
ATOM     13  C   UNL     1      47.472   4.786  18.124  0.00  0.00    +0.000 C 
ATOM     14  C   UNL     1      47.000   5.902  19.048  0.00  0.00    +0.000 C 
ATOM     15  C   UNL     1      47.955   7.086  19.001  0.00  0.00    +0.000 C 
ATOM     16  C   UNL     1      49.390   6.640  19.248  0.00  0.00    +0.000 C 
ATOM     17  N   UNL     1      49.807   5.605  18.288  0.00  0.00    +0.000 N 
BRANCH  12  19
ATOM     18  N   UNL     1      50.066   2.268  17.809  0.00  0.00    +0.000 N 
ATOM     19  C   UNL     1      49.223   3.249  17.362  0.00  0.00    +0.000 C 
ATOM     20  O   UNL     1      48.706   3.161  16.251  0.00  0.00    +0.000 OA
ATOM     21  H   UNL     1      50.300   1.524  17.163  0.00  0.00    +0.000 HD
ATOM     22  H   UNL     1      50.590   2.334  18.672  0.00  0.00    +0.000 HD
ENDBRANCH  12  19
ENDBRANCH  10  17
ENDBRANCH   8  10
ENDBRANCH   7   8
ENDBRANCH   1   7
BRANCH   4  23
ATOM     23  C   UNL     1      47.595   7.743  11.959  0.00  0.00    +0.000 C 
BRANCH  23  24
ATOM     24  N   UNL     1      46.867   6.515  11.761  0.00  0.00    +0.000 N 
ATOM     25  C   UNL     1      45.498   6.456  11.804  0.00  0.00    +0.000 C 
ATOM     26  O   UNL     1      44.802   7.451  11.991  0.00  0.00    +0.000 OA
ATOM     27  H   UNL     1      47.407   5.658  11.811  0.00  0.00    +0.000 HD
BRANCH  25  28
ATOM     28  C   UNL     1      44.893   5.142  11.536  0.00  0.00    +0.000 A 
ATOM     29  C   UNL     1      44.144   4.526  12.528  0.00  0.00    +0.000 A 
ATOM     30  S   UNL     1      43.474   3.034  12.050  0.00  0.00    +0.000 S 
ATOM     31  C   UNL     1      44.204   3.137  10.517  0.00  0.00    +0.000 A 
ATOM     32  N   UNL     1      44.051   2.142   9.603  0.00  0.00    +0.000 NA
ATOM     33  C   UNL     1      44.684   2.330   8.497  0.00  0.00    +0.000 A 
ATOM     34  N   UNL     1      45.448   3.433   8.211  0.00  0.00    +0.000 N 
ATOM     35  C   UNL     1      45.580   4.491   9.078  0.00  0.00    +0.000 A 
ATOM     36  O   UNL     1      46.183   5.508   8.747  0.00  0.00    +0.000 OA
ATOM     37  C   UNL     1      44.922   4.307  10.359  0.00  0.00    +0.000 A 
ATOM     38  H   UNL     1      45.900   3.529   7.315  0.00  0.00    +0.000 HD
ENDBRANCH  25  28
ENDBRANCH  23  24
ENDBRANCH   4  23
TORSDOF 8
ENDMDL
MODEL 5
REMARK VINA RESULT:    -6.473      4.428      6.151
REMARK INTER + INTRA:         -11.402
REMARK INTER:                 -10.333
REMARK INTRA:                  -1.070
REMARK UNBOUND:                -1.902
REMARK  Name = 
REMARK  8 active torsions:
REMARK  status: ('A' for Active; 'I' for Inactive)
REMARK    1  A    between atoms: C_2  and  C_4
REMARK    2  A    between atoms: N_9  and  C_10
REMARK    3  A    between atoms: C_10  and  N_12
REMARK    4  A    between atoms: N_12  and  C_13
REMARK    5  A    between atoms: C_13  and  C_14
REMARK    6  A    between atoms: C_17  and  C_18
REMARK    7  A    between atoms: C_18  and  N_19
REMARK    8  A    between atoms: C_20  and  C_22
REMARK                            x       y       z     vdW  Elec       q    Type
REMARK                         _______ _______ _______ _____ _____    ______ ____
ROOT
ATOM      1  C   UNL     1      51.311   2.160  17.537  0.00  0.00    +0.000 A 
ATOM      2  C   UNL     1      49.928   2.095  17.313  0.00  0.00    +0.000 A 
ATOM      3  C   UNL     1      49.155   3.260  17.274  0.00  0.00    +0.000 A 
ATOM      4  C   UNL     1      49.754   4.514  17.445  0.00  0.00    +0.000 A 
ATOM      5  C   UNL     1      51.129   4.579  17.697  0.00  0.00    +0.000 A 
ATOM      6  C   UNL     1      51.899   3.414  17.741  0.00  0.00    +0.000 A 
ENDROOT
BRANCH   1   7
ATOM      7  C   UNL     1      52.143   0.900  17.571  0.00  0.00    +0.000 C 
BRANCH   7   8
ATOM      8  N   UNL     1      53.567   1.186  17.476  0.00  0.00    +0.000 N 
ATOM      9  H   UNL     1      53.845   1.775  16.695  0.00  0.00    +0.000 HD
BRANCH   8  10
ATOM     10  C   UNL     1      54.556   0.866  18.382  0.00  0.00    +0.000 C 
ATOM     11  S   UNL     1      55.441   2.006  19.238  0.00  0.00    +0.000 S 
BRANCH  10  17
ATOM     12  C   UNL     1      55.366  -1.351  17.572  0.00  0.00    +0.000 C 
ATOM     13  C   UNL     1      54.936  -2.830  17.691  0.00  0.00    +0.000 C 
ATOM     14  C   UNL     1      55.070  -3.374  19.109  0.00  0.00    +0.000 C 
ATOM     15  C   UNL     1      54.375  -2.459  20.109  0.00  0.00    +0.000 C 
ATOM     16  C   UNL     1      54.844  -1.020  19.949  0.00  0.00    +0.000 C 
ATOM     17  N   UNL     1      54.636  -0.533  18.575  0.00  0.00    +0.000 N 
BRANCH  12  19
ATOM     18  N   UNL     1      54.268  -1.755  15.403  0.00  0.00    +0.000 N 
ATOM     19  C   UNL     1      55.187  -1.000  16.080  0.00  0.00    +0.000 C 
ATOM     20  O   UNL     1      55.773  -0.083  15.511  0.00  0.00    +0.000 OA
ATOM     21  H   UNL     1      54.157  -1.577  14.413  0.00  0.00    +0.000 HD
ATOM     22  H   UNL     1      53.827  -2.577  15.793  0.00  0.00    +0.000 HD
ENDBRANCH  12  19
ENDBRANCH  10  17
ENDBRANCH   8  10
ENDBRANCH   7   8
ENDBRANCH   1   7
BRANCH   4  23
ATOM     23  C   UNL     1      48.939   5.777  17.386  0.00  0.00    +0.000 C 
BRANCH  23  24
ATOM     24  N   UNL     1      48.084   5.803  16.225  0.00  0.00    +0.000 N 
ATOM     25  C   UNL     1      48.504   6.283  15.012  0.00  0.00    +0.000 C 
ATOM     26  O   UNL     1      49.644   6.703  14.829  0.00  0.00    +0.000 OA
ATOM     27  H   UNL     1      47.093   5.660  16.391  0.00  0.00    +0.000 HD
BRANCH  25  28
ATOM     28  C   UNL     1      47.537   6.200  13.907  0.00  0.00    +0.000 A 
ATOM     29  C   UNL     1      47.196   7.355  13.217  0.00  0.00    +0.000 A 
ATOM     30  S   UNL     1      46.101   7.088  11.939  0.00  0.00    +0.000 S 
ATOM     31  C   UNL     1      46.006   5.428  12.296  0.00  0.00    +0.000 A 
ATOM     32  N   UNL     1      45.198   4.603  11.577  0.00  0.00    +0.000 NA
ATOM     33  C   UNL     1      45.194   3.378  11.974  0.00  0.00    +0.000 A 
ATOM     34  N   UNL     1      45.938   2.892  13.020  0.00  0.00    +0.000 N 
ATOM     35  C   UNL     1      46.815   3.673  13.734  0.00  0.00    +0.000 A 
ATOM     36  O   UNL     1      47.543   3.182  14.591  0.00  0.00    +0.000 OA
ATOM     37  C   UNL     1      46.822   5.074  13.355  0.00  0.00    +0.000 A 
ATOM     38  H   UNL     1      45.906   1.915  13.265  0.00  0.00    +0.000 HD
ENDBRANCH  25  28
ENDBRANCH  23  24
ENDBRANCH   4  23
TORSDOF 8
ENDMDL
MODEL 6
REMARK VINA RESULT:    -6.434      2.706      4.635
REMARK INTER + INTRA:         -11.345
REMARK INTER:                  -9.483
REMARK INTRA:                  -1.863
REMARK UNBOUND:                -1.902
REMARK  Name = 
REMARK  8 active torsions:
REMARK  status: ('A' for Active; 'I' for Inactive)
REMARK    1  A    between atoms: C_2  and  C_4
REMARK    2  A    between atoms: N_9  and  C_10
REMARK    3  A    between atoms: C_10  and  N_12
REMARK    4  A    between atoms: N_12  and  C_13
REMARK    5  A    between atoms: C_13  and  C_14
REMARK    6  A    between atoms: C_17  and  C_18
REMARK    7  A    between atoms: C_18  and  N_19
REMARK    8  A    between atoms: C_20  and  C_22
REMARK                            x       y       z     vdW  Elec       q    Type
REMARK                         _______ _______ _______ _____ _____    ______ ____
ROOT
ATOM      1  C   UNL     1      49.058   5.509  19.971  0.00  0.00    +0.000 A 
ATOM      2  C   UNL     1      49.655   4.378  19.396  0.00  0.00    +0.000 A 
ATOM      3  C   UNL     1      49.041   3.710  18.331  0.00  0.00    +0.000 A 
ATOM      4  C   UNL     1      47.824   4.170  17.813  0.00  0.00    +0.000 A 
ATOM      5  C   UNL     1      47.213   5.281  18.404  0.00  0.00    +0.000 A 
ATOM      6  C   UNL     1      47.824   5.944  19.471  0.00  0.00    +0.000 A 
ENDROOT
BRANCH   1   7
ATOM      7  C   UNL     1      49.727   6.232  21.116  0.00  0.00    +0.000 C 
BRANCH   7   8
ATOM      8  N   UNL     1      49.901   7.650  20.836  0.00  0.00    +0.000 N 
ATOM      9  H   UNL     1      49.317   8.280  21.380  0.00  0.00    +0.000 HD
BRANCH   8  10
ATOM     10  C   UNL     1      50.847   8.242  20.026  0.00  0.00    +0.000 C 
ATOM     11  S   UNL     1      52.033   9.288  20.587  0.00  0.00    +0.000 S 
BRANCH  10  17
ATOM     12  C   UNL     1      50.020   8.575  17.694  0.00  0.00    +0.000 C 
ATOM     13  C   UNL     1      49.624   7.688  16.494  0.00  0.00    +0.000 C 
ATOM     14  C   UNL     1      50.806   6.935  15.896  0.00  0.00    +0.000 C 
ATOM     15  C   UNL     1      51.573   6.184  16.975  0.00  0.00    +0.000 C 
ATOM     16  C   UNL     1      51.943   7.108  18.126  0.00  0.00    +0.000 C 
ATOM     17  N   UNL     1      50.754   7.760  18.699  0.00  0.00    +0.000 N 
BRANCH  12  19
ATOM     18  N   UNL     1      47.595   8.917  17.424  0.00  0.00    +0.000 N 
ATOM     19  C   UNL     1      48.711   9.264  18.135  0.00  0.00    +0.000 C 
ATOM     20  O   UNL     1      48.624  10.039  19.083  0.00  0.00    +0.000 OA
ATOM     21  H   UNL     1      46.728   9.383  17.661  0.00  0.00    +0.000 HD
ATOM     22  H   UNL     1      47.622   8.359  16.581  0.00  0.00    +0.000 HD
ENDBRANCH  12  19
ENDBRANCH  10  17
ENDBRANCH   8  10
ENDBRANCH   7   8
ENDBRANCH   1   7
BRANCH   4  23
ATOM     23  C   UNL     1      47.163   3.473  16.654  0.00  0.00    +0.000 C 
BRANCH  23  24
ATOM     24  N   UNL     1      46.655   4.415  15.689  0.00  0.00    +0.000 N 
ATOM     25  C   UNL     1      46.757   4.211  14.337  0.00  0.00    +0.000 C 
ATOM     26  O   UNL     1      47.270   3.200  13.861  0.00  0.00    +0.000 OA
ATOM     27  H   UNL     1      46.419   5.337  16.039  0.00  0.00    +0.000 HD
BRANCH  25  28
ATOM     28  C   UNL     1      46.150   5.235  13.475  0.00  0.00    +0.000 A 
ATOM     29  C   UNL     1      46.859   6.397  13.199  0.00  0.00    +0.000 A 
ATOM     30  S   UNL     1      46.041   7.463  12.152  0.00  0.00    +0.000 S 
ATOM     31  C   UNL     1      44.691   6.433  12.070  0.00  0.00    +0.000 A 
ATOM     32  N   UNL     1      43.594   6.775  11.342  0.00  0.00    +0.000 NA
ATOM     33  C   UNL     1      42.631   5.922  11.394  0.00  0.00    +0.000 A 
ATOM     34  N   UNL     1      42.666   4.744  12.097  0.00  0.00    +0.000 N 
ATOM     35  C   UNL     1      43.774   4.326  12.794  0.00  0.00    +0.000 A 
ATOM     36  O   UNL     1      43.808   3.219  13.322  0.00  0.00    +0.000 OA
ATOM     37  C   UNL     1      44.872   5.275  12.805  0.00  0.00    +0.000 A 
ATOM     38  H   UNL     1      41.884   4.108  12.076  0.00  0.00    +0.000 HD
ENDBRANCH  25  28
ENDBRANCH  23  24
ENDBRANCH   4  23
TORSDOF 8
ENDMDL
MODEL 7
REMARK VINA RESULT:    -6.374      2.538      8.276
REMARK INTER + INTRA:         -11.257
REMARK INTER:                 -10.101
REMARK INTRA:                  -1.155
REMARK UNBOUND:                -1.902
REMARK  Name = 
REMARK  8 active torsions:
REMARK  status: ('A' for Active; 'I' for Inactive)
REMARK    1  A    between atoms: C_2  and  C_4
REMARK    2  A    between atoms: N_9  and  C_10
REMARK    3  A    between atoms: C_10  and  N_12
REMARK    4  A    between atoms: N_12  and  C_13
REMARK    5  A    between atoms: C_13  and  C_14
REMARK    6  A    between atoms: C_17  and  C_18
REMARK    7  A    between atoms: C_18  and  N_19
REMARK    8  A    between atoms: C_20  and  C_22
REMARK                            x       y       z     vdW  Elec       q    Type
REMARK                         _______ _______ _______ _____ _____    ______ ____
ROOT
ATOM      1  C   UNL     1      47.955   7.219  13.695  0.00  0.00    +0.000 A 
ATOM      2  C   UNL     1      47.900   5.992  14.373  0.00  0.00    +0.000 A 
ATOM      3  C   UNL     1      48.284   5.899  15.714  0.00  0.00    +0.000 A 
ATOM      4  C   UNL     1      48.718   7.036  16.408  0.00  0.00    +0.000 A 
ATOM      5  C   UNL     1      48.800   8.255  15.726  0.00  0.00    +0.000 A 
ATOM      6  C   UNL     1      48.422   8.345  14.384  0.00  0.00    +0.000 A 
ENDROOT
BRANCH   1   7
ATOM      7  C   UNL     1      47.532   7.316  12.248  0.00  0.00    +0.000 C 
BRANCH   7   8
ATOM      8  N   UNL     1      46.745   6.164  11.833  0.00  0.00    +0.000 N 
ATOM      9  H   UNL     1      47.136   5.257  12.071  0.00  0.00    +0.000 HD
BRANCH   8  10
ATOM     10  C   UNL     1      45.482   6.159  11.278  0.00  0.00    +0.000 C 
ATOM     11  S   UNL     1      44.372   7.401  11.476  0.00  0.00    +0.000 S 
BRANCH  10  17
ATOM     12  C   UNL     1      44.152   4.130  10.694  0.00  0.00    +0.000 C 
ATOM     13  C   UNL     1      44.402   2.765  10.016  0.00  0.00    +0.000 C 
ATOM     14  C   UNL     1      44.735   2.891   8.534  0.00  0.00    +0.000 C 
ATOM     15  C   UNL     1      45.862   3.892   8.314  0.00  0.00    +0.000 C 
ATOM     16  C   UNL     1      45.557   5.217   8.998  0.00  0.00    +0.000 C 
ATOM     17  N   UNL     1      45.301   5.037  10.436  0.00  0.00    +0.000 N 
BRANCH  12  19
ATOM     18  N   UNL     1      44.471   2.718  12.689  0.00  0.00    +0.000 N 
ATOM     19  C   UNL     1      43.809   3.793  12.161  0.00  0.00    +0.000 C 
ATOM     20  O   UNL     1      43.036   4.446  12.857  0.00  0.00    +0.000 OA
ATOM     21  H   UNL     1      44.238   2.446  13.636  0.00  0.00    +0.000 HD
ATOM     22  H   UNL     1      45.044   2.092  12.139  0.00  0.00    +0.000 HD
ENDBRANCH  12  19
ENDBRANCH  10  17
ENDBRANCH   8  10
ENDBRANCH   7   8
ENDBRANCH   1   7
BRANCH   4  23
ATOM     23  C   UNL     1      49.115   6.955  17.857  0.00  0.00    +0.000 C 
BRANCH  23  24
ATOM     24  N   UNL     1      50.044   5.879  18.093  0.00  0.00    +0.000 N 
ATOM     25  C   UNL     1      51.380   5.983  17.805  0.00  0.00    +0.000 C 
ATOM     26  O   UNL     1      51.876   7.010  17.346  0.00  0.00    +0.000 OA
ATOM     27  H   UNL     1      49.640   4.965  18.272  0.00  0.00    +0.000 HD
BRANCH  25  28
ATOM     28  C   UNL     1      52.214   4.820  18.146  0.00  0.00    +0.000 A 
ATOM     29  C   UNL     1      53.439   5.024  18.766  0.00  0.00    +0.000 A 
ATOM     30  S   UNL     1      54.264   3.580  19.135  0.00  0.00    +0.000 S 
ATOM     31  C   UNL     1      53.036   2.635  18.434  0.00  0.00    +0.000 A 
ATOM     32  N   UNL     1      53.136   1.280  18.390  0.00  0.00    +0.000 NA
ATOM     33  C   UNL     1      52.154   0.690  17.802  0.00  0.00    +0.000 A 
ATOM     34  N   UNL     1      51.067   1.330  17.263  0.00  0.00    +0.000 N 
ATOM     35  C   UNL     1      50.891   2.691  17.339  0.00  0.00    +0.000 A 
ATOM     36  O   UNL     1      49.857   3.218  16.942  0.00  0.00    +0.000 OA
ATOM     37  C   UNL     1      51.994   3.407  17.953  0.00  0.00    +0.000 A 
ATOM     38  H   UNL     1      50.320   0.805  16.835  0.00  0.00    +0.000 HD
ENDBRANCH  25  28
ENDBRANCH  23  24
ENDBRANCH   4  23
TORSDOF 8
ENDMDL
MODEL 8
REMARK VINA RESULT:    -6.170      2.915      5.232
REMARK INTER + INTRA:         -10.958
REMARK INTER:                  -9.359
REMARK INTRA:                  -1.599
REMARK UNBOUND:                -1.902
REMARK  Name = 
REMARK  8 active torsions:
REMARK  status: ('A' for Active; 'I' for Inactive)
REMARK    1  A    between atoms: C_2  and  C_4
REMARK    2  A    between atoms: N_9  and  C_10
REMARK    3  A    between atoms: C_10  and  N_12
REMARK    4  A    between atoms: N_12  and  C_13
REMARK    5  A    between atoms: C_13  and  C_14
REMARK    6  A    between atoms: C_17  and  C_18
REMARK    7  A    between atoms: C_18  and  N_19
REMARK    8  A    between atoms: C_20  and  C_22
REMARK                            x       y       z     vdW  Elec       q    Type
REMARK                         _______ _______ _______ _____ _____    ______ ____
ROOT
ATOM      1  C   UNL     1      51.009   4.451  18.522  0.00  0.00    +0.000 A 
ATOM      2  C   UNL     1      50.858   3.303  17.729  0.00  0.00    +0.000 A 
ATOM      3  C   UNL     1      49.608   2.958  17.204  0.00  0.00    +0.000 A 
ATOM      4  C   UNL     1      48.489   3.762  17.450  0.00  0.00    +0.000 A 
ATOM      5  C   UNL     1      48.632   4.893  18.263  0.00  0.00    +0.000 A 
ATOM      6  C   UNL     1      49.879   5.233  18.792  0.00  0.00    +0.000 A 
ENDROOT
BRANCH   1   7
ATOM      7  C   UNL     1      52.361   4.824  19.081  0.00  0.00    +0.000 C 
BRANCH   7   8
ATOM      8  N   UNL     1      52.655   6.238  18.895  0.00  0.00    +0.000 N 
ATOM      9  H   UNL     1      52.545   6.821  19.720  0.00  0.00    +0.000 HD
BRANCH   8  10
ATOM     10  C   UNL     1      53.187   6.851  17.780  0.00  0.00    +0.000 C 
ATOM     11  S   UNL     1      54.253   6.103  16.723  0.00  0.00    +0.000 S 
BRANCH  10  17
ATOM     12  C   UNL     1      51.316   8.244  16.891  0.00  0.00    +0.000 C 
ATOM     13  C   UNL     1      51.124   9.684  16.366  0.00  0.00    +0.000 C 
ATOM     14  C   UNL     1      51.306  10.740  17.450  0.00  0.00    +0.000 C 
ATOM     15  C   UNL     1      52.621  10.537  18.190  0.00  0.00    +0.000 C 
ATOM     16  C   UNL     1      52.751   9.105  18.689  0.00  0.00    +0.000 C 
ATOM     17  N   UNL     1      52.625   8.135  17.589  0.00  0.00    +0.000 N 
BRANCH  12  19
ATOM     18  N   UNL     1      51.792   7.642  14.549  0.00  0.00    +0.000 N 
ATOM     19  C   UNL     1      51.068   7.335  15.669  0.00  0.00    +0.000 C 
ATOM     20  O   UNL     1      50.317   6.363  15.673  0.00  0.00    +0.000 OA
ATOM     21  H   UNL     1      51.621   7.090  13.718  0.00  0.00    +0.000 HD
ATOM     22  H   UNL     1      52.351   8.479  14.460  0.00  0.00    +0.000 HD
ENDBRANCH  12  19
ENDBRANCH  10  17
ENDBRANCH   8  10
ENDBRANCH   7   8
ENDBRANCH   1   7
BRANCH   4  23
ATOM     23  C   UNL     1      47.143   3.414  16.874  0.00  0.00    +0.000 C 
BRANCH  23  24
ATOM     24  N   UNL     1      46.720   4.381  15.892  0.00  0.00    +0.000 N 
ATOM     25  C   UNL     1      46.853   4.166  14.544  0.00  0.00    +0.000 C 
ATOM     26  O   UNL     1      47.321   3.127  14.086  0.00  0.00    +0.000 OA
ATOM     27  H   UNL     1      46.526   5.316  16.233  0.00  0.00    +0.000 HD
BRANCH  25  28
ATOM     28  C   UNL     1      46.332   5.221  13.661  0.00  0.00    +0.000 A 
ATOM     29  C   UNL     1      47.093   6.362  13.446  0.00  0.00    +0.000 A 
ATOM     30  S   UNL     1      46.376   7.468  12.367  0.00  0.00    +0.000 S 
ATOM     31  C   UNL     1      45.000   6.483  12.189  0.00  0.00    +0.000 A 
ATOM     32  N   UNL     1      43.961   6.870  11.401  0.00  0.00    +0.000 NA
ATOM     33  C   UNL     1      42.970   6.049  11.382  0.00  0.00    +0.000 A 
ATOM     34  N   UNL     1      42.924   4.862  12.069  0.00  0.00    +0.000 N 
ATOM     35  C   UNL     1      43.974   4.399  12.825  0.00  0.00    +0.000 A 
ATOM     36  O   UNL     1      43.940   3.285  13.338  0.00  0.00    +0.000 OA
ATOM     37  C   UNL     1      45.099   5.312  12.917  0.00  0.00    +0.000 A 
ATOM     38  H   UNL     1      42.124   4.253  11.992  0.00  0.00    +0.000 HD
ENDBRANCH  25  28
ENDBRANCH  23  24
ENDBRANCH   4  23
TORSDOF 8
ENDMDL
MODEL 9
REMARK VINA RESULT:    -5.975      1.531      2.417
REMARK INTER + INTRA:         -10.671
REMARK INTER:                  -8.813
REMARK INTRA:                  -1.857
REMARK UNBOUND:                -1.902
REMARK  Name = 
REMARK  8 active torsions:
REMARK  status: ('A' for Active; 'I' for Inactive)
REMARK    1  A    between atoms: C_2  and  C_4
REMARK    2  A    between atoms: N_9  and  C_10
REMARK    3  A    between atoms: C_10  and  N_12
REMARK    4  A    between atoms: N_12  and  C_13
REMARK    5  A    between atoms: C_13  and  C_14
REMARK    6  A    between atoms: C_17  and  C_18
REMARK    7  A    between atoms: C_18  and  N_19
REMARK    8  A    between atoms: C_20  and  C_22
REMARK                            x       y       z     vdW  Elec       q    Type
REMARK                         _______ _______ _______ _____ _____    ______ ____
ROOT
ATOM      1  C   UNL     1      50.121   7.855  15.957  0.00  0.00    +0.000 A 
ATOM      2  C   UNL     1      50.191   7.357  14.648  0.00  0.00    +0.000 A 
ATOM      3  C   UNL     1      49.144   7.570  13.746  0.00  0.00    +0.000 A 
ATOM      4  C   UNL     1      48.012   8.299  14.132  0.00  0.00    +0.000 A 
ATOM      5  C   UNL     1      47.928   8.773  15.446  0.00  0.00    +0.000 A 
ATOM      6  C   UNL     1      48.971   8.554  16.348  0.00  0.00    +0.000 A 
ENDROOT
BRANCH   1   7
ATOM      7  C   UNL     1      51.256   7.629  16.927  0.00  0.00    +0.000 C 
BRANCH   7   8
ATOM      8  N   UNL     1      51.584   6.217  17.062  0.00  0.00    +0.000 N 
ATOM      9  H   UNL     1      52.265   5.859  16.398  0.00  0.00    +0.000 HD
BRANCH   8  10
ATOM     10  C   UNL     1      51.184   5.348  18.056  0.00  0.00    +0.000 C 
ATOM     11  S   UNL     1      52.101   4.043  18.577  0.00  0.00    +0.000 S 
BRANCH  10  17
ATOM     12  C   UNL     1      48.744   4.966  18.414  0.00  0.00    +0.000 C 
ATOM     13  C   UNL     1      47.494   5.821  18.713  0.00  0.00    +0.000 C 
ATOM     14  C   UNL     1      47.529   6.461  20.096  0.00  0.00    +0.000 C 
ATOM     15  C   UNL     1      48.838   7.207  20.315  0.00  0.00    +0.000 C 
ATOM     16  C   UNL     1      50.032   6.313  20.014  0.00  0.00    +0.000 C 
ATOM     17  N   UNL     1      49.972   5.773  18.646  0.00  0.00    +0.000 N 
BRANCH  12  19
ATOM     18  N   UNL     1      47.722   5.150  16.180  0.00  0.00    +0.000 N 
ATOM     19  C   UNL     1      48.511   4.391  17.001  0.00  0.00    +0.000 C 
ATOM     20  O   UNL     1      49.016   3.351  16.586  0.00  0.00    +0.000 OA
ATOM     21  H   UNL     1      47.515   4.780  15.260  0.00  0.00    +0.000 HD
ATOM     22  H   UNL     1      47.208   5.961  16.495  0.00  0.00    +0.000 HD
ENDBRANCH  12  19
ENDBRANCH  10  17
ENDBRANCH   8  10
ENDBRANCH   7   8
ENDBRANCH   1   7
BRANCH   4  23
ATOM     23  C   UNL     1      46.888   8.554  13.165  0.00  0.00    +0.000 C 
BRANCH  23  24
ATOM     24  N   UNL     1      46.486   7.346  12.488  0.00  0.00    +0.000 N 
ATOM     25  C   UNL     1      45.481   7.324  11.557  0.00  0.00    +0.000 C 
ATOM     26  O   UNL     1      44.871   8.337  11.222  0.00  0.00    +0.000 OA
ATOM     27  H   UNL     1      46.820   6.474  12.885  0.00  0.00    +0.000 HD
BRANCH  25  28
ATOM     28  C   UNL     1      45.215   6.028  10.914  0.00  0.00    +0.000 A 
ATOM     29  C   UNL     1      45.630   5.822   9.606  0.00  0.00    +0.000 A 
ATOM     30  S   UNL     1      45.289   4.259   9.020  0.00  0.00    +0.000 S 
ATOM     31  C   UNL     1      44.530   3.820  10.477  0.00  0.00    +0.000 A 
ATOM     32  N   UNL     1      43.978   2.587  10.633  0.00  0.00    +0.000 NA
ATOM     33  C   UNL     1      43.405   2.398  11.771  0.00  0.00    +0.000 A 
ATOM     34  N   UNL     1      43.346   3.325  12.781  0.00  0.00    +0.000 N 
ATOM     35  C   UNL     1      43.945   4.559  12.693  0.00  0.00    +0.000 A 
ATOM     36  O   UNL     1      43.964   5.322  13.655  0.00  0.00    +0.000 OA
ATOM     37  C   UNL     1      44.564   4.839  11.411  0.00  0.00    +0.000 A 
ATOM     38  H   UNL     1      42.902   3.104  13.658  0.00  0.00    +0.000 HD
ENDBRANCH  25  28
ENDBRANCH  23  24
ENDBRANCH   4  23
TORSDOF 8
ENDMDL
