MODEL 1
REMARK VINA RESULT:    -8.290      0.000      0.000
REMARK INTER + INTRA:         -12.269
REMARK INTER:                 -11.198
REMARK INTRA:                  -1.071
REMARK UNBOUND:                -1.071
REMARK  Name = 
REMARK  6 active torsions:
REMARK  status: ('A' for Active; 'I' for Inactive)
REMARK    1  A    between atoms: C_2  and  C_19
REMARK    2  A    between atoms: N_3  and  C_4
REMARK    3  A    between atoms: C_4  and  C_5
REMARK    4  A    between atoms: C_8  and  C_9
REMARK    5  A    between atoms: C_9  and  N_10
REMARK    6  A    between atoms: N_10  and  C_11
REMARK                            x       y       z     vdW  Elec       q    Type
REMARK                         _______ _______ _______ _____ _____    ______ ____
ROOT
ATOM      1  C   UNL     1      46.482   7.761  12.990  0.00  0.00    +0.000 C 
ENDROOT
BRANCH   1   2
ATOM      2  C   UNL     1      45.933   6.620  12.172  0.00  0.00    +0.000 A 
ATOM      3  C   UNL     1      45.007   5.748  12.737  0.00  0.00    +0.000 A 
ATOM      4  C   UNL     1      44.478   4.726  11.955  0.00  0.00    +0.000 A 
ATOM      5  C   UNL     1      44.888   4.586  10.626  0.00  0.00    +0.000 A 
ATOM      6  C   UNL     1      45.846   5.481  10.162  0.00  0.00    +0.000 A 
ATOM      7  N   UNL     1      46.377   6.486  10.896  0.00  0.00    +0.000 NA
BRANCH   5   8
ATOM      8  C   UNL     1      44.365   3.483   9.743  0.00  0.00    +0.000 C 
BRANCH   8   9
ATOM      9  N   UNL     1      44.450   3.825   8.323  0.00  0.00    +0.000 NA
ATOM     10  H   UNL     1      44.804   4.778   8.236  0.00  0.00    +0.000 HD
BRANCH   9  11
ATOM     11  C   UNL     1      45.309   2.915   7.544  0.00  0.00    +0.000 C 
ATOM     12  C   UNL     1      45.777   1.778   8.465  0.00  0.00    +0.000 C 
ATOM     13  C   UNL     1      46.761   0.861   7.749  0.00  0.00    +0.000 C 
ATOM     14  O   UNL     1      47.867   1.598   7.236  0.00  0.00    +0.000 OA
ATOM     15  C   UNL     1      47.463   2.580   6.287  0.00  0.00    +0.000 C 
ATOM     16  C   UNL     1      46.533   3.604   6.926  0.00  0.00    +0.000 C 
ENDBRANCH   9  11
ENDBRANCH   8   9
ENDBRANCH   5   8
ENDBRANCH   1   2
BRANCH   1  19
ATOM     17  O   UNL     1      49.048   6.605  13.162  0.00  0.00    +0.000 OA
ATOM     18  C   UNL     1      48.364   6.703  14.179  0.00  0.00    +0.000 C 
ATOM     19  N   UNL     1      47.136   7.303  14.188  0.00  0.00    +0.000 N 
ATOM     20  H   UNL     1      46.571   7.311  15.029  0.00  0.00    +0.000 HD
BRANCH  18  21
ATOM     21  C   UNL     1      48.838   6.222  15.475  0.00  0.00    +0.000 A 
ATOM     22  C   UNL     1      49.895   6.841  16.125  0.00  0.00    +0.000 A 
ATOM     23  S   UNL     1      50.243   6.152  17.650  0.00  0.00    +0.000 S 
ATOM     24  C   UNL     1      49.018   4.982  17.464  0.00  0.00    +0.000 A 
ATOM     25  N   UNL     1      48.763   4.063  18.432  0.00  0.00    +0.000 NA
ATOM     26  C   UNL     1      47.806   3.242  18.149  0.00  0.00    +0.000 A 
ATOM     27  N   UNL     1      47.091   3.244  16.981  0.00  0.00    +0.000 N 
ATOM     28  C   UNL     1      47.329   4.133  15.962  0.00  0.00    +0.000 A 
ATOM     29  O   UNL     1      46.684   4.087  14.922  0.00  0.00    +0.000 OA
ATOM     30  C   UNL     1      48.365   5.109  16.252  0.00  0.00    +0.000 A 
ATOM     31  H   UNL     1      46.357   2.574  16.813  0.00  0.00    +0.000 HD
ENDBRANCH  18  21
ENDBRANCH   1  19
TORSDOF 6
ENDMDL
MODEL 2
REMARK VINA RESULT:    -7.754      2.148      3.642
REMARK INTER + INTRA:         -11.545
REMARK INTER:                 -10.665
REMARK INTRA:                  -0.880
REMARK UNBOUND:                -1.071
REMARK  Name = 
REMARK  6 active torsions:
REMARK  status: ('A' for Active; 'I' for Inactive)
REMARK    1  A    between atoms: C_2  and  C_19
REMARK    2  A    between atoms: N_3  and  C_4
REMARK    3  A    between atoms: C_4  and  C_5
REMARK    4  A    between atoms: C_8  and  C_9
REMARK    5  A    between atoms: C_9  and  N_10
REMARK    6  A    between atoms: N_10  and  C_11
REMARK                            x       y       z     vdW  Elec       q    Type
REMARK                         _______ _______ _______ _____ _____    ______ ____
ROOT
ATOM      1  C   UNL     1      46.667   4.710  14.603  0.00  0.00    +0.000 C 
ENDROOT
BRANCH   1   2
ATOM      2  C   UNL     1      46.046   4.551  13.238  0.00  0.00    +0.000 A 
ATOM      3  C   UNL     1      46.062   5.618  12.345  0.00  0.00    +0.000 A 
ATOM      4  C   UNL     1      45.524   5.442  11.073  0.00  0.00    +0.000 A 
ATOM      5  C   UNL     1      44.971   4.208  10.719  0.00  0.00    +0.000 A 
ATOM      6  C   UNL     1      44.967   3.214  11.691  0.00  0.00    +0.000 A 
ATOM      7  N   UNL     1      45.484   3.353  12.935  0.00  0.00    +0.000 NA
BRANCH   5   8
ATOM      8  C   UNL     1      44.354   3.970   9.365  0.00  0.00    +0.000 C 
BRANCH   8   9
ATOM      9  N   UNL     1      45.239   4.381   8.274  0.00  0.00    +0.000 NA
ATOM     10  H   UNL     1      46.028   4.895   8.668  0.00  0.00    +0.000 HD
BRANCH   9  11
ATOM     11  C   UNL     1      45.746   3.257   7.466  0.00  0.00    +0.000 C 
ATOM     12  C   UNL     1      46.078   2.089   8.409  0.00  0.00    +0.000 C 
ATOM     13  C   UNL     1      46.712   0.933   7.647  0.00  0.00    +0.000 C 
ATOM     14  O   UNL     1      47.868   1.364   6.932  0.00  0.00    +0.000 OA
ATOM     15  C   UNL     1      47.559   2.365   5.966  0.00  0.00    +0.000 C 
ATOM     16  C   UNL     1      46.988   3.609   6.636  0.00  0.00    +0.000 C 
ENDBRANCH   9  11
ENDBRANCH   8   9
ENDBRANCH   5   8
ENDBRANCH   1   2
BRANCH   1  19
ATOM     17  O   UNL     1      48.868   5.127  16.315  0.00  0.00    +0.000 OA
ATOM     18  C   UNL     1      48.482   6.047  15.598  0.00  0.00    +0.000 C 
ATOM     19  N   UNL     1      47.461   5.906  14.701  0.00  0.00    +0.000 N 
ATOM     20  H   UNL     1      47.125   6.702  14.170  0.00  0.00    +0.000 HD
BRANCH  18  21
ATOM     21  C   UNL     1      49.124   7.360  15.618  0.00  0.00    +0.000 A 
ATOM     22  C   UNL     1      49.185   8.110  16.783  0.00  0.00    +0.000 A 
ATOM     23  S   UNL     1      50.029   9.583  16.591  0.00  0.00    +0.000 S 
ATOM     24  C   UNL     1      50.301   9.278  14.937  0.00  0.00    +0.000 A 
ATOM     25  N   UNL     1      50.993  10.152  14.159  0.00  0.00    +0.000 NA
ATOM     26  C   UNL     1      51.118   9.784  12.927  0.00  0.00    +0.000 A 
ATOM     27  N   UNL     1      50.601   8.633  12.395  0.00  0.00    +0.000 N 
ATOM     28  C   UNL     1      49.871   7.733  13.131  0.00  0.00    +0.000 A 
ATOM     29  O   UNL     1      49.405   6.726  12.614  0.00  0.00    +0.000 OA
ATOM     30  C   UNL     1      49.743   8.078  14.537  0.00  0.00    +0.000 A 
ATOM     31  H   UNL     1      50.727   8.401  11.422  0.00  0.00    +0.000 HD
ENDBRANCH  18  21
ENDBRANCH   1  19
TORSDOF 6
ENDMDL
MODEL 3
REMARK VINA RESULT:    -7.687      2.066      2.549
REMARK INTER + INTRA:         -11.454
REMARK INTER:                 -10.579
REMARK INTRA:                  -0.875
REMARK UNBOUND:                -1.071
REMARK  Name = 
REMARK  6 active torsions:
REMARK  status: ('A' for Active; 'I' for Inactive)
REMARK    1  A    between atoms: C_2  and  C_19
REMARK    2  A    between atoms: N_3  and  C_4
REMARK    3  A    between atoms: C_4  and  C_5
REMARK    4  A    between atoms: C_8  and  C_9
REMARK    5  A    between atoms: C_9  and  N_10
REMARK    6  A    between atoms: N_10  and  C_11
REMARK                            x       y       z     vdW  Elec       q    Type
REMARK                         _______ _______ _______ _____ _____    ______ ____
ROOT
ATOM      1  C   UNL     1      47.714   6.704  13.682  0.00  0.00    +0.000 C 
ENDROOT
BRANCH   1   2
ATOM      2  C   UNL     1      46.745   5.998  12.767  0.00  0.00    +0.000 A 
ATOM      3  C   UNL     1      46.489   6.515  11.501  0.00  0.00    +0.000 A 
ATOM      4  C   UNL     1      45.626   5.828  10.653  0.00  0.00    +0.000 A 
ATOM      5  C   UNL     1      45.025   4.642  11.087  0.00  0.00    +0.000 A 
ATOM      6  C   UNL     1      45.311   4.226  12.382  0.00  0.00    +0.000 A 
ATOM      7  N   UNL     1      46.148   4.870  13.229  0.00  0.00    +0.000 NA
BRANCH   5   8
ATOM      8  C   UNL     1      44.064   3.872  10.219  0.00  0.00    +0.000 C 
BRANCH   8   9
ATOM      9  N   UNL     1      44.151   4.267   8.812  0.00  0.00    +0.000 NA
ATOM     10  H   UNL     1      44.573   5.195   8.758  0.00  0.00    +0.000 HD
BRANCH   9  11
ATOM     11  C   UNL     1      44.928   3.331   7.980  0.00  0.00    +0.000 C 
ATOM     12  C   UNL     1      45.213   2.066   8.805  0.00  0.00    +0.000 C 
ATOM     13  C   UNL     1      46.109   1.102   8.038  0.00  0.00    +0.000 C 
ATOM     14  O   UNL     1      47.318   1.739   7.634  0.00  0.00    +0.000 OA
ATOM     15  C   UNL     1      47.080   2.845   6.769  0.00  0.00    +0.000 C 
ATOM     16  C   UNL     1      46.253   3.915   7.471  0.00  0.00    +0.000 C 
ENDBRANCH   9  11
ENDBRANCH   8   9
ENDBRANCH   5   8
ENDBRANCH   1   2
BRANCH   1  19
ATOM     17  O   UNL     1      49.863   6.692  15.507  0.00  0.00    +0.000 OA
ATOM     18  C   UNL     1      48.810   6.138  15.815  0.00  0.00    +0.000 C 
ATOM     19  N   UNL     1      47.705   6.151  15.010  0.00  0.00    +0.000 N 
ATOM     20  H   UNL     1      46.874   5.631  15.266  0.00  0.00    +0.000 HD
BRANCH  18  21
ATOM     21  C   UNL     1      48.644   5.459  17.098  0.00  0.00    +0.000 A 
ATOM     22  C   UNL     1      48.761   4.081  17.200  0.00  0.00    +0.000 A 
ATOM     23  S   UNL     1      48.588   3.508  18.801  0.00  0.00    +0.000 S 
ATOM     24  C   UNL     1      48.312   5.080  19.394  0.00  0.00    +0.000 A 
ATOM     25  N   UNL     1      48.100   5.311  20.717  0.00  0.00    +0.000 NA
ATOM     26  C   UNL     1      47.906   6.553  21.017  0.00  0.00    +0.000 A 
ATOM     27  N   UNL     1      47.887   7.584  20.115  0.00  0.00    +0.000 N 
ATOM     28  C   UNL     1      48.068   7.399  18.767  0.00  0.00    +0.000 A 
ATOM     29  O   UNL     1      48.021   8.344  17.990  0.00  0.00    +0.000 OA
ATOM     30  C   UNL     1      48.338   6.024  18.385  0.00  0.00    +0.000 A 
ATOM     31  H   UNL     1      47.726   8.535  20.408  0.00  0.00    +0.000 HD
ENDBRANCH  18  21
ENDBRANCH   1  19
TORSDOF 6
ENDMDL
MODEL 4
REMARK VINA RESULT:    -7.159      4.223      8.778
REMARK INTER + INTRA:         -10.742
REMARK INTER:                  -9.742
REMARK INTRA:                  -1.000
REMARK UNBOUND:                -1.071
REMARK  Name = 
REMARK  6 active torsions:
REMARK  status: ('A' for Active; 'I' for Inactive)
REMARK    1  A    between atoms: C_2  and  C_19
REMARK    2  A    between atoms: N_3  and  C_4
REMARK    3  A    between atoms: C_4  and  C_5
REMARK    4  A    between atoms: C_8  and  C_9
REMARK    5  A    between atoms: C_9  and  N_10
REMARK    6  A    between atoms: N_10  and  C_11
REMARK                            x       y       z     vdW  Elec       q    Type
REMARK                         _______ _______ _______ _____ _____    ______ ____
ROOT
ATOM      1  C   UNL     1      47.166   3.351  17.050  0.00  0.00    +0.000 C 
ENDROOT
BRANCH   1   2
ATOM      2  C   UNL     1      48.646   3.301  17.335  0.00  0.00    +0.000 A 
ATOM      3  C   UNL     1      49.376   2.165  16.996  0.00  0.00    +0.000 A 
ATOM      4  C   UNL     1      50.749   2.152  17.226  0.00  0.00    +0.000 A 
ATOM      5  C   UNL     1      51.367   3.268  17.797  0.00  0.00    +0.000 A 
ATOM      6  C   UNL     1      50.549   4.340  18.137  0.00  0.00    +0.000 A 
ATOM      7  N   UNL     1      49.213   4.384  17.924  0.00  0.00    +0.000 NA
BRANCH   5   8
ATOM      8  C   UNL     1      52.845   3.297  18.089  0.00  0.00    +0.000 C 
BRANCH   8   9
ATOM      9  N   UNL     1      53.271   2.155  18.898  0.00  0.00    +0.000 NA
ATOM     10  H   UNL     1      52.452   1.589  19.123  0.00  0.00    +0.000 HD
BRANCH   9  11
ATOM     11  C   UNL     1      54.283   1.308  18.243  0.00  0.00    +0.000 C 
ATOM     12  C   UNL     1      54.804   2.044  16.998  0.00  0.00    +0.000 C 
ATOM     13  C   UNL     1      55.775   1.173  16.212  0.00  0.00    +0.000 C 
ATOM     14  O   UNL     1      55.176  -0.073  15.862  0.00  0.00    +0.000 OA
ATOM     15  C   UNL     1      54.794  -0.825  17.009  0.00  0.00    +0.000 C 
ATOM     16  C   UNL     1      53.755  -0.074  17.831  0.00  0.00    +0.000 C 
ENDBRANCH   9  11
ENDBRANCH   8   9
ENDBRANCH   5   8
ENDBRANCH   1   2
BRANCH   1  19
ATOM     17  O   UNL     1      47.346   3.017  14.256  0.00  0.00    +0.000 OA
ATOM     18  C   UNL     1      47.006   4.108  14.710  0.00  0.00    +0.000 C 
ATOM     19  N   UNL     1      46.840   4.331  16.048  0.00  0.00    +0.000 N 
ATOM     20  H   UNL     1      46.621   5.258  16.394  0.00  0.00    +0.000 HD
BRANCH  18  21
ATOM     21  C   UNL     1      46.706   5.244  13.841  0.00  0.00    +0.000 A 
ATOM     22  C   UNL     1      47.598   6.297  13.706  0.00  0.00    +0.000 A 
ATOM     23  S   UNL     1      47.071   7.487  12.598  0.00  0.00    +0.000 S 
ATOM     24  C   UNL     1      45.619   6.646  12.300  0.00  0.00    +0.000 A 
ATOM     25  N   UNL     1      44.696   7.116  11.419  0.00  0.00    +0.000 NA
ATOM     26  C   UNL     1      43.647   6.371  11.298  0.00  0.00    +0.000 A 
ATOM     27  N   UNL     1      43.427   5.209  11.988  0.00  0.00    +0.000 N 
ATOM     28  C   UNL     1      44.314   4.708  12.908  0.00  0.00    +0.000 A 
ATOM     29  O   UNL     1      44.070   3.677  13.522  0.00  0.00    +0.000 OA
ATOM     30  C   UNL     1      45.533   5.485  13.045  0.00  0.00    +0.000 A 
ATOM     31  H   UNL     1      42.585   4.671  11.856  0.00  0.00    +0.000 HD
ENDBRANCH  18  21
ENDBRANCH   1  19
TORSDOF 6
ENDMDL
MODEL 5
REMARK VINA RESULT:    -7.145      1.793      2.412
REMARK INTER + INTRA:         -10.722
REMARK INTER:                  -9.753
REMARK INTRA:                  -0.969
REMARK UNBOUND:                -1.071
REMARK  Name = 
REMARK  6 active torsions:
REMARK  status: ('A' for Active; 'I' for Inactive)
REMARK    1  A    between atoms: C_2  and  C_19
REMARK    2  A    between atoms: N_3  and  C_4
REMARK    3  A    between atoms: C_4  and  C_5
REMARK    4  A    between atoms: C_8  and  C_9
REMARK    5  A    between atoms: C_9  and  N_10
REMARK    6  A    between atoms: N_10  and  C_11
REMARK                            x       y       z     vdW  Elec       q    Type
REMARK                         _______ _______ _______ _____ _____    ______ ____
ROOT
ATOM      1  C   UNL     1      48.074   6.608  13.781  0.00  0.00    +0.000 C 
ENDROOT
BRANCH   1   2
ATOM      2  C   UNL     1      46.934   5.707  13.380  0.00  0.00    +0.000 A 
ATOM      3  C   UNL     1      45.741   6.264  12.928  0.00  0.00    +0.000 A 
ATOM      4  C   UNL     1      44.713   5.417  12.521  0.00  0.00    +0.000 A 
ATOM      5  C   UNL     1      44.890   4.032  12.581  0.00  0.00    +0.000 A 
ATOM      6  C   UNL     1      46.102   3.571  13.083  0.00  0.00    +0.000 A 
ATOM      7  N   UNL     1      47.120   4.367  13.484  0.00  0.00    +0.000 NA
BRANCH   5   8
ATOM      8  C   UNL     1      43.802   3.072  12.176  0.00  0.00    +0.000 C 
BRANCH   8   9
ATOM      9  N   UNL     1      43.556   3.091  10.734  0.00  0.00    +0.000 NA
ATOM     10  H   UNL     1      43.053   3.948  10.499  0.00  0.00    +0.000 HD
BRANCH   9  11
ATOM     11  C   UNL     1      44.783   3.010   9.921  0.00  0.00    +0.000 C 
ATOM     12  C   UNL     1      44.797   4.194   8.941  0.00  0.00    +0.000 C 
ATOM     13  C   UNL     1      45.987   4.106   7.993  0.00  0.00    +0.000 C 
ATOM     14  O   UNL     1      45.998   2.861   7.300  0.00  0.00    +0.000 OA
ATOM     15  C   UNL     1      46.105   1.753   8.188  0.00  0.00    +0.000 C 
ATOM     16  C   UNL     1      44.913   1.698   9.135  0.00  0.00    +0.000 C 
ENDBRANCH   9  11
ENDBRANCH   8   9
ENDBRANCH   5   8
ENDBRANCH   1   2
BRANCH   1  19
ATOM     17  O   UNL     1      50.465   7.276  15.118  0.00  0.00    +0.000 OA
ATOM     18  C   UNL     1      49.496   6.898  15.773  0.00  0.00    +0.000 C 
ATOM     19  N   UNL     1      48.287   6.612  15.204  0.00  0.00    +0.000 N 
ATOM     20  H   UNL     1      47.527   6.242  15.764  0.00  0.00    +0.000 HD
BRANCH  18  21
ATOM     21  C   UNL     1      49.553   6.770  17.227  0.00  0.00    +0.000 A 
ATOM     22  C   UNL     1      49.903   7.846  18.028  0.00  0.00    +0.000 A 
ATOM     23  S   UNL     1      49.848   7.488  19.698  0.00  0.00    +0.000 S 
ATOM     24  C   UNL     1      49.395   5.874  19.395  0.00  0.00    +0.000 A 
ATOM     25  N   UNL     1      49.166   5.000  20.410  0.00  0.00    +0.000 NA
ATOM     26  C   UNL     1      48.830   3.812  20.026  0.00  0.00    +0.000 A 
ATOM     27  N   UNL     1      48.719   3.413  18.721  0.00  0.00    +0.000 N 
ATOM     28  C   UNL     1      48.967   4.250  17.660  0.00  0.00    +0.000 A 
ATOM     29  O   UNL     1      48.879   3.849  16.507  0.00  0.00    +0.000 OA
ATOM     30  C   UNL     1      49.301   5.611  18.041  0.00  0.00    +0.000 A 
ATOM     31  H   UNL     1      48.457   2.470  18.480  0.00  0.00    +0.000 HD
ENDBRANCH  18  21
ENDBRANCH   1  19
TORSDOF 6
ENDMDL
MODEL 6
REMARK VINA RESULT:    -6.988      2.520      3.553
REMARK INTER + INTRA:         -10.511
REMARK INTER:                  -9.937
REMARK INTRA:                  -0.573
REMARK UNBOUND:                -1.071
REMARK  Name = 
REMARK  6 active torsions:
REMARK  status: ('A' for Active; 'I' for Inactive)
REMARK    1  A    between atoms: C_2  and  C_19
REMARK    2  A    between atoms: N_3  and  C_4
REMARK    3  A    between atoms: C_4  and  C_5
REMARK    4  A    between atoms: C_8  and  C_9
REMARK    5  A    between atoms: C_9  and  N_10
REMARK    6  A    between atoms: N_10  and  C_11
REMARK                            x       y       z     vdW  Elec       q    Type
REMARK                         _______ _______ _______ _____ _____    ______ ____
ROOT
ATOM      1  C   UNL     1      46.737   5.195  14.204  0.00  0.00    +0.000 C 
ENDROOT
BRANCH   1   2
ATOM      2  C   UNL     1      46.118   4.843  12.875  0.00  0.00    +0.000 A 
ATOM      3  C   UNL     1      45.618   3.561  12.666  0.00  0.00    +0.000 A 
ATOM      4  C   UNL     1      45.011   3.264  11.449  0.00  0.00    +0.000 A 
ATOM      5  C   UNL     1      44.921   4.248  10.460  0.00  0.00    +0.000 A 
ATOM      6  C   UNL     1      45.484   5.487  10.748  0.00  0.00    +0.000 A 
ATOM      7  N   UNL     1      46.078   5.807  11.921  0.00  0.00    +0.000 NA
BRANCH   5   8
ATOM      8  C   UNL     1      44.296   3.974   9.117  0.00  0.00    +0.000 C 
BRANCH   8   9
ATOM      9  N   UNL     1      45.183   4.332   8.010  0.00  0.00    +0.000 NA
ATOM     10  H   UNL     1      45.955   4.891   8.377  0.00  0.00    +0.000 HD
BRANCH   9  11
ATOM     11  C   UNL     1      45.726   3.170   7.284  0.00  0.00    +0.000 C 
ATOM     12  C   UNL     1      46.092   2.083   8.307  0.00  0.00    +0.000 C 
ATOM     13  C   UNL     1      46.763   0.896   7.629  0.00  0.00    +0.000 C 
ATOM     14  O   UNL     1      47.906   1.310   6.885  0.00  0.00    +0.000 OA
ATOM     15  C   UNL     1      47.569   2.230   5.851  0.00  0.00    +0.000 C 
ATOM     16  C   UNL     1      46.959   3.500   6.431  0.00  0.00    +0.000 C 
ENDBRANCH   9  11
ENDBRANCH   8   9
ENDBRANCH   5   8
ENDBRANCH   1   2
BRANCH   1  19
ATOM     17  O   UNL     1      49.182   6.270  13.300  0.00  0.00    +0.000 OA
ATOM     18  C   UNL     1      48.368   7.009  13.852  0.00  0.00    +0.000 C 
ATOM     19  N   UNL     1      47.140   6.576  14.265  0.00  0.00    +0.000 N 
ATOM     20  H   UNL     1      46.518   7.194  14.773  0.00  0.00    +0.000 HD
BRANCH  18  21
ATOM     21  C   UNL     1      48.639   8.429  14.066  0.00  0.00    +0.000 A 
ATOM     22  C   UNL     1      48.810   9.294  12.997  0.00  0.00    +0.000 A 
ATOM     23  S   UNL     1      49.058  10.916  13.477  0.00  0.00    +0.000 S 
ATOM     24  C   UNL     1      48.984  10.498  15.127  0.00  0.00    +0.000 A 
ATOM     25  N   UNL     1      49.109  11.437  16.102  0.00  0.00    +0.000 NA
ATOM     26  C   UNL     1      49.032  10.970  17.304  0.00  0.00    +0.000 A 
ATOM     27  N   UNL     1      48.858   9.649  17.623  0.00  0.00    +0.000 N 
ATOM     28  C   UNL     1      48.754   8.660  16.677  0.00  0.00    +0.000 A 
ATOM     29  O   UNL     1      48.623   7.488  17.002  0.00  0.00    +0.000 OA
ATOM     30  C   UNL     1      48.787   9.142  15.307  0.00  0.00    +0.000 A 
ATOM     31  H   UNL     1      48.809   9.342  18.582  0.00  0.00    +0.000 HD
ENDBRANCH  18  21
ENDBRANCH   1  19
TORSDOF 6
ENDMDL
MODEL 7
REMARK VINA RESULT:    -6.934      3.675      8.250
REMARK INTER + INTRA:         -10.438
REMARK INTER:                  -9.341
REMARK INTRA:                  -1.097
REMARK UNBOUND:                -1.071
REMARK  Name = 
REMARK  6 active torsions:
REMARK  status: ('A' for Active; 'I' for Inactive)
REMARK    1  A    between atoms: C_2  and  C_19
REMARK    2  A    between atoms: N_3  and  C_4
REMARK    3  A    between atoms: C_4  and  C_5
REMARK    4  A    between atoms: C_8  and  C_9
REMARK    5  A    between atoms: C_9  and  N_10
REMARK    6  A    between atoms: N_10  and  C_11
REMARK                            x       y       z     vdW  Elec       q    Type
REMARK                         _______ _______ _______ _____ _____    ______ ____
ROOT
ATOM      1  C   UNL     1      48.305   7.441  14.201  0.00  0.00    +0.000 C 
ENDROOT
BRANCH   1   2
ATOM      2  C   UNL     1      48.881   6.601  15.313  0.00  0.00    +0.000 A 
ATOM      3  C   UNL     1      50.100   6.955  15.884  0.00  0.00    +0.000 A 
ATOM      4  C   UNL     1      50.597   6.194  16.939  0.00  0.00    +0.000 A 
ATOM      5  C   UNL     1      49.874   5.090  17.399  0.00  0.00    +0.000 A 
ATOM      6  C   UNL     1      48.686   4.793  16.740  0.00  0.00    +0.000 A 
ATOM      7  N   UNL     1      48.175   5.514  15.714  0.00  0.00    +0.000 NA
BRANCH   5   8
ATOM      8  C   UNL     1      50.377   4.219  18.520  0.00  0.00    +0.000 C 
BRANCH   8   9
ATOM      9  N   UNL     1      50.528   2.822  18.111  0.00  0.00    +0.000 NA
ATOM     10  H   UNL     1      49.863   2.627  17.361  0.00  0.00    +0.000 HD
BRANCH   9  11
ATOM     11  C   UNL     1      51.887   2.479  17.656  0.00  0.00    +0.000 C 
ATOM     12  C   UNL     1      52.042   0.951  17.689  0.00  0.00    +0.000 C 
ATOM     13  C   UNL     1      53.464   0.535  17.336  0.00  0.00    +0.000 C 
ATOM     14  O   UNL     1      54.410   1.169  18.193  0.00  0.00    +0.000 OA
ATOM     15  C   UNL     1      54.364   2.589  18.087  0.00  0.00    +0.000 C 
ATOM     16  C   UNL     1      52.998   3.121  18.500  0.00  0.00    +0.000 C 
ENDBRANCH   9  11
ENDBRANCH   8   9
ENDBRANCH   5   8
ENDBRANCH   1   2
BRANCH   1  19
ATOM     17  O   UNL     1      47.665   7.027  11.487  0.00  0.00    +0.000 OA
ATOM     18  C   UNL     1      46.826   6.771  12.348  0.00  0.00    +0.000 C 
ATOM     19  N   UNL     1      47.080   6.890  13.685  0.00  0.00    +0.000 N 
ATOM     20  H   UNL     1      46.347   6.731  14.366  0.00  0.00    +0.000 HD
BRANCH  18  21
ATOM     21  C   UNL     1      45.497   6.270  12.002  0.00  0.00    +0.000 A 
ATOM     22  C   UNL     1      44.523   7.116  11.496  0.00  0.00    +0.000 A 
ATOM     23  S   UNL     1      43.067   6.309  11.108  0.00  0.00    +0.000 S 
ATOM     24  C   UNL     1      43.686   4.815  11.645  0.00  0.00    +0.000 A 
ATOM     25  N   UNL     1      42.946   3.676  11.580  0.00  0.00    +0.000 NA
ATOM     26  C   UNL     1      43.549   2.623  12.023  0.00  0.00    +0.000 A 
ATOM     27  N   UNL     1      44.817   2.605  12.541  0.00  0.00    +0.000 N 
ATOM     28  C   UNL     1      45.593   3.731  12.654  0.00  0.00    +0.000 A 
ATOM     29  O   UNL     1      46.714   3.678  13.145  0.00  0.00    +0.000 OA
ATOM     30  C   UNL     1      44.977   4.935  12.124  0.00  0.00    +0.000 A 
ATOM     31  H   UNL     1      45.235   1.751  12.877  0.00  0.00    +0.000 HD
ENDBRANCH  18  21
ENDBRANCH   1  19
TORSDOF 6
ENDMDL
MODEL 8
REMARK VINA RESULT:    -6.913      2.659      3.394
REMARK INTER + INTRA:         -10.410
REMARK INTER:                  -9.550
REMARK INTRA:                  -0.860
REMARK UNBOUND:                -1.071
REMARK  Name = 
REMARK  6 active torsions:
REMARK  status: ('A' for Active; 'I' for Inactive)
REMARK    1  A    between atoms: C_2  and  C_19
REMARK    2  A    between atoms: N_3  and  C_4
REMARK    3  A    between atoms: C_4  and  C_5
REMARK    4  A    between atoms: C_8  and  C_9
REMARK    5  A    between atoms: C_9  and  N_10
REMARK    6  A    between atoms: N_10  and  C_11
REMARK                            x       y       z     vdW  Elec       q    Type
REMARK                         _______ _______ _______ _____ _____    ______ ____
ROOT
ATOM      1  C   UNL     1      47.138   4.352  15.483  0.00  0.00    +0.000 C 
ENDROOT
BRANCH   1   2
ATOM      2  C   UNL     1      46.630   4.749  14.120  0.00  0.00    +0.000 A 
ATOM      3  C   UNL     1      47.240   5.795  13.433  0.00  0.00    +0.000 A 
ATOM      4  C   UNL     1      46.786   6.120  12.158  0.00  0.00    +0.000 A 
ATOM      5  C   UNL     1      45.727   5.403  11.594  0.00  0.00    +0.000 A 
ATOM      6  C   UNL     1      45.156   4.402  12.372  0.00  0.00    +0.000 A 
ATOM      7  N   UNL     1      45.576   4.060  13.613  0.00  0.00    +0.000 NA
BRANCH   5   8
ATOM      8  C   UNL     1      45.182   5.729  10.229  0.00  0.00    +0.000 C 
BRANCH   8   9
ATOM      9  N   UNL     1      44.224   4.726   9.761  0.00  0.00    +0.000 NA
ATOM     10  H   UNL     1      43.398   5.205   9.400  0.00  0.00    +0.000 HD
BRANCH   9  11
ATOM     11  C   UNL     1      44.762   3.832   8.720  0.00  0.00    +0.000 C 
ATOM     12  C   UNL     1      45.065   2.468   9.358  0.00  0.00    +0.000 C 
ATOM     13  C   UNL     1      45.729   1.530   8.358  0.00  0.00    +0.000 C 
ATOM     14  O   UNL     1      46.906   2.117   7.809  0.00  0.00    +0.000 OA
ATOM     15  C   UNL     1      46.626   3.325   7.108  0.00  0.00    +0.000 C 
ATOM     16  C   UNL     1      46.030   4.370   8.043  0.00  0.00    +0.000 C 
ENDBRANCH   9  11
ENDBRANCH   8   9
ENDBRANCH   5   8
ENDBRANCH   1   2
BRANCH   1  19
ATOM     17  O   UNL     1      49.009   4.091  17.576  0.00  0.00    +0.000 OA
ATOM     18  C   UNL     1      48.716   5.213  17.169  0.00  0.00    +0.000 C 
ATOM     19  N   UNL     1      47.863   5.419  16.121  0.00  0.00    +0.000 N 
ATOM     20  H   UNL     1      47.594   6.358  15.852  0.00  0.00    +0.000 HD
BRANCH  18  21
ATOM     21  C   UNL     1      49.300   6.419  17.751  0.00  0.00    +0.000 A 
ATOM     22  C   UNL     1      50.422   7.012  17.192  0.00  0.00    +0.000 A 
ATOM     23  S   UNL     1      50.899   8.442  17.999  0.00  0.00    +0.000 S 
ATOM     24  C   UNL     1      49.644   8.285  19.139  0.00  0.00    +0.000 A 
ATOM     25  N   UNL     1      49.465   9.201  20.127  0.00  0.00    +0.000 NA
ATOM     26  C   UNL     1      48.472   8.948  20.916  0.00  0.00    +0.000 A 
ATOM     27  N   UNL     1      47.653   7.856  20.819  0.00  0.00    +0.000 N 
ATOM     28  C   UNL     1      47.809   6.888  19.857  0.00  0.00    +0.000 A 
ATOM     29  O   UNL     1      47.070   5.913  19.818  0.00  0.00    +0.000 OA
ATOM     30  C   UNL     1      48.883   7.152  18.916  0.00  0.00    +0.000 A 
ATOM     31  H   UNL     1      46.895   7.708  21.467  0.00  0.00    +0.000 HD
ENDBRANCH  18  21
ENDBRANCH   1  19
TORSDOF 6
ENDMDL
MODEL 9
REMARK VINA RESULT:    -6.810      4.129      9.291
REMARK INTER + INTRA:         -10.269
REMARK INTER:                  -9.312
REMARK INTRA:                  -0.958
REMARK UNBOUND:                -1.071
REMARK  Name = 
REMARK  6 active torsions:
REMARK  status: ('A' for Active; 'I' for Inactive)
REMARK    1  A    between atoms: C_2  and  C_19
REMARK    2  A    between atoms: N_3  and  C_4
REMARK    3  A    between atoms: C_4  and  C_5
REMARK    4  A    between atoms: C_8  and  C_9
REMARK    5  A    between atoms: C_9  and  N_10
REMARK    6  A    between atoms: N_10  and  C_11
REMARK                            x       y       z     vdW  Elec       q    Type
REMARK                         _______ _______ _______ _____ _____    ______ ____
ROOT
ATOM      1  C   UNL     1      47.373   3.474  16.539  0.00  0.00    +0.000 C 
ENDROOT
BRANCH   1   2
ATOM      2  C   UNL     1      48.764   3.892  16.942  0.00  0.00    +0.000 A 
ATOM      3  C   UNL     1      49.647   2.946  17.455  0.00  0.00    +0.000 A 
ATOM      4  C   UNL     1      50.942   3.340  17.781  0.00  0.00    +0.000 A 
ATOM      5  C   UNL     1      51.330   4.670  17.599  0.00  0.00    +0.000 A 
ATOM      6  C   UNL     1      50.366   5.549  17.117  0.00  0.00    +0.000 A 
ATOM      7  N   UNL     1      49.101   5.198  16.788  0.00  0.00    +0.000 NA
BRANCH   5   8
ATOM      8  C   UNL     1      52.710   5.154  17.958  0.00  0.00    +0.000 C 
BRANCH   8   9
ATOM      9  N   UNL     1      53.759   4.311  17.383  0.00  0.00    +0.000 NA
ATOM     10  H   UNL     1      54.392   4.900  16.840  0.00  0.00    +0.000 HD
BRANCH   9  11
ATOM     11  C   UNL     1      54.535   3.561  18.388  0.00  0.00    +0.000 C 
ATOM     12  C   UNL     1      54.442   2.063  18.057  0.00  0.00    +0.000 C 
ATOM     13  C   UNL     1      55.132   1.222  19.122  0.00  0.00    +0.000 C 
ATOM     14  O   UNL     1      54.602   1.499  20.416  0.00  0.00    +0.000 OA
ATOM     15  C   UNL     1      54.787   2.861  20.791  0.00  0.00    +0.000 C 
ATOM     16  C   UNL     1      54.062   3.793  19.829  0.00  0.00    +0.000 C 
ENDBRANCH   9  11
ENDBRANCH   8   9
ENDBRANCH   5   8
ENDBRANCH   1   2
BRANCH   1  19
ATOM     17  O   UNL     1      47.139   3.147  13.748  0.00  0.00    +0.000 OA
ATOM     18  C   UNL     1      46.749   4.192  14.265  0.00  0.00    +0.000 C 
ATOM     19  N   UNL     1      46.775   4.402  15.616  0.00  0.00    +0.000 N 
ATOM     20  H   UNL     1      46.505   5.298  16.004  0.00  0.00    +0.000 HD
BRANCH  18  21
ATOM     21  C   UNL     1      46.179   5.278  13.471  0.00  0.00    +0.000 A 
ATOM     22  C   UNL     1      46.884   6.453  13.254  0.00  0.00    +0.000 A 
ATOM     23  S   UNL     1      46.053   7.560  12.252  0.00  0.00    +0.000 S 
ATOM     24  C   UNL     1      44.713   6.517  12.114  0.00  0.00    +0.000 A 
ATOM     25  N   UNL     1      43.628   6.853  11.368  0.00  0.00    +0.000 NA
ATOM     26  C   UNL     1      42.691   5.962  11.359  0.00  0.00    +0.000 A 
ATOM     27  N   UNL     1      42.732   4.775  12.039  0.00  0.00    +0.000 N 
ATOM     28  C   UNL     1      43.792   4.402  12.828  0.00  0.00    +0.000 A 
ATOM     29  O   UNL     1      43.780   3.342  13.440  0.00  0.00    +0.000 OA
ATOM     30  C   UNL     1      44.892   5.350  12.833  0.00  0.00    +0.000 A 
ATOM     31  H   UNL     1      41.967   4.119  11.998  0.00  0.00    +0.000 HD
ENDBRANCH  18  21
ENDBRANCH   1  19
TORSDOF 6
ENDMDL
