MODEL 1
REMARK VINA RESULT:    -7.465      0.000      0.000
REMARK INTER + INTRA:         -11.360
REMARK INTER:                 -10.083
REMARK INTRA:                  -1.276
REMARK UNBOUND:                -1.276
REMARK  Name = 
REMARK  7 active torsions:
REMARK  status: ('A' for Active; 'I' for Inactive)
REMARK    1  A    between atoms: C_1  and  C_2
REMARK    2  A    between atoms: C_2  and  N_3
REMARK    3  A    between atoms: N_3  and  C_4
REMARK    4  A    between atoms: C_4  and  C_5
REMARK    5  A    between atoms: C_8  and  C_9
REMARK    6  A    between atoms: C_9  and  C_10
REMARK    7  A    between atoms: C_17  and  C_19
REMARK                            x       y       z     vdW  Elec       q    Type
REMARK                         _______ _______ _______ _____ _____    ______ ____
ROOT
ATOM      1  N   UNL     1      46.028   7.064  12.163  0.00  0.00    +0.000 N 
ATOM      2  C   UNL     1      44.771   6.660  11.666  0.00  0.00    +0.000 C 
ATOM      3  O   UNL     1      43.909   7.483  11.365  0.00  0.00    +0.000 OA
ENDROOT
BRANCH   2   4
ATOM      4  C   UNL     1      44.461   5.222  11.549  0.00  0.00    +0.000 A 
ATOM      5  C   UNL     1      43.717   4.489  12.460  0.00  0.00    +0.000 A 
ATOM      6  S   UNL     1      43.464   2.864  11.998  0.00  0.00    +0.000 S 
ATOM      7  C   UNL     1      44.190   3.133  10.486  0.00  0.00    +0.000 A 
ATOM      8  N   UNL     1      44.186   2.173   9.530  0.00  0.00    +0.000 NA
ATOM      9  C   UNL     1      44.711   2.544   8.407  0.00  0.00    +0.000 A 
ATOM     10  N   UNL     1      45.289   3.767   8.182  0.00  0.00    +0.000 N 
ATOM     11  C   UNL     1      45.440   4.720   9.167  0.00  0.00    +0.000 A 
ATOM     12  O   UNL     1      46.170   5.692   9.006  0.00  0.00    +0.000 OA
ATOM     13  C   UNL     1      44.736   4.402  10.394  0.00  0.00    +0.000 A 
ATOM     14  H   UNL     1      45.752   3.968   7.307  0.00  0.00    +0.000 HD
ENDBRANCH   2   4
BRANCH   1  16
ATOM     15  C   UNL     1      47.648   8.949  12.129  0.00  0.00    +0.000 C 
ATOM     16  C   UNL     1      46.221   8.497  12.409  0.00  0.00    +0.000 C 
ENDBRANCH   1  16
BRANCH   1  17
ATOM     17  C   UNL     1      47.065   6.105  12.516  0.00  0.00    +0.000 C 
BRANCH  17  18
ATOM     18  C   UNL     1      47.325   5.724  13.941  0.00  0.00    +0.000 A 
ATOM     19  C   UNL     1      46.766   4.560  14.476  0.00  0.00    +0.000 A 
ATOM     20  C   UNL     1      47.233   4.067  15.688  0.00  0.00    +0.000 A 
ATOM     21  C   UNL     1      48.260   4.741  16.340  0.00  0.00    +0.000 A 
ATOM     22  N   UNL     1      48.750   5.923  15.883  0.00  0.00    +0.000 NA
ATOM     23  C   UNL     1      48.273   6.388  14.706  0.00  0.00    +0.000 A 
BRANCH  21  24
ATOM     24  C   UNL     1      48.893   4.170  17.586  0.00  0.00    +0.000 C 
BRANCH  24  25
ATOM     25  C   UNL     1      50.322   3.606  17.445  0.00  0.00    +0.000 C 
ATOM     26  C   UNL     1      50.410   2.101  17.235  0.00  0.00    +0.000 C 
ATOM     27  C   UNL     1      51.871   1.809  17.532  0.00  0.00    +0.000 C 
ATOM     28  C   UNL     1      52.266   2.846  18.571  0.00  0.00    +0.000 C 
ATOM     29  N   UNL     1      51.198   3.846  18.605  0.00  0.00    +0.000 NA
ATOM     30  H   UNL     1      51.583   4.789  18.577  0.00  0.00    +0.000 HD
ENDBRANCH  24  25
ENDBRANCH  21  24
ENDBRANCH  17  18
ENDBRANCH   1  17
TORSDOF 6
ENDMDL
MODEL 2
REMARK VINA RESULT:    -7.333      1.455      2.057
REMARK INTER + INTRA:         -11.182
REMARK INTER:                  -9.694
REMARK INTRA:                  -1.488
REMARK UNBOUND:                -1.276
REMARK  Name = 
REMARK  7 active torsions:
REMARK  status: ('A' for Active; 'I' for Inactive)
REMARK    1  A    between atoms: C_1  and  C_2
REMARK    2  A    between atoms: C_2  and  N_3
REMARK    3  A    between atoms: N_3  and  C_4
REMARK    4  A    between atoms: C_4  and  C_5
REMARK    5  A    between atoms: C_8  and  C_9
REMARK    6  A    between atoms: C_9  and  C_10
REMARK    7  A    between atoms: C_17  and  C_19
REMARK                            x       y       z     vdW  Elec       q    Type
REMARK                         _______ _______ _______ _____ _____    ______ ____
ROOT
ATOM      1  N   UNL     1      46.223   7.225  12.022  0.00  0.00    +0.000 N 
ATOM      2  C   UNL     1      44.945   6.860  11.548  0.00  0.00    +0.000 C 
ATOM      3  O   UNL     1      44.121   7.709  11.215  0.00  0.00    +0.000 OA
ENDROOT
BRANCH   2   4
ATOM      4  C   UNL     1      44.568   5.434  11.493  0.00  0.00    +0.000 A 
ATOM      5  C   UNL     1      43.795   4.776  12.437  0.00  0.00    +0.000 A 
ATOM      6  S   UNL     1      43.463   3.147  12.045  0.00  0.00    +0.000 S 
ATOM      7  C   UNL     1      44.191   3.318  10.520  0.00  0.00    +0.000 A 
ATOM      8  N   UNL     1      44.136   2.320   9.605  0.00  0.00    +0.000 NA
ATOM      9  C   UNL     1      44.670   2.618   8.465  0.00  0.00    +0.000 A 
ATOM     10  N   UNL     1      45.304   3.803   8.186  0.00  0.00    +0.000 N 
ATOM     11  C   UNL     1      45.506   4.787   9.129  0.00  0.00    +0.000 A 
ATOM     12  O   UNL     1      46.280   5.717   8.924  0.00  0.00    +0.000 OA
ATOM     13  C   UNL     1      44.795   4.555  10.372  0.00  0.00    +0.000 A 
ATOM     14  H   UNL     1      45.770   3.944   7.301  0.00  0.00    +0.000 HD
ENDBRANCH   2   4
BRANCH   1  16
ATOM     15  C   UNL     1      47.945   9.017  11.966  0.00  0.00    +0.000 C 
ATOM     16  C   UNL     1      46.485   8.656  12.207  0.00  0.00    +0.000 C 
ENDBRANCH   1  16
BRANCH   1  17
ATOM     17  C   UNL     1      47.216   6.233  12.410  0.00  0.00    +0.000 C 
BRANCH  17  18
ATOM     18  C   UNL     1      47.395   5.826  13.841  0.00  0.00    +0.000 A 
ATOM     19  C   UNL     1      46.804   4.654  14.322  0.00  0.00    +0.000 A 
ATOM     20  C   UNL     1      47.201   4.137  15.549  0.00  0.00    +0.000 A 
ATOM     21  C   UNL     1      48.193   4.795  16.269  0.00  0.00    +0.000 A 
ATOM     22  N   UNL     1      48.710   5.983  15.862  0.00  0.00    +0.000 NA
ATOM     23  C   UNL     1      48.301   6.472  14.669  0.00  0.00    +0.000 A 
BRANCH  21  24
ATOM     24  C   UNL     1      48.753   4.199  17.538  0.00  0.00    +0.000 C 
BRANCH  24  25
ATOM     25  C   UNL     1      48.784   5.114  18.781  0.00  0.00    +0.000 C 
ATOM     26  C   UNL     1      48.728   4.393  20.121  0.00  0.00    +0.000 C 
ATOM     27  C   UNL     1      48.374   5.512  21.085  0.00  0.00    +0.000 C 
ATOM     28  C   UNL     1      47.528   6.472  20.266  0.00  0.00    +0.000 C 
ATOM     29  N   UNL     1      47.677   6.082  18.862  0.00  0.00    +0.000 NA
ATOM     30  H   UNL     1      47.865   6.895  18.278  0.00  0.00    +0.000 HD
ENDBRANCH  24  25
ENDBRANCH  21  24
ENDBRANCH  17  18
ENDBRANCH   1  17
TORSDOF 6
ENDMDL
MODEL 3
REMARK VINA RESULT:    -6.691      3.379      8.229
REMARK INTER + INTRA:         -10.314
REMARK INTER:                  -8.801
REMARK INTRA:                  -1.513
REMARK UNBOUND:                -1.276
REMARK  Name = 
REMARK  7 active torsions:
REMARK  status: ('A' for Active; 'I' for Inactive)
REMARK    1  A    between atoms: C_1  and  C_2
REMARK    2  A    between atoms: C_2  and  N_3
REMARK    3  A    between atoms: N_3  and  C_4
REMARK    4  A    between atoms: C_4  and  C_5
REMARK    5  A    between atoms: C_8  and  C_9
REMARK    6  A    between atoms: C_9  and  C_10
REMARK    7  A    between atoms: C_17  and  C_19
REMARK                            x       y       z     vdW  Elec       q    Type
REMARK                         _______ _______ _______ _____ _____    ______ ____
ROOT
ATOM      1  N   UNL     1      49.013   7.397  14.101  0.00  0.00    +0.000 N 
ATOM      2  C   UNL     1      49.685   7.011  15.280  0.00  0.00    +0.000 C 
ATOM      3  O   UNL     1      50.910   7.062  15.362  0.00  0.00    +0.000 OA
ENDROOT
BRANCH   2   4
ATOM      4  C   UNL     1      48.911   6.490  16.423  0.00  0.00    +0.000 A 
ATOM      5  C   UNL     1      48.635   5.152  16.657  0.00  0.00    +0.000 A 
ATOM      6  S   UNL     1      47.787   4.865  18.113  0.00  0.00    +0.000 S 
ATOM      7  C   UNL     1      47.915   6.497  18.563  0.00  0.00    +0.000 A 
ATOM      8  N   UNL     1      47.507   6.918  19.784  0.00  0.00    +0.000 NA
ATOM      9  C   UNL     1      47.731   8.172  20.014  0.00  0.00    +0.000 A 
ATOM     10  N   UNL     1      48.272   9.046  19.106  0.00  0.00    +0.000 N 
ATOM     11  C   UNL     1      48.570   8.693  17.807  0.00  0.00    +0.000 A 
ATOM     12  O   UNL     1      48.817   9.542  16.957  0.00  0.00    +0.000 OA
ATOM     13  C   UNL     1      48.473   7.268  17.556  0.00  0.00    +0.000 A 
ATOM     14  H   UNL     1      48.349  10.031  19.319  0.00  0.00    +0.000 HD
ENDBRANCH   2   4
BRANCH   1  16
ATOM     15  C   UNL     1      49.474   9.112  12.362  0.00  0.00    +0.000 C 
ATOM     16  C   UNL     1      49.840   7.753  12.944  0.00  0.00    +0.000 C 
ENDBRANCH   1  16
BRANCH   1  17
ATOM     17  C   UNL     1      47.561   7.353  13.988  0.00  0.00    +0.000 C 
BRANCH  17  18
ATOM     18  C   UNL     1      46.882   6.467  12.990  0.00  0.00    +0.000 A 
ATOM     19  C   UNL     1      46.455   5.187  13.354  0.00  0.00    +0.000 A 
ATOM     20  C   UNL     1      45.584   4.490  12.525  0.00  0.00    +0.000 A 
ATOM     21  C   UNL     1      45.145   5.091  11.350  0.00  0.00    +0.000 A 
ATOM     22  N   UNL     1      45.621   6.293  10.934  0.00  0.00    +0.000 NA
ATOM     23  C   UNL     1      46.476   6.948  11.753  0.00  0.00    +0.000 A 
BRANCH  21  24
ATOM     24  C   UNL     1      44.096   4.432  10.488  0.00  0.00    +0.000 C 
BRANCH  24  25
ATOM     25  C   UNL     1      44.563   3.877   9.126  0.00  0.00    +0.000 C 
ATOM     26  C   UNL     1      45.236   2.512   9.176  0.00  0.00    +0.000 C 
ATOM     27  C   UNL     1      45.917   2.427   7.821  0.00  0.00    +0.000 C 
ATOM     28  C   UNL     1      46.268   3.865   7.477  0.00  0.00    +0.000 C 
ATOM     29  N   UNL     1      45.542   4.720   8.419  0.00  0.00    +0.000 NA
ATOM     30  H   UNL     1      45.076   5.482   7.931  0.00  0.00    +0.000 HD
ENDBRANCH  24  25
ENDBRANCH  21  24
ENDBRANCH  17  18
ENDBRANCH   1  17
TORSDOF 6
ENDMDL
MODEL 4
REMARK VINA RESULT:    -6.606      3.653      8.086
REMARK INTER + INTRA:         -10.200
REMARK INTER:                  -8.813
REMARK INTRA:                  -1.386
REMARK UNBOUND:                -1.276
REMARK  Name = 
REMARK  7 active torsions:
REMARK  status: ('A' for Active; 'I' for Inactive)
REMARK    1  A    between atoms: C_1  and  C_2
REMARK    2  A    between atoms: C_2  and  N_3
REMARK    3  A    between atoms: N_3  and  C_4
REMARK    4  A    between atoms: C_4  and  C_5
REMARK    5  A    between atoms: C_8  and  C_9
REMARK    6  A    between atoms: C_9  and  C_10
REMARK    7  A    between atoms: C_17  and  C_19
REMARK                            x       y       z     vdW  Elec       q    Type
REMARK                         _______ _______ _______ _____ _____    ______ ____
ROOT
ATOM      1  N   UNL     1      49.016   7.891  13.832  0.00  0.00    +0.000 N 
ATOM      2  C   UNL     1      49.791   8.311  14.934  0.00  0.00    +0.000 C 
ATOM      3  O   UNL     1      51.005   8.476  14.835  0.00  0.00    +0.000 OA
ENDROOT
BRANCH   2   4
ATOM      4  C   UNL     1      49.144   8.512  16.245  0.00  0.00    +0.000 A 
ATOM      5  C   UNL     1      48.674   9.724  16.726  0.00  0.00    +0.000 A 
ATOM      6  S   UNL     1      47.899   9.612  18.245  0.00  0.00    +0.000 S 
ATOM      7  C   UNL     1      48.012   7.918  18.228  0.00  0.00    +0.000 A 
ATOM      8  N   UNL     1      47.415   7.170  19.188  0.00  0.00    +0.000 NA
ATOM      9  C   UNL     1      47.525   5.893  19.007  0.00  0.00    +0.000 A 
ATOM     10  N   UNL     1      48.227   5.307  17.985  0.00  0.00    +0.000 N 
ATOM     11  C   UNL     1      48.965   6.028  17.070  0.00  0.00    +0.000 A 
ATOM     12  O   UNL     1      49.772   5.478  16.328  0.00  0.00    +0.000 OA
ATOM     13  C   UNL     1      48.749   7.460  17.149  0.00  0.00    +0.000 A 
ATOM     14  H   UNL     1      48.341   4.304  17.944  0.00  0.00    +0.000 HD
ENDBRANCH   2   4
BRANCH   1  16
ATOM     15  C   UNL     1      49.732   8.694  11.591  0.00  0.00    +0.000 C 
ATOM     16  C   UNL     1      49.734   7.553  12.599  0.00  0.00    +0.000 C 
ENDBRANCH   1  16
BRANCH   1  17
ATOM     17  C   UNL     1      47.575   7.700  13.927  0.00  0.00    +0.000 C 
BRANCH  17  18
ATOM     18  C   UNL     1      46.840   6.813  12.970  0.00  0.00    +0.000 A 
ATOM     19  C   UNL     1      46.593   5.476  13.292  0.00  0.00    +0.000 A 
ATOM     20  C   UNL     1      45.677   4.746  12.544  0.00  0.00    +0.000 A 
ATOM     21  C   UNL     1      45.015   5.370  11.492  0.00  0.00    +0.000 A 
ATOM     22  N   UNL     1      45.312   6.638  11.106  0.00  0.00    +0.000 NA
ATOM     23  C   UNL     1      46.214   7.325  11.843  0.00  0.00    +0.000 A 
BRANCH  21  24
ATOM     24  C   UNL     1      43.915   4.662  10.740  0.00  0.00    +0.000 C 
BRANCH  24  25
ATOM     25  C   UNL     1      44.309   3.980   9.412  0.00  0.00    +0.000 C 
ATOM     26  C   UNL     1      44.964   2.613   9.551  0.00  0.00    +0.000 C 
ATOM     27  C   UNL     1      45.578   2.397   8.178  0.00  0.00    +0.000 C 
ATOM     28  C   UNL     1      45.931   3.794   7.692  0.00  0.00    +0.000 C 
ATOM     29  N   UNL     1      45.264   4.740   8.587  0.00  0.00    +0.000 NA
ATOM     30  H   UNL     1      44.784   5.465   8.056  0.00  0.00    +0.000 HD
ENDBRANCH  24  25
ENDBRANCH  21  24
ENDBRANCH  17  18
ENDBRANCH   1  17
TORSDOF 6
ENDMDL
MODEL 5
REMARK VINA RESULT:    -6.532      1.750      2.585
REMARK INTER + INTRA:         -10.100
REMARK INTER:                  -9.250
REMARK INTRA:                  -0.850
REMARK UNBOUND:                -1.276
REMARK  Name = 
REMARK  7 active torsions:
REMARK  status: ('A' for Active; 'I' for Inactive)
REMARK    1  A    between atoms: C_1  and  C_2
REMARK    2  A    between atoms: C_2  and  N_3
REMARK    3  A    between atoms: N_3  and  C_4
REMARK    4  A    between atoms: C_4  and  C_5
REMARK    5  A    between atoms: C_8  and  C_9
REMARK    6  A    between atoms: C_9  and  C_10
REMARK    7  A    between atoms: C_17  and  C_19
REMARK                            x       y       z     vdW  Elec       q    Type
REMARK                         _______ _______ _______ _____ _____    ______ ____
ROOT
ATOM      1  N   UNL     1      46.408   7.478  12.212  0.00  0.00    +0.000 N 
ATOM      2  C   UNL     1      45.228   7.320  11.454  0.00  0.00    +0.000 C 
ATOM      3  O   UNL     1      44.385   8.212  11.392  0.00  0.00    +0.000 OA
ENDROOT
BRANCH   2   4
ATOM      4  C   UNL     1      44.974   6.043  10.760  0.00  0.00    +0.000 A 
ATOM      5  C   UNL     1      45.481   5.695   9.517  0.00  0.00    +0.000 A 
ATOM      6  S   UNL     1      45.073   4.112   9.022  0.00  0.00    +0.000 S 
ATOM      7  C   UNL     1      44.355   3.778  10.524  0.00  0.00    +0.000 A 
ATOM      8  N   UNL     1      43.913   2.533  10.825  0.00  0.00    +0.000 NA
ATOM      9  C   UNL     1      43.455   2.411  12.030  0.00  0.00    +0.000 A 
ATOM     10  N   UNL     1      43.349   3.439  12.932  0.00  0.00    +0.000 N 
ATOM     11  C   UNL     1      43.655   4.746  12.621  0.00  0.00    +0.000 A 
ATOM     12  O   UNL     1      43.321   5.670  13.356  0.00  0.00    +0.000 OA
ATOM     13  C   UNL     1      44.308   4.900  11.335  0.00  0.00    +0.000 A 
ATOM     14  H   UNL     1      42.910   3.295  13.830  0.00  0.00    +0.000 HD
ENDBRANCH   2   4
BRANCH   1  16
ATOM     15  C   UNL     1      47.243   9.819  12.256  0.00  0.00    +0.000 C 
ATOM     16  C   UNL     1      46.533   8.703  13.009  0.00  0.00    +0.000 C 
ENDBRANCH   1  16
BRANCH   1  17
ATOM     17  C   UNL     1      47.423   6.437  12.290  0.00  0.00    +0.000 C 
BRANCH  17  18
ATOM     18  C   UNL     1      47.648   5.657  13.549  0.00  0.00    +0.000 A 
ATOM     19  C   UNL     1      48.192   6.276  14.677  0.00  0.00    +0.000 A 
ATOM     20  C   UNL     1      48.132   5.636  15.909  0.00  0.00    +0.000 A 
ATOM     21  C   UNL     1      47.517   4.392  15.994  0.00  0.00    +0.000 A 
ATOM     22  N   UNL     1      47.067   3.734  14.893  0.00  0.00    +0.000 NA
ATOM     23  C   UNL     1      47.145   4.373  13.704  0.00  0.00    +0.000 A 
BRANCH  21  24
ATOM     24  C   UNL     1      47.306   3.721  17.329  0.00  0.00    +0.000 C 
BRANCH  24  25
ATOM     25  C   UNL     1      48.518   3.678  18.285  0.00  0.00    +0.000 C 
ATOM     26  C   UNL     1      48.651   4.870  19.221  0.00  0.00    +0.000 C 
ATOM     27  C   UNL     1      50.082   4.746  19.715  0.00  0.00    +0.000 C 
ATOM     28  C   UNL     1      50.834   4.108  18.558  0.00  0.00    +0.000 C 
ATOM     29  N   UNL     1      49.829   3.613  17.616  0.00  0.00    +0.000 NA
ATOM     30  H   UNL     1      50.040   2.659  17.328  0.00  0.00    +0.000 HD
ENDBRANCH  24  25
ENDBRANCH  21  24
ENDBRANCH  17  18
ENDBRANCH   1  17
TORSDOF 6
ENDMDL
MODEL 6
REMARK VINA RESULT:    -6.521      2.990      7.910
REMARK INTER + INTRA:         -10.085
REMARK INTER:                  -9.353
REMARK INTRA:                  -0.732
REMARK UNBOUND:                -1.276
REMARK  Name = 
REMARK  7 active torsions:
REMARK  status: ('A' for Active; 'I' for Inactive)
REMARK    1  A    between atoms: C_1  and  C_2
REMARK    2  A    between atoms: C_2  and  N_3
REMARK    3  A    between atoms: N_3  and  C_4
REMARK    4  A    between atoms: C_4  and  C_5
REMARK    5  A    between atoms: C_8  and  C_9
REMARK    6  A    between atoms: C_9  and  C_10
REMARK    7  A    between atoms: C_17  and  C_19
REMARK                            x       y       z     vdW  Elec       q    Type
REMARK                         _______ _______ _______ _____ _____    ______ ____
ROOT
ATOM      1  N   UNL     1      48.370   7.128  14.983  0.00  0.00    +0.000 N 
ATOM      2  C   UNL     1      48.478   6.858  16.364  0.00  0.00    +0.000 C 
ATOM      3  O   UNL     1      48.619   7.764  17.182  0.00  0.00    +0.000 OA
ENDROOT
BRANCH   2   4
ATOM      4  C   UNL     1      48.470   5.460  16.837  0.00  0.00    +0.000 A 
ATOM      5  C   UNL     1      47.364   4.625  16.839  0.00  0.00    +0.000 A 
ATOM      6  S   UNL     1      47.699   3.036  17.371  0.00  0.00    +0.000 S 
ATOM      7  C   UNL     1      49.364   3.363  17.447  0.00  0.00    +0.000 A 
ATOM      8  N   UNL     1      50.257   2.379  17.711  0.00  0.00    +0.000 NA
ATOM      9  C   UNL     1      51.493   2.761  17.666  0.00  0.00    +0.000 A 
ATOM     10  N   UNL     1      51.903   4.050  17.440  0.00  0.00    +0.000 N 
ATOM     11  C   UNL     1      51.027   5.106  17.308  0.00  0.00    +0.000 A 
ATOM     12  O   UNL     1      51.418   6.268  17.354  0.00  0.00    +0.000 OA
ATOM     13  C   UNL     1      49.639   4.698  17.204  0.00  0.00    +0.000 A 
ATOM     14  H   UNL     1      52.881   4.299  17.496  0.00  0.00    +0.000 HD
ENDBRANCH   2   4
BRANCH   1  16
ATOM     15  C   UNL     1      49.911   8.771  13.932  0.00  0.00    +0.000 C 
ATOM     16  C   UNL     1      48.545   8.520  14.557  0.00  0.00    +0.000 C 
ENDBRANCH   1  16
BRANCH   1  17
ATOM     17  C   UNL     1      48.192   6.068  14.000  0.00  0.00    +0.000 C 
BRANCH  17  18
ATOM     18  C   UNL     1      46.943   5.966  13.179  0.00  0.00    +0.000 A 
ATOM     19  C   UNL     1      46.866   6.582  11.928  0.00  0.00    +0.000 A 
ATOM     20  C   UNL     1      45.832   6.250  11.060  0.00  0.00    +0.000 A 
ATOM     21  C   UNL     1      44.899   5.299  11.455  0.00  0.00    +0.000 A 
ATOM     22  N   UNL     1      44.903   4.760  12.702  0.00  0.00    +0.000 NA
ATOM     23  C   UNL     1      45.914   5.105  13.532  0.00  0.00    +0.000 A 
BRANCH  21  24
ATOM     24  C   UNL     1      43.841   4.807  10.497  0.00  0.00    +0.000 C 
BRANCH  24  25
ATOM     25  C   UNL     1      44.326   3.968   9.296  0.00  0.00    +0.000 C 
ATOM     26  C   UNL     1      45.037   2.670   9.654  0.00  0.00    +0.000 C 
ATOM     27  C   UNL     1      45.722   2.297   8.350  0.00  0.00    +0.000 C 
ATOM     28  C   UNL     1      46.032   3.628   7.685  0.00  0.00    +0.000 C 
ATOM     29  N   UNL     1      45.281   4.654   8.410  0.00  0.00    +0.000 NA
ATOM     30  H   UNL     1      44.793   5.271   7.763  0.00  0.00    +0.000 HD
ENDBRANCH  24  25
ENDBRANCH  21  24
ENDBRANCH  17  18
ENDBRANCH   1  17
TORSDOF 6
ENDMDL
MODEL 7
REMARK VINA RESULT:    -6.342      3.350      8.180
REMARK INTER + INTRA:          -9.843
REMARK INTER:                  -8.330
REMARK INTRA:                  -1.513
REMARK UNBOUND:                -1.276
REMARK  Name = 
REMARK  7 active torsions:
REMARK  status: ('A' for Active; 'I' for Inactive)
REMARK    1  A    between atoms: C_1  and  C_2
REMARK    2  A    between atoms: C_2  and  N_3
REMARK    3  A    between atoms: N_3  and  C_4
REMARK    4  A    between atoms: C_4  and  C_5
REMARK    5  A    between atoms: C_8  and  C_9
REMARK    6  A    between atoms: C_9  and  C_10
REMARK    7  A    between atoms: C_17  and  C_19
REMARK                            x       y       z     vdW  Elec       q    Type
REMARK                         _______ _______ _______ _____ _____    ______ ____
ROOT
ATOM      1  N   UNL     1      48.680   8.069  14.630  0.00  0.00    +0.000 N 
ATOM      2  C   UNL     1      49.453   8.247  15.797  0.00  0.00    +0.000 C 
ATOM      3  O   UNL     1      49.210   9.154  16.590  0.00  0.00    +0.000 OA
ENDROOT
BRANCH   2   4
ATOM      4  C   UNL     1      50.605   7.361  16.051  0.00  0.00    +0.000 A 
ATOM      5  C   UNL     1      51.931   7.692  15.820  0.00  0.00    +0.000 A 
ATOM      6  S   UNL     1      53.038   6.480  16.296  0.00  0.00    +0.000 S 
ATOM      7  C   UNL     1      51.795   5.551  16.986  0.00  0.00    +0.000 A 
ATOM      8  N   UNL     1      52.072   4.429  17.694  0.00  0.00    +0.000 NA
ATOM      9  C   UNL     1      51.033   3.866  18.220  0.00  0.00    +0.000 A 
ATOM     10  N   UNL     1      49.742   4.294  18.047  0.00  0.00    +0.000 N 
ATOM     11  C   UNL     1      49.402   5.345  17.222  0.00  0.00    +0.000 A 
ATOM     12  O   UNL     1      48.237   5.548  16.896  0.00  0.00    +0.000 OA
ATOM     13  C   UNL     1      50.545   6.092  16.734  0.00  0.00    +0.000 A 
ATOM     14  H   UNL     1      48.967   3.764  18.420  0.00  0.00    +0.000 HD
ENDBRANCH   2   4
BRANCH   1  16
ATOM     15  C   UNL     1      48.066  10.041  13.247  0.00  0.00    +0.000 C 
ATOM     16  C   UNL     1      47.650   9.074  14.347  0.00  0.00    +0.000 C 
ENDBRANCH   1  16
BRANCH   1  17
ATOM     17  C   UNL     1      48.946   6.994  13.683  0.00  0.00    +0.000 C 
BRANCH  17  18
ATOM     18  C   UNL     1      47.835   6.307  12.949  0.00  0.00    +0.000 A 
ATOM     19  C   UNL     1      47.004   5.399  13.612  0.00  0.00    +0.000 A 
ATOM     20  C   UNL     1      45.818   4.990  13.015  0.00  0.00    +0.000 A 
ATOM     21  C   UNL     1      45.477   5.505  11.769  0.00  0.00    +0.000 A 
ATOM     22  N   UNL     1      46.316   6.313  11.069  0.00  0.00    +0.000 NA
ATOM     23  C   UNL     1      47.469   6.690  11.667  0.00  0.00    +0.000 A 
BRANCH  21  24
ATOM     24  C   UNL     1      44.139   5.197  11.143  0.00  0.00    +0.000 C 
BRANCH  24  25
ATOM     25  C   UNL     1      44.145   4.271   9.908  0.00  0.00    +0.000 C 
ATOM     26  C   UNL     1      44.702   2.874  10.144  0.00  0.00    +0.000 C 
ATOM     27  C   UNL     1      44.948   2.371   8.732  0.00  0.00    +0.000 C 
ATOM     28  C   UNL     1      45.286   3.619   7.933  0.00  0.00    +0.000 C 
ATOM     29  N   UNL     1      44.932   4.770   8.767  0.00  0.00    +0.000 NA
ATOM     30  H   UNL     1      44.400   5.454   8.233  0.00  0.00    +0.000 HD
ENDBRANCH  24  25
ENDBRANCH  21  24
ENDBRANCH  17  18
ENDBRANCH   1  17
TORSDOF 6
ENDMDL
MODEL 8
REMARK VINA RESULT:    -6.237      1.359      1.949
REMARK INTER + INTRA:          -9.701
REMARK INTER:                  -8.603
REMARK INTRA:                  -1.098
REMARK UNBOUND:                -1.276
REMARK  Name = 
REMARK  7 active torsions:
REMARK  status: ('A' for Active; 'I' for Inactive)
REMARK    1  A    between atoms: C_1  and  C_2
REMARK    2  A    between atoms: C_2  and  N_3
REMARK    3  A    between atoms: N_3  and  C_4
REMARK    4  A    between atoms: C_4  and  C_5
REMARK    5  A    between atoms: C_8  and  C_9
REMARK    6  A    between atoms: C_9  and  C_10
REMARK    7  A    between atoms: C_17  and  C_19
REMARK                            x       y       z     vdW  Elec       q    Type
REMARK                         _______ _______ _______ _____ _____    ______ ____
ROOT
ATOM      1  N   UNL     1      46.066   7.114  11.695  0.00  0.00    +0.000 N 
ATOM      2  C   UNL     1      44.751   6.684  11.417  0.00  0.00    +0.000 C 
ATOM      3  O   UNL     1      43.839   7.490  11.245  0.00  0.00    +0.000 OA
ENDROOT
BRANCH   2   4
ATOM      4  C   UNL     1      44.449   5.240  11.378  0.00  0.00    +0.000 A 
ATOM      5  C   UNL     1      43.728   4.550  12.340  0.00  0.00    +0.000 A 
ATOM      6  S   UNL     1      43.477   2.902  11.965  0.00  0.00    +0.000 S 
ATOM      7  C   UNL     1      44.170   3.099  10.427  0.00  0.00    +0.000 A 
ATOM      8  N   UNL     1      44.153   2.092   9.520  0.00  0.00    +0.000 NA
ATOM      9  C   UNL     1      44.652   2.410   8.369  0.00  0.00    +0.000 A 
ATOM     10  N   UNL     1      45.217   3.624   8.072  0.00  0.00    +0.000 N 
ATOM     11  C   UNL     1      45.382   4.625   9.004  0.00  0.00    +0.000 A 
ATOM     12  O   UNL     1      46.102   5.593   8.780  0.00  0.00    +0.000 OA
ATOM     13  C   UNL     1      44.705   4.365  10.260  0.00  0.00    +0.000 A 
ATOM     14  H   UNL     1      45.660   3.783   7.178  0.00  0.00    +0.000 HD
ENDBRANCH   2   4
BRANCH   1  16
ATOM     15  C   UNL     1      45.966   9.010  13.299  0.00  0.00    +0.000 C 
ATOM     16  C   UNL     1      46.275   8.554  11.880  0.00  0.00    +0.000 C 
ENDBRANCH   1  16
BRANCH   1  17
ATOM     17  C   UNL     1      47.162   6.175  11.891  0.00  0.00    +0.000 C 
BRANCH  17  18
ATOM     18  C   UNL     1      48.074   6.276  13.075  0.00  0.00    +0.000 A 
ATOM     19  C   UNL     1      49.187   7.121  13.040  0.00  0.00    +0.000 A 
ATOM     20  C   UNL     1      49.856   7.426  14.219  0.00  0.00    +0.000 A 
ATOM     21  C   UNL     1      49.393   6.891  15.416  0.00  0.00    +0.000 A 
ATOM     22  N   UNL     1      48.372   5.995  15.457  0.00  0.00    +0.000 NA
ATOM     23  C   UNL     1      47.743   5.705  14.295  0.00  0.00    +0.000 A 
BRANCH  21  24
ATOM     24  C   UNL     1      50.000   7.301  16.735  0.00  0.00    +0.000 C 
BRANCH  24  25
ATOM     25  C   UNL     1      50.915   6.270  17.430  0.00  0.00    +0.000 C 
ATOM     26  C   UNL     1      52.345   6.215  16.910  0.00  0.00    +0.000 C 
ATOM     27  C   UNL     1      52.852   4.897  17.471  0.00  0.00    +0.000 C 
ATOM     28  C   UNL     1      51.620   4.008  17.534  0.00  0.00    +0.000 C 
ATOM     29  N   UNL     1      50.457   4.874  17.333  0.00  0.00    +0.000 NA
ATOM     30  H   UNL     1      49.737   4.682  18.028  0.00  0.00    +0.000 HD
ENDBRANCH  24  25
ENDBRANCH  21  24
ENDBRANCH  17  18
ENDBRANCH   1  17
TORSDOF 6
ENDMDL
MODEL 9
REMARK VINA RESULT:    -5.890      3.548      7.792
REMARK INTER + INTRA:          -9.232
REMARK INTER:                  -7.754
REMARK INTRA:                  -1.478
REMARK UNBOUND:                -1.276
REMARK  Name = 
REMARK  7 active torsions:
REMARK  status: ('A' for Active; 'I' for Inactive)
REMARK    1  A    between atoms: C_1  and  C_2
REMARK    2  A    between atoms: C_2  and  N_3
REMARK    3  A    between atoms: N_3  and  C_4
REMARK    4  A    between atoms: C_4  and  C_5
REMARK    5  A    between atoms: C_8  and  C_9
REMARK    6  A    between atoms: C_9  and  C_10
REMARK    7  A    between atoms: C_17  and  C_19
REMARK                            x       y       z     vdW  Elec       q    Type
REMARK                         _______ _______ _______ _____ _____    ______ ____
ROOT
ATOM      1  N   UNL     1      48.599   8.129  17.235  0.00  0.00    +0.000 N 
ATOM      2  C   UNL     1      48.742   7.078  18.166  0.00  0.00    +0.000 C 
ATOM      3  O   UNL     1      48.104   7.067  19.217  0.00  0.00    +0.000 OA
ENDROOT
BRANCH   2   4
ATOM      4  C   UNL     1      49.709   5.995  17.902  0.00  0.00    +0.000 A 
ATOM      5  C   UNL     1      51.030   5.986  18.320  0.00  0.00    +0.000 A 
ATOM      6  S   UNL     1      51.869   4.550  17.928  0.00  0.00    +0.000 S 
ATOM      7  C   UNL     1      50.448   3.825  17.345  0.00  0.00    +0.000 A 
ATOM      8  N   UNL     1      50.432   2.522  16.973  0.00  0.00    +0.000 NA
ATOM      9  C   UNL     1      49.265   2.089  16.619  0.00  0.00    +0.000 A 
ATOM     10  N   UNL     1      48.134   2.861  16.549  0.00  0.00    +0.000 N 
ATOM     11  C   UNL     1      48.135   4.219  16.783  0.00  0.00    +0.000 A 
ATOM     12  O   UNL     1      47.175   4.919  16.477  0.00  0.00    +0.000 OA
ATOM     13  C   UNL     1      49.386   4.714  17.325  0.00  0.00    +0.000 A 
ATOM     14  H   UNL     1      47.270   2.481  16.189  0.00  0.00    +0.000 HD
ENDBRANCH   2   4
BRANCH   1  16
ATOM     15  C   UNL     1      48.522  10.562  17.734  0.00  0.00    +0.000 C 
ATOM     16  C   UNL     1      47.746   9.257  17.622  0.00  0.00    +0.000 C 
ENDBRANCH   1  16
BRANCH   1  17
ATOM     17  C   UNL     1      49.339   8.155  15.980  0.00  0.00    +0.000 C 
BRANCH  17  18
ATOM     18  C   UNL     1      48.667   7.873  14.672  0.00  0.00    +0.000 A 
ATOM     19  C   UNL     1      48.936   6.690  13.978  0.00  0.00    +0.000 A 
ATOM     20  C   UNL     1      48.110   6.305  12.929  0.00  0.00    +0.000 A 
ATOM     21  C   UNL     1      47.022   7.105  12.597  0.00  0.00    +0.000 A 
ATOM     22  N   UNL     1      46.801   8.304  13.197  0.00  0.00    +0.000 NA
ATOM     23  C   UNL     1      47.623   8.662  14.209  0.00  0.00    +0.000 A 
BRANCH  21  24
ATOM     24  C   UNL     1      46.022   6.661  11.558  0.00  0.00    +0.000 C 
BRANCH  24  25
ATOM     25  C   UNL     1      44.804   5.859  12.064  0.00  0.00    +0.000 C 
ATOM     26  C   UNL     1      44.636   4.476  11.451  0.00  0.00    +0.000 C 
ATOM     27  C   UNL     1      43.204   4.122  11.816  0.00  0.00    +0.000 C 
ATOM     28  C   UNL     1      42.476   5.456  11.850  0.00  0.00    +0.000 C 
ATOM     29  N   UNL     1      43.500   6.503  11.829  0.00  0.00    +0.000 NA
ATOM     30  H   UNL     1      43.313   7.207  12.540  0.00  0.00    +0.000 HD
ENDBRANCH  24  25
ENDBRANCH  21  24
ENDBRANCH  17  18
ENDBRANCH   1  17
TORSDOF 6
ENDMDL
