MODEL 1
REMARK VINA RESULT:    -8.066      0.000      0.000
REMARK INTER + INTRA:         -11.048
REMARK INTER:                 -10.423
REMARK INTRA:                  -0.624
REMARK UNBOUND:                -0.624
REMARK  Name = 
REMARK  5 active torsions:
REMARK  status: ('A' for Active; 'I' for Inactive)
REMARK    1  A    between atoms: C_2  and  C_5
REMARK    2  A    between atoms: C_9  and  C_10
REMARK    3  A    between atoms: C_10  and  C_11
REMARK    4  A    between atoms: C_11  and  C_12
REMARK    5  A    between atoms: C_16  and  C_17
REMARK                            x       y       z     vdW  Elec       q    Type
REMARK                         _______ _______ _______ _____ _____    ______ ____
ROOT
ATOM      1  C   UNL     1      44.612   4.283  12.283  0.00  0.00    +0.000 A 
ATOM      2  C   UNL     1      43.542   3.462  12.619  0.00  0.00    +0.000 A 
ATOM      3  N   UNL     1      43.073   2.498  11.798  0.00  0.00    +0.000 NA
ATOM      4  C   UNL     1      43.730   2.373  10.617  0.00  0.00    +0.000 A 
ATOM      5  C   UNL     1      44.820   3.162  10.256  0.00  0.00    +0.000 A 
ATOM      6  N   UNL     1      45.270   4.136  11.102  0.00  0.00    +0.000 NA
ENDROOT
BRANCH   5   7
ATOM      7  C   UNL     1      45.541   2.978   8.981  0.00  0.00    +0.000 A 
ATOM      8  C   UNL     1      45.774   4.033   8.093  0.00  0.00    +0.000 A 
ATOM      9  C   UNL     1      46.497   3.806   6.920  0.00  0.00    +0.000 A 
ATOM     10  C   UNL     1      46.970   2.530   6.654  0.00  0.00    +0.000 A 
ATOM     11 CL   UNL     1      47.880   2.207   5.236  0.00  0.00    +0.000 Cl
ATOM     12  C   UNL     1      46.692   1.527   7.566  0.00  0.00    +0.000 A 
ATOM     13  N   UNL     1      45.994   1.721   8.713  0.00  0.00    +0.000 NA
ENDBRANCH   5   7
BRANCH   1  14
ATOM     14  C   UNL     1      45.095   5.354  13.225  0.00  0.00    +0.000 C 
BRANCH  14  15
ATOM     15  C   UNL     1      46.588   5.628  13.033  0.00  0.00    +0.000 C 
BRANCH  15  20
ATOM     16  C   UNL     1      48.026   4.379  16.325  0.00  0.00    +0.000 A 
ATOM     17  C   UNL     1      48.847   5.465  16.638  0.00  0.00    +0.000 A 
ATOM     18  C   UNL     1      48.875   6.541  15.770  0.00  0.00    +0.000 A 
ATOM     19  N   UNL     1      48.149   6.607  14.633  0.00  0.00    +0.000 NA
ATOM     20  C   UNL     1      47.351   5.556  14.332  0.00  0.00    +0.000 A 
ATOM     21  C   UNL     1      47.268   4.431  15.147  0.00  0.00    +0.000 A 
BRANCH  16  23
ATOM     22  F   UNL     1      48.528   3.360  18.439  0.00  0.00    +0.000 F 
ATOM     23  C   UNL     1      47.950   3.171  17.220  0.00  0.00    +0.000 C 
ATOM     24  F   UNL     1      48.566   2.083  16.680  0.00  0.00    +0.000 F 
ATOM     25  F   UNL     1      46.668   2.789  17.470  0.00  0.00    +0.000 F 
ENDBRANCH  16  23
ENDBRANCH  15  20
ENDBRANCH  14  15
ENDBRANCH   1  14
TORSDOF 5
ENDMDL
MODEL 2
REMARK VINA RESULT:    -7.690      4.562      7.513
REMARK INTER + INTRA:         -10.562
REMARK INTER:                  -9.837
REMARK INTRA:                  -0.725
REMARK UNBOUND:                -0.624
REMARK  Name = 
REMARK  5 active torsions:
REMARK  status: ('A' for Active; 'I' for Inactive)
REMARK    1  A    between atoms: C_2  and  C_5
REMARK    2  A    between atoms: C_9  and  C_10
REMARK    3  A    between atoms: C_10  and  C_11
REMARK    4  A    between atoms: C_11  and  C_12
REMARK    5  A    between atoms: C_16  and  C_17
REMARK                            x       y       z     vdW  Elec       q    Type
REMARK                         _______ _______ _______ _____ _____    ______ ____
ROOT
ATOM      1  C   UNL     1      45.112   5.006  12.064  0.00  0.00    +0.000 A 
ATOM      2  C   UNL     1      45.052   4.083  13.102  0.00  0.00    +0.000 A 
ATOM      3  N   UNL     1      46.013   3.977  14.045  0.00  0.00    +0.000 NA
ATOM      4  C   UNL     1      47.046   4.849  13.918  0.00  0.00    +0.000 A 
ATOM      5  C   UNL     1      47.128   5.803  12.905  0.00  0.00    +0.000 A 
ATOM      6  N   UNL     1      46.146   5.883  11.960  0.00  0.00    +0.000 NA
ENDROOT
BRANCH   5   7
ATOM      7  C   UNL     1      48.244   6.765  12.815  0.00  0.00    +0.000 A 
ATOM      8  C   UNL     1      48.406   7.624  11.724  0.00  0.00    +0.000 A 
ATOM      9  C   UNL     1      49.459   8.542  11.713  0.00  0.00    +0.000 A 
ATOM     10  C   UNL     1      50.332   8.582  12.790  0.00  0.00    +0.000 A 
ATOM     11 CL   UNL     1      51.627   9.705  12.831  0.00  0.00    +0.000 Cl
ATOM     12  C   UNL     1      50.124   7.694  13.831  0.00  0.00    +0.000 A 
ATOM     13  N   UNL     1      49.109   6.795  13.868  0.00  0.00    +0.000 NA
ENDBRANCH   5   7
BRANCH   1  14
ATOM     14  C   UNL     1      44.022   5.081  11.028  0.00  0.00    +0.000 C 
BRANCH  14  15
ATOM     15  C   UNL     1      43.893   3.762  10.264  0.00  0.00    +0.000 C 
BRANCH  15  20
ATOM     16  C   UNL     1      46.367   2.232   7.816  0.00  0.00    +0.000 A 
ATOM     17  C   UNL     1      46.854   3.401   7.227  0.00  0.00    +0.000 A 
ATOM     18  C   UNL     1      46.360   4.615   7.669  0.00  0.00    +0.000 A 
ATOM     19  N   UNL     1      45.433   4.738   8.642  0.00  0.00    +0.000 NA
ATOM     20  C   UNL     1      44.964   3.605   9.214  0.00  0.00    +0.000 A 
ATOM     21  C   UNL     1      45.402   2.342   8.826  0.00  0.00    +0.000 A 
BRANCH  16  23
ATOM     22  F   UNL     1      48.182   0.675   7.610  0.00  0.00    +0.000 F 
ATOM     23  C   UNL     1      46.854   0.875   7.381  0.00  0.00    +0.000 C 
ATOM     24  F   UNL     1      46.668   0.657   6.049  0.00  0.00    +0.000 F 
ATOM     25  F   UNL     1      46.208  -0.138   8.019  0.00  0.00    +0.000 F 
ENDBRANCH  16  23
ENDBRANCH  15  20
ENDBRANCH  14  15
ENDBRANCH   1  14
TORSDOF 5
ENDMDL
MODEL 3
REMARK VINA RESULT:    -7.675      4.765      7.564
REMARK INTER + INTRA:         -10.543
REMARK INTER:                  -9.678
REMARK INTRA:                  -0.864
REMARK UNBOUND:                -0.624
REMARK  Name = 
REMARK  5 active torsions:
REMARK  status: ('A' for Active; 'I' for Inactive)
REMARK    1  A    between atoms: C_2  and  C_5
REMARK    2  A    between atoms: C_9  and  C_10
REMARK    3  A    between atoms: C_10  and  C_11
REMARK    4  A    between atoms: C_11  and  C_12
REMARK    5  A    between atoms: C_16  and  C_17
REMARK                            x       y       z     vdW  Elec       q    Type
REMARK                         _______ _______ _______ _____ _____    ______ ____
ROOT
ATOM      1  C   UNL     1      45.072   5.434  12.690  0.00  0.00    +0.000 A 
ATOM      2  C   UNL     1      45.629   4.514  13.570  0.00  0.00    +0.000 A 
ATOM      3  N   UNL     1      46.895   4.612  14.028  0.00  0.00    +0.000 NA
ATOM      4  C   UNL     1      47.591   5.688  13.578  0.00  0.00    +0.000 A 
ATOM      5  C   UNL     1      47.058   6.643  12.715  0.00  0.00    +0.000 A 
ATOM      6  N   UNL     1      45.776   6.515  12.260  0.00  0.00    +0.000 NA
ENDROOT
BRANCH   5   7
ATOM      7  C   UNL     1      47.825   7.825  12.273  0.00  0.00    +0.000 A 
ATOM      8  C   UNL     1      49.179   7.752  11.929  0.00  0.00    +0.000 A 
ATOM      9  C   UNL     1      49.843   8.896  11.480  0.00  0.00    +0.000 A 
ATOM     10  C   UNL     1      49.144  10.090  11.387  0.00  0.00    +0.000 A 
ATOM     11 CL   UNL     1      49.911  11.516  10.821  0.00  0.00    +0.000 Cl
ATOM     12  C   UNL     1      47.811  10.097  11.757  0.00  0.00    +0.000 A 
ATOM     13  N   UNL     1      47.142   9.001  12.194  0.00  0.00    +0.000 NA
ENDBRANCH   5   7
BRANCH   1  14
ATOM     14  C   UNL     1      43.658   5.278  12.196  0.00  0.00    +0.000 C 
BRANCH  14  15
ATOM     15  C   UNL     1      43.585   5.408  10.673  0.00  0.00    +0.000 C 
BRANCH  15  20
ATOM     16  C   UNL     1      45.653   3.214   8.357  0.00  0.00    +0.000 A 
ATOM     17  C   UNL     1      45.236   1.958   8.804  0.00  0.00    +0.000 A 
ATOM     18  C   UNL     1      44.300   1.899   9.819  0.00  0.00    +0.000 A 
ATOM     19  N   UNL     1      43.760   2.989  10.406  0.00  0.00    +0.000 NA
ATOM     20  C   UNL     1      44.162   4.205   9.971  0.00  0.00    +0.000 A 
ATOM     21  C   UNL     1      45.105   4.355   8.957  0.00  0.00    +0.000 A 
BRANCH  16  23
ATOM     22  F   UNL     1      47.339   4.543   7.283  0.00  0.00    +0.000 F 
ATOM     23  C   UNL     1      46.674   3.354   7.259  0.00  0.00    +0.000 C 
ATOM     24  F   UNL     1      46.121   3.260   6.018  0.00  0.00    +0.000 F 
ATOM     25  F   UNL     1      47.633   2.390   7.315  0.00  0.00    +0.000 F 
ENDBRANCH  16  23
ENDBRANCH  15  20
ENDBRANCH  14  15
ENDBRANCH   1  14
TORSDOF 5
ENDMDL
MODEL 4
REMARK VINA RESULT:    -7.657      1.967      2.461
REMARK INTER + INTRA:         -10.519
REMARK INTER:                  -9.991
REMARK INTRA:                  -0.528
REMARK UNBOUND:                -0.624
REMARK  Name = 
REMARK  5 active torsions:
REMARK  status: ('A' for Active; 'I' for Inactive)
REMARK    1  A    between atoms: C_2  and  C_5
REMARK    2  A    between atoms: C_9  and  C_10
REMARK    3  A    between atoms: C_10  and  C_11
REMARK    4  A    between atoms: C_11  and  C_12
REMARK    5  A    between atoms: C_16  and  C_17
REMARK                            x       y       z     vdW  Elec       q    Type
REMARK                         _______ _______ _______ _____ _____    ______ ____
ROOT
ATOM      1  C   UNL     1      44.881   4.862  12.746  0.00  0.00    +0.000 A 
ATOM      2  C   UNL     1      43.544   5.243  12.720  0.00  0.00    +0.000 A 
ATOM      3  N   UNL     1      42.788   5.184  11.603  0.00  0.00    +0.000 NA
ATOM      4  C   UNL     1      43.422   4.709  10.500  0.00  0.00    +0.000 A 
ATOM      5  C   UNL     1      44.753   4.296  10.495  0.00  0.00    +0.000 A 
ATOM      6  N   UNL     1      45.498   4.374  11.637  0.00  0.00    +0.000 NA
ENDROOT
BRANCH   5   7
ATOM      7  C   UNL     1      45.404   3.747   9.289  0.00  0.00    +0.000 A 
ATOM      8  C   UNL     1      45.520   2.372   9.061  0.00  0.00    +0.000 A 
ATOM      9  C   UNL     1      46.110   1.911   7.882  0.00  0.00    +0.000 A 
ATOM     10  C   UNL     1      46.579   2.832   6.957  0.00  0.00    +0.000 A 
ATOM     11 CL   UNL     1      47.294   2.314   5.486  0.00  0.00    +0.000 Cl
ATOM     12  C   UNL     1      46.448   4.177   7.250  0.00  0.00    +0.000 A 
ATOM     13  N   UNL     1      45.876   4.651   8.386  0.00  0.00    +0.000 NA
ENDBRANCH   5   7
BRANCH   1  14
ATOM     14  C   UNL     1      45.690   4.955  14.013  0.00  0.00    +0.000 C 
BRANCH  14  15
ATOM     15  C   UNL     1      46.917   4.043  13.955  0.00  0.00    +0.000 C 
BRANCH  15  20
ATOM     16  C   UNL     1      47.840   4.448  17.622  0.00  0.00    +0.000 A 
ATOM     17  C   UNL     1      48.582   3.278  17.798  0.00  0.00    +0.000 A 
ATOM     18  C   UNL     1      48.748   2.435  16.715  0.00  0.00    +0.000 A 
ATOM     19  N   UNL     1      48.237   2.679  15.489  0.00  0.00    +0.000 NA
ATOM     20  C   UNL     1      47.521   3.814  15.318  0.00  0.00    +0.000 A 
ATOM     21  C   UNL     1      47.300   4.715  16.356  0.00  0.00    +0.000 A 
BRANCH  16  23
ATOM     22  F   UNL     1      46.296   5.657  19.005  0.00  0.00    +0.000 F 
ATOM     23  C   UNL     1      47.612   5.409  18.758  0.00  0.00    +0.000 C 
ATOM     24  F   UNL     1      48.186   6.624  18.536  0.00  0.00    +0.000 F 
ATOM     25  F   UNL     1      48.133   4.959  19.932  0.00  0.00    +0.000 F 
ENDBRANCH  16  23
ENDBRANCH  15  20
ENDBRANCH  14  15
ENDBRANCH   1  14
TORSDOF 5
ENDMDL
MODEL 5
REMARK VINA RESULT:    -7.624      4.714      8.238
REMARK INTER + INTRA:         -10.477
REMARK INTER:                  -9.891
REMARK INTRA:                  -0.587
REMARK UNBOUND:                -0.624
REMARK  Name = 
REMARK  5 active torsions:
REMARK  status: ('A' for Active; 'I' for Inactive)
REMARK    1  A    between atoms: C_2  and  C_5
REMARK    2  A    between atoms: C_9  and  C_10
REMARK    3  A    between atoms: C_10  and  C_11
REMARK    4  A    between atoms: C_11  and  C_12
REMARK    5  A    between atoms: C_16  and  C_17
REMARK                            x       y       z     vdW  Elec       q    Type
REMARK                         _______ _______ _______ _____ _____    ______ ____
ROOT
ATOM      1  C   UNL     1      45.429   5.865  12.437  0.00  0.00    +0.000 A 
ATOM      2  C   UNL     1      46.154   6.605  11.511  0.00  0.00    +0.000 A 
ATOM      3  N   UNL     1      47.422   7.015  11.733  0.00  0.00    +0.000 NA
ATOM      4  C   UNL     1      47.950   6.640  12.926  0.00  0.00    +0.000 A 
ATOM      5  C   UNL     1      47.261   5.879  13.868  0.00  0.00    +0.000 A 
ATOM      6  N   UNL     1      45.977   5.484  13.622  0.00  0.00    +0.000 NA
ENDROOT
BRANCH   5   7
ATOM      7  C   UNL     1      47.876   5.452  15.141  0.00  0.00    +0.000 A 
ATOM      8  C   UNL     1      47.426   4.335  15.853  0.00  0.00    +0.000 A 
ATOM      9  C   UNL     1      48.072   3.956  17.031  0.00  0.00    +0.000 A 
ATOM     10  C   UNL     1      49.153   4.702  17.479  0.00  0.00    +0.000 A 
ATOM     11 CL   UNL     1      49.991   4.264  18.909  0.00  0.00    +0.000 Cl
ATOM     12  C   UNL     1      49.538   5.805  16.736  0.00  0.00    +0.000 A 
ATOM     13  N   UNL     1      48.929   6.193  15.588  0.00  0.00    +0.000 NA
ENDBRANCH   5   7
BRANCH   1  14
ATOM     14  C   UNL     1      44.013   5.438  12.152  0.00  0.00    +0.000 C 
BRANCH  14  15
ATOM     15  C   UNL     1      43.724   5.449  10.649  0.00  0.00    +0.000 C 
BRANCH  15  20
ATOM     16  C   UNL     1      45.642   3.122   8.333  0.00  0.00    +0.000 A 
ATOM     17  C   UNL     1      45.193   1.894   8.825  0.00  0.00    +0.000 A 
ATOM     18  C   UNL     1      44.287   1.895   9.869  0.00  0.00    +0.000 A 
ATOM     19  N   UNL     1      43.804   3.018  10.442  0.00  0.00    +0.000 NA
ATOM     20  C   UNL     1      44.236   4.208   9.963  0.00  0.00    +0.000 A 
ATOM     21  C   UNL     1      45.152   4.298   8.918  0.00  0.00    +0.000 A 
BRANCH  16  23
ATOM     22  F   UNL     1      47.311   4.378   7.151  0.00  0.00    +0.000 F 
ATOM     23  C   UNL     1      46.633   3.197   7.203  0.00  0.00    +0.000 C 
ATOM     24  F   UNL     1      46.046   3.050   5.983  0.00  0.00    +0.000 F 
ATOM     25  F   UNL     1      47.583   2.225   7.279  0.00  0.00    +0.000 F 
ENDBRANCH  16  23
ENDBRANCH  15  20
ENDBRANCH  14  15
ENDBRANCH   1  14
TORSDOF 5
ENDMDL
MODEL 6
REMARK VINA RESULT:    -7.560      4.778      7.831
REMARK INTER + INTRA:         -10.395
REMARK INTER:                  -9.729
REMARK INTRA:                  -0.665
REMARK UNBOUND:                -0.624
REMARK  Name = 
REMARK  5 active torsions:
REMARK  status: ('A' for Active; 'I' for Inactive)
REMARK    1  A    between atoms: C_2  and  C_5
REMARK    2  A    between atoms: C_9  and  C_10
REMARK    3  A    between atoms: C_10  and  C_11
REMARK    4  A    between atoms: C_11  and  C_12
REMARK    5  A    between atoms: C_16  and  C_17
REMARK                            x       y       z     vdW  Elec       q    Type
REMARK                         _______ _______ _______ _____ _____    ______ ____
ROOT
ATOM      1  C   UNL     1      45.481   5.419  12.322  0.00  0.00    +0.000 A 
ATOM      2  C   UNL     1      45.295   4.507  13.354  0.00  0.00    +0.000 A 
ATOM      3  N   UNL     1      46.225   4.276  14.305  0.00  0.00    +0.000 NA
ATOM      4  C   UNL     1      47.360   5.012  14.194  0.00  0.00    +0.000 A 
ATOM      5  C   UNL     1      47.572   5.953  13.188  0.00  0.00    +0.000 A 
ATOM      6  N   UNL     1      46.618   6.161  12.233  0.00  0.00    +0.000 NA
ENDROOT
BRANCH   5   7
ATOM      7  C   UNL     1      48.801   6.768  13.115  0.00  0.00    +0.000 A 
ATOM      8  C   UNL     1      49.355   7.181  11.899  0.00  0.00    +0.000 A 
ATOM      9  C   UNL     1      50.497   7.985  11.894  0.00  0.00    +0.000 A 
ATOM     10  C   UNL     1      51.067   8.357  13.103  0.00  0.00    +0.000 A 
ATOM     11 CL   UNL     1      52.458   9.359  13.147  0.00  0.00    +0.000 Cl
ATOM     12  C   UNL     1      50.479   7.901  14.270  0.00  0.00    +0.000 A 
ATOM     13  N   UNL     1      49.369   7.122  14.303  0.00  0.00    +0.000 NA
ENDBRANCH   5   7
BRANCH   1  14
ATOM     14  C   UNL     1      44.420   5.636  11.276  0.00  0.00    +0.000 C 
BRANCH  14  15
ATOM     15  C   UNL     1      45.021   5.630   9.869  0.00  0.00    +0.000 C 
BRANCH  15  20
ATOM     16  C   UNL     1      46.122   2.650   7.779  0.00  0.00    +0.000 A 
ATOM     17  C   UNL     1      45.372   1.649   8.401  0.00  0.00    +0.000 A 
ATOM     18  C   UNL     1      44.546   2.003   9.452  0.00  0.00    +0.000 A 
ATOM     19  N   UNL     1      44.417   3.266   9.912  0.00  0.00    +0.000 NA
ATOM     20  C   UNL     1      45.141   4.236   9.307  0.00  0.00    +0.000 A 
ATOM     21  C   UNL     1      46.002   3.966   8.247  0.00  0.00    +0.000 A 
BRANCH  16  23
ATOM     22  F   UNL     1      47.162   1.005   6.375  0.00  0.00    +0.000 F 
ATOM     23  C   UNL     1      47.048   2.337   6.634  0.00  0.00    +0.000 C 
ATOM     24  F   UNL     1      48.316   2.785   6.851  0.00  0.00    +0.000 F 
ATOM     25  F   UNL     1      46.644   2.911   5.467  0.00  0.00    +0.000 F 
ENDBRANCH  16  23
ENDBRANCH  15  20
ENDBRANCH  14  15
ENDBRANCH   1  14
TORSDOF 5
ENDMDL
MODEL 7
REMARK VINA RESULT:    -7.557      3.535      4.189
REMARK INTER + INTRA:         -10.391
REMARK INTER:                  -9.696
REMARK INTRA:                  -0.694
REMARK UNBOUND:                -0.624
REMARK  Name = 
REMARK  5 active torsions:
REMARK  status: ('A' for Active; 'I' for Inactive)
REMARK    1  A    between atoms: C_2  and  C_5
REMARK    2  A    between atoms: C_9  and  C_10
REMARK    3  A    between atoms: C_10  and  C_11
REMARK    4  A    between atoms: C_11  and  C_12
REMARK    5  A    between atoms: C_16  and  C_17
REMARK                            x       y       z     vdW  Elec       q    Type
REMARK                         _______ _______ _______ _____ _____    ______ ____
ROOT
ATOM      1  C   UNL     1      44.363   4.587  12.065  0.00  0.00    +0.000 A 
ATOM      2  C   UNL     1      43.410   3.671  12.495  0.00  0.00    +0.000 A 
ATOM      3  N   UNL     1      43.090   2.563  11.793  0.00  0.00    +0.000 NA
ATOM      4  C   UNL     1      43.779   2.393  10.635  0.00  0.00    +0.000 A 
ATOM      5  C   UNL     1      44.758   3.277  10.186  0.00  0.00    +0.000 A 
ATOM      6  N   UNL     1      45.056   4.395  10.911  0.00  0.00    +0.000 NA
ENDROOT
BRANCH   5   7
ATOM      7  C   UNL     1      45.520   3.046   8.942  0.00  0.00    +0.000 A 
ATOM      8  C   UNL     1      45.803   4.073   8.036  0.00  0.00    +0.000 A 
ATOM      9  C   UNL     1      46.563   3.802   6.895  0.00  0.00    +0.000 A 
ATOM     10  C   UNL     1      47.020   2.510   6.679  0.00  0.00    +0.000 A 
ATOM     11 CL   UNL     1      47.973   2.134   5.304  0.00  0.00    +0.000 Cl
ATOM     12  C   UNL     1      46.691   1.538   7.606  0.00  0.00    +0.000 A 
ATOM     13  N   UNL     1      45.958   1.774   8.723  0.00  0.00    +0.000 NA
ENDBRANCH   5   7
BRANCH   1  14
ATOM     14  C   UNL     1      44.679   5.816  12.876  0.00  0.00    +0.000 C 
BRANCH  14  15
ATOM     15  C   UNL     1      46.163   5.868  13.247  0.00  0.00    +0.000 C 
BRANCH  15  20
ATOM     16  C   UNL     1      48.702   8.408  11.997  0.00  0.00    +0.000 A 
ATOM     17  C   UNL     1      47.891   9.545  11.976  0.00  0.00    +0.000 A 
ATOM     18  C   UNL     1      46.575   9.423  12.381  0.00  0.00    +0.000 A 
ATOM     19  N   UNL     1      46.024   8.264  12.800  0.00  0.00    +0.000 NA
ATOM     20  C   UNL     1      46.810   7.162  12.823  0.00  0.00    +0.000 A 
ATOM     21  C   UNL     1      48.144   7.196  12.427  0.00  0.00    +0.000 A 
BRANCH  16  23
ATOM     22  F   UNL     1      50.460   9.600  10.880  0.00  0.00    +0.000 F 
ATOM     23  C   UNL     1      50.142   8.466  11.564  0.00  0.00    +0.000 C 
ATOM     24  F   UNL     1      50.483   7.430  10.747  0.00  0.00    +0.000 F 
ATOM     25  F   UNL     1      51.004   8.410  12.616  0.00  0.00    +0.000 F 
ENDBRANCH  16  23
ENDBRANCH  15  20
ENDBRANCH  14  15
ENDBRANCH   1  14
TORSDOF 5
ENDMDL
MODEL 8
REMARK VINA RESULT:    -7.201      2.036      2.569
REMARK INTER + INTRA:          -9.930
REMARK INTER:                  -9.217
REMARK INTRA:                  -0.713
REMARK UNBOUND:                -0.624
REMARK  Name = 
REMARK  5 active torsions:
REMARK  status: ('A' for Active; 'I' for Inactive)
REMARK    1  A    between atoms: C_2  and  C_5
REMARK    2  A    between atoms: C_9  and  C_10
REMARK    3  A    between atoms: C_10  and  C_11
REMARK    4  A    between atoms: C_11  and  C_12
REMARK    5  A    between atoms: C_16  and  C_17
REMARK                            x       y       z     vdW  Elec       q    Type
REMARK                         _______ _______ _______ _____ _____    ______ ____
ROOT
ATOM      1  C   UNL     1      44.511   5.161  11.828  0.00  0.00    +0.000 A 
ATOM      2  C   UNL     1      43.492   4.353  12.319  0.00  0.00    +0.000 A 
ATOM      3  N   UNL     1      43.112   3.206  11.716  0.00  0.00    +0.000 NA
ATOM      4  C   UNL     1      43.807   2.884  10.595  0.00  0.00    +0.000 A 
ATOM      5  C   UNL     1      44.848   3.658  10.087  0.00  0.00    +0.000 A 
ATOM      6  N   UNL     1      45.207   4.818  10.711  0.00  0.00    +0.000 NA
ENDROOT
BRANCH   5   7
ATOM      7  C   UNL     1      45.613   3.262   8.887  0.00  0.00    +0.000 A 
ATOM      8  C   UNL     1      45.930   1.929   8.607  0.00  0.00    +0.000 A 
ATOM      9  C   UNL     1      46.620   1.611   7.435  0.00  0.00    +0.000 A 
ATOM     10  C   UNL     1      46.984   2.631   6.568  0.00  0.00    +0.000 A 
ATOM     11 CL   UNL     1      47.815   2.288   5.107  0.00  0.00    +0.000 Cl
ATOM     12  C   UNL     1      46.653   3.930   6.911  0.00  0.00    +0.000 A 
ATOM     13  N   UNL     1      45.982   4.265   8.041  0.00  0.00    +0.000 NA
ENDBRANCH   5   7
BRANCH   1  14
ATOM     14  C   UNL     1      44.894   6.438  12.528  0.00  0.00    +0.000 C 
BRANCH  14  15
ATOM     15  C   UNL     1      45.910   7.235  11.707  0.00  0.00    +0.000 C 
BRANCH  15  20
ATOM     16  C   UNL     1      48.652   7.003  14.332  0.00  0.00    +0.000 A 
ATOM     17  C   UNL     1      49.691   7.616  13.627  0.00  0.00    +0.000 A 
ATOM     18  C   UNL     1      49.436   8.078  12.350  0.00  0.00    +0.000 A 
ATOM     19  N   UNL     1      48.236   7.976  11.740  0.00  0.00    +0.000 NA
ATOM     20  C   UNL     1      47.228   7.385  12.424  0.00  0.00    +0.000 A 
ATOM     21  C   UNL     1      47.400   6.886  13.712  0.00  0.00    +0.000 A 
BRANCH  16  23
ATOM     22  F   UNL     1      50.154   6.148  15.997  0.00  0.00    +0.000 F 
ATOM     23  C   UNL     1      48.859   6.469  15.724  0.00  0.00    +0.000 C 
ATOM     24  F   UNL     1      48.136   5.339  15.962  0.00  0.00    +0.000 F 
ATOM     25  F   UNL     1      48.485   7.360  16.683  0.00  0.00    +0.000 F 
ENDBRANCH  16  23
ENDBRANCH  15  20
ENDBRANCH  14  15
ENDBRANCH   1  14
TORSDOF 5
ENDMDL
MODEL 9
REMARK VINA RESULT:    -7.147      3.294      3.758
REMARK INTER + INTRA:          -9.860
REMARK INTER:                  -9.058
REMARK INTRA:                  -0.802
REMARK UNBOUND:                -0.624
REMARK  Name = 
REMARK  5 active torsions:
REMARK  status: ('A' for Active; 'I' for Inactive)
REMARK    1  A    between atoms: C_2  and  C_5
REMARK    2  A    between atoms: C_9  and  C_10
REMARK    3  A    between atoms: C_10  and  C_11
REMARK    4  A    between atoms: C_11  and  C_12
REMARK    5  A    between atoms: C_16  and  C_17
REMARK                            x       y       z     vdW  Elec       q    Type
REMARK                         _______ _______ _______ _____ _____    ______ ____
ROOT
ATOM      1  C   UNL     1      44.697   4.693  12.868  0.00  0.00    +0.000 A 
ATOM      2  C   UNL     1      43.390   5.166  12.823  0.00  0.00    +0.000 A 
ATOM      3  N   UNL     1      42.665   5.206  11.685  0.00  0.00    +0.000 NA
ATOM      4  C   UNL     1      43.297   4.736  10.579  0.00  0.00    +0.000 A 
ATOM      5  C   UNL     1      44.597   4.233  10.591  0.00  0.00    +0.000 A 
ATOM      6  N   UNL     1      45.312   4.212  11.754  0.00  0.00    +0.000 NA
ENDROOT
BRANCH   5   7
ATOM      7  C   UNL     1      45.245   3.693   9.380  0.00  0.00    +0.000 A 
ATOM      8  C   UNL     1      45.763   4.518   8.376  0.00  0.00    +0.000 A 
ATOM      9  C   UNL     1      46.402   3.950   7.271  0.00  0.00    +0.000 A 
ATOM     10  C   UNL     1      46.508   2.569   7.188  0.00  0.00    +0.000 A 
ATOM     11 CL   UNL     1      47.301   1.827   5.861  0.00  0.00    +0.000 Cl
ATOM     12  C   UNL     1      45.961   1.810   8.208  0.00  0.00    +0.000 A 
ATOM     13  N   UNL     1      45.338   2.336   9.292  0.00  0.00    +0.000 NA
ENDBRANCH   5   7
BRANCH   1  14
ATOM     14  C   UNL     1      45.472   4.677  14.159  0.00  0.00    +0.000 C 
BRANCH  14  15
ATOM     15  C   UNL     1      46.940   4.317  13.918  0.00  0.00    +0.000 C 
BRANCH  15  20
ATOM     16  C   UNL     1      48.962   7.435  13.115  0.00  0.00    +0.000 A 
ATOM     17  C   UNL     1      49.439   7.730  14.395  0.00  0.00    +0.000 A 
ATOM     18  C   UNL     1      49.087   6.893  15.437  0.00  0.00    +0.000 A 
ATOM     19  N   UNL     1      48.308   5.800  15.291  0.00  0.00    +0.000 NA
ATOM     20  C   UNL     1      47.849   5.513  14.051  0.00  0.00    +0.000 A 
ATOM     21  C   UNL     1      48.150   6.305  12.947  0.00  0.00    +0.000 A 
BRANCH  16  23
ATOM     22  F   UNL     1      49.719   7.606  10.844  0.00  0.00    +0.000 F 
ATOM     23  C   UNL     1      49.299   8.306  11.935  0.00  0.00    +0.000 C 
ATOM     24  F   UNL     1      50.291   9.198  12.211  0.00  0.00    +0.000 F 
ATOM     25  F   UNL     1      48.237   9.047  11.515  0.00  0.00    +0.000 F 
ENDBRANCH  16  23
ENDBRANCH  15  20
ENDBRANCH  14  15
ENDBRANCH   1  14
TORSDOF 5
ENDMDL
