MODEL 1
REMARK VINA RESULT:    -8.197      0.000      0.000
REMARK INTER + INTRA:         -12.952
REMARK INTER:                 -12.031
REMARK INTRA:                  -0.921
REMARK UNBOUND:                -0.921
REMARK  Name = 
REMARK  9 active torsions:
REMARK  status: ('A' for Active; 'I' for Inactive)
REMARK    1  A    between atoms: C_1  and  C_2
REMARK    2  A    between atoms: C_2  and  C_3
REMARK    3  A    between atoms: C_3  and  N_4
REMARK    4  A    between atoms: C_3  and  C_26
REMARK    5  A    between atoms: N_4  and  C_5
REMARK    6  A    between atoms: C_5  and  C_6
REMARK    7  A    between atoms: C_9  and  C_10
REMARK    8  A    between atoms: C_10  and  N_11
REMARK    9  A    between atoms: C_12  and  C_14
REMARK                            x       y       z     vdW  Elec       q    Type
REMARK                         _______ _______ _______ _____ _____    ______ ____
ROOT
ATOM      1  C   UNL     1      44.742   6.122  11.102  0.00  0.00    +0.000 A 
ATOM      2  C   UNL     1      44.473   7.453  11.436  0.00  0.00    +0.000 A 
ATOM      3  C   UNL     1      45.359   8.154  12.247  0.00  0.00    +0.000 A 
ATOM      4  C   UNL     1      46.488   7.500  12.723  0.00  0.00    +0.000 A 
ATOM      5  N   UNL     1      46.796   6.222  12.381  0.00  0.00    +0.000 NA
ATOM      6  C   UNL     1      45.924   5.570  11.583  0.00  0.00    +0.000 A 
ENDROOT
BRANCH   1   7
ATOM      7  C   UNL     1      43.775   5.318  10.278  0.00  0.00    +0.000 C 
BRANCH   7   8
ATOM      8  N   UNL     1      44.455   4.650   9.174  0.00  0.00    +0.000 NA
ATOM      9  H   UNL     1      43.991   4.933   8.306  0.00  0.00    +0.000 HD
BRANCH   8  10
ATOM     10  C   UNL     1      44.401   3.173   9.199  0.00  0.00    +0.000 C 
BRANCH  10  11
ATOM     11  C   UNL     1      45.512   2.627   8.275  0.00  0.00    +0.000 A 
ATOM     12  C   UNL     1      46.041   3.432   7.261  0.00  0.00    +0.000 A 
ATOM     13  C   UNL     1      47.048   2.928   6.444  0.00  0.00    +0.000 A 
ATOM     14  C   UNL     1      47.494   1.630   6.642  0.00  0.00    +0.000 A 
ATOM     15  C   UNL     1      46.906   0.888   7.655  0.00  0.00    +0.000 A 
ATOM     16  N   UNL     1      45.931   1.351   8.472  0.00  0.00    +0.000 NA
ENDBRANCH  10  11
BRANCH  10  18
ATOM     17  C   UNL     1      43.376   2.521  11.520  0.00  0.00    +0.000 C 
ATOM     18  C   UNL     1      44.572   2.495  10.582  0.00  0.00    +0.000 C 
ENDBRANCH  10  18
ENDBRANCH   8  10
ENDBRANCH   7   8
ENDBRANCH   1   7
BRANCH   4  19
ATOM     19  C   UNL     1      47.430   8.202  13.667  0.00  0.00    +0.000 C 
BRANCH  19  20
ATOM     20  N   UNL     1      47.756   7.396  14.819  0.00  0.00    +0.000 N 
ATOM     21  C   UNL     1      49.003   6.867  15.007  0.00  0.00    +0.000 C 
ATOM     22  O   UNL     1      49.912   7.035  14.197  0.00  0.00    +0.000 OA
ATOM     23  H   UNL     1      46.966   7.045  15.352  0.00  0.00    +0.000 HD
BRANCH  21  24
ATOM     24  C   UNL     1      49.228   6.153  16.270  0.00  0.00    +0.000 A 
ATOM     25  C   UNL     1      50.216   6.601  17.137  0.00  0.00    +0.000 A 
ATOM     26  S   UNL     1      50.314   5.707  18.585  0.00  0.00    +0.000 S 
ATOM     27  C   UNL     1      49.074   4.656  18.081  0.00  0.00    +0.000 A 
ATOM     28  N   UNL     1      48.676   3.620  18.868  0.00  0.00    +0.000 NA
ATOM     29  C   UNL     1      47.747   2.883  18.352  0.00  0.00    +0.000 A 
ATOM     30  N   UNL     1      47.176   3.097  17.121  0.00  0.00    +0.000 N 
ATOM     31  C   UNL     1      47.511   4.157  16.319  0.00  0.00    +0.000 A 
ATOM     32  O   UNL     1      46.924   4.364  15.263  0.00  0.00    +0.000 OA
ATOM     33  C   UNL     1      48.573   4.998  16.838  0.00  0.00    +0.000 A 
ATOM     34  H   UNL     1      46.438   2.492  16.786  0.00  0.00    +0.000 HD
ENDBRANCH  21  24
ENDBRANCH  19  20
ENDBRANCH   4  19
TORSDOF 8
ENDMDL
MODEL 2
REMARK VINA RESULT:    -7.601      2.788      3.845
REMARK INTER + INTRA:         -12.078
REMARK INTER:                 -10.918
REMARK INTRA:                  -1.160
REMARK UNBOUND:                -0.921
REMARK  Name = 
REMARK  9 active torsions:
REMARK  status: ('A' for Active; 'I' for Inactive)
REMARK    1  A    between atoms: C_1  and  C_2
REMARK    2  A    between atoms: C_2  and  C_3
REMARK    3  A    between atoms: C_3  and  N_4
REMARK    4  A    between atoms: C_3  and  C_26
REMARK    5  A    between atoms: N_4  and  C_5
REMARK    6  A    between atoms: C_5  and  C_6
REMARK    7  A    between atoms: C_9  and  C_10
REMARK    8  A    between atoms: C_10  and  N_11
REMARK    9  A    between atoms: C_12  and  C_14
REMARK                            x       y       z     vdW  Elec       q    Type
REMARK                         _______ _______ _______ _____ _____    ______ ____
ROOT
ATOM      1  C   UNL     1      46.905   4.912  13.668  0.00  0.00    +0.000 A 
ATOM      2  C   UNL     1      46.861   4.125  14.823  0.00  0.00    +0.000 A 
ATOM      3  C   UNL     1      47.497   4.561  15.981  0.00  0.00    +0.000 A 
ATOM      4  C   UNL     1      48.182   5.769  15.950  0.00  0.00    +0.000 A 
ATOM      5  N   UNL     1      48.206   6.573  14.856  0.00  0.00    +0.000 NA
ATOM      6  C   UNL     1      47.570   6.130  13.751  0.00  0.00    +0.000 A 
ENDROOT
BRANCH   1   7
ATOM      7  C   UNL     1      46.279   4.442  12.384  0.00  0.00    +0.000 C 
BRANCH   7   8
ATOM      8  N   UNL     1      45.622   5.541  11.687  0.00  0.00    +0.000 NA
ATOM      9  H   UNL     1      45.215   6.158  12.395  0.00  0.00    +0.000 HD
BRANCH   8  10
ATOM     10  C   UNL     1      44.504   5.150  10.802  0.00  0.00    +0.000 C 
BRANCH  10  11
ATOM     11  C   UNL     1      45.055   4.219   9.700  0.00  0.00    +0.000 A 
ATOM     12  C   UNL     1      44.858   2.836   9.785  0.00  0.00    +0.000 A 
ATOM     13  C   UNL     1      45.352   2.012   8.779  0.00  0.00    +0.000 A 
ATOM     14  C   UNL     1      46.047   2.579   7.721  0.00  0.00    +0.000 A 
ATOM     15  C   UNL     1      46.218   3.956   7.718  0.00  0.00    +0.000 A 
ATOM     16  N   UNL     1      45.743   4.785   8.676  0.00  0.00    +0.000 NA
ENDBRANCH  10  11
BRANCH  10  18
ATOM     17  C   UNL     1      42.902   4.891  12.859  0.00  0.00    +0.000 C 
ATOM     18  C   UNL     1      43.310   4.424  11.471  0.00  0.00    +0.000 C 
ENDBRANCH  10  18
ENDBRANCH   8  10
ENDBRANCH   7   8
ENDBRANCH   1   7
BRANCH   4  19
ATOM     19  C   UNL     1      48.949   6.236  17.161  0.00  0.00    +0.000 C 
BRANCH  19  20
ATOM     20  N   UNL     1      49.953   5.286  17.576  0.00  0.00    +0.000 N 
ATOM     21  C   UNL     1      51.256   5.380  17.170  0.00  0.00    +0.000 C 
ATOM     22  O   UNL     1      51.641   6.271  16.417  0.00  0.00    +0.000 OA
ATOM     23  H   UNL     1      49.604   4.421  17.979  0.00  0.00    +0.000 HD
BRANCH  21  24
ATOM     24  C   UNL     1      52.193   4.409  17.747  0.00  0.00    +0.000 A 
ATOM     25  C   UNL     1      53.332   4.867  18.395  0.00  0.00    +0.000 A 
ATOM     26  S   UNL     1      54.288   3.623  19.062  0.00  0.00    +0.000 S 
ATOM     27  C   UNL     1      53.240   2.425  18.462  0.00  0.00    +0.000 A 
ATOM     28  N   UNL     1      53.500   1.104  18.666  0.00  0.00    +0.000 NA
ATOM     29  C   UNL     1      52.639   0.301  18.132  0.00  0.00    +0.000 A 
ATOM     30  N   UNL     1      51.536   0.703  17.418  0.00  0.00    +0.000 N 
ATOM     31  C   UNL     1      51.209   2.021  17.233  0.00  0.00    +0.000 A 
ATOM     32  O   UNL     1      50.173   2.344  16.661  0.00  0.00    +0.000 OA
ATOM     33  C   UNL     1      52.161   2.966  17.785  0.00  0.00    +0.000 A 
ATOM     34  H   UNL     1      50.891   0.020  17.043  0.00  0.00    +0.000 HD
ENDBRANCH  21  24
ENDBRANCH  19  20
ENDBRANCH   4  19
TORSDOF 8
ENDMDL
MODEL 3
REMARK VINA RESULT:    -7.354      2.002      2.637
REMARK INTER + INTRA:         -11.714
REMARK INTER:                 -10.334
REMARK INTRA:                  -1.381
REMARK UNBOUND:                -0.921
REMARK  Name = 
REMARK  9 active torsions:
REMARK  status: ('A' for Active; 'I' for Inactive)
REMARK    1  A    between atoms: C_1  and  C_2
REMARK    2  A    between atoms: C_2  and  C_3
REMARK    3  A    between atoms: C_3  and  N_4
REMARK    4  A    between atoms: C_3  and  C_26
REMARK    5  A    between atoms: N_4  and  C_5
REMARK    6  A    between atoms: C_5  and  C_6
REMARK    7  A    between atoms: C_9  and  C_10
REMARK    8  A    between atoms: C_10  and  N_11
REMARK    9  A    between atoms: C_12  and  C_14
REMARK                            x       y       z     vdW  Elec       q    Type
REMARK                         _______ _______ _______ _____ _____    ______ ____
ROOT
ATOM      1  C   UNL     1      45.859   6.758  12.056  0.00  0.00    +0.000 A 
ATOM      2  C   UNL     1      46.892   5.901  12.452  0.00  0.00    +0.000 A 
ATOM      3  C   UNL     1      48.107   6.432  12.870  0.00  0.00    +0.000 A 
ATOM      4  C   UNL     1      48.270   7.812  12.863  0.00  0.00    +0.000 A 
ATOM      5  N   UNL     1      47.272   8.669  12.525  0.00  0.00    +0.000 NA
ATOM      6  C   UNL     1      46.099   8.125  12.135  0.00  0.00    +0.000 A 
ENDROOT
BRANCH   1   7
ATOM      7  C   UNL     1      44.554   6.216  11.543  0.00  0.00    +0.000 C 
BRANCH   7   8
ATOM      8  N   UNL     1      44.715   5.631  10.217  0.00  0.00    +0.000 NA
ATOM      9  H   UNL     1      44.067   6.111   9.585  0.00  0.00    +0.000 HD
BRANCH   8  10
ATOM     10  C   UNL     1      44.387   4.193  10.116  0.00  0.00    +0.000 C 
BRANCH  10  11
ATOM     11  C   UNL     1      45.274   3.565   9.019  0.00  0.00    +0.000 A 
ATOM     12  C   UNL     1      45.477   2.181   8.986  0.00  0.00    +0.000 A 
ATOM     13  C   UNL     1      46.271   1.631   7.985  0.00  0.00    +0.000 A 
ATOM     14  C   UNL     1      46.859   2.470   7.050  0.00  0.00    +0.000 A 
ATOM     15  C   UNL     1      46.626   3.833   7.161  0.00  0.00    +0.000 A 
ATOM     16  N   UNL     1      45.853   4.398   8.117  0.00  0.00    +0.000 NA
ENDBRANCH  10  11
BRANCH  10  18
ATOM     17  C   UNL     1      43.319   2.727  12.007  0.00  0.00    +0.000 C 
ATOM     18  C   UNL     1      44.568   3.347  11.402  0.00  0.00    +0.000 C 
ENDBRANCH  10  18
ENDBRANCH   8  10
ENDBRANCH   7   8
ENDBRANCH   1   7
BRANCH   4  19
ATOM     19  C   UNL     1      49.598   8.420  13.234  0.00  0.00    +0.000 C 
BRANCH  19  20
ATOM     20  N   UNL     1      50.389   7.546  14.067  0.00  0.00    +0.000 N 
ATOM     21  C   UNL     1      51.277   8.027  14.991  0.00  0.00    +0.000 C 
ATOM     22  O   UNL     1      51.461   9.232  15.151  0.00  0.00    +0.000 OA
ATOM     23  H   UNL     1      50.434   6.575  13.773  0.00  0.00    +0.000 HD
BRANCH  21  24
ATOM     24  C   UNL     1      51.940   7.033  15.842  0.00  0.00    +0.000 A 
ATOM     25  C   UNL     1      53.328   6.991  15.882  0.00  0.00    +0.000 A 
ATOM     26  S   UNL     1      53.947   5.824  16.960  0.00  0.00    +0.000 S 
ATOM     27  C   UNL     1      52.382   5.298  17.371  0.00  0.00    +0.000 A 
ATOM     28  N   UNL     1      52.199   4.277  18.252  0.00  0.00    +0.000 NA
ATOM     29  C   UNL     1      50.962   3.959  18.452  0.00  0.00    +0.000 A 
ATOM     30  N   UNL     1      49.891   4.579  17.854  0.00  0.00    +0.000 N 
ATOM     31  C   UNL     1      50.028   5.642  17.000  0.00  0.00    +0.000 A 
ATOM     32  O   UNL     1      49.048   6.223  16.548  0.00  0.00    +0.000 OA
ATOM     33  C   UNL     1      51.400   6.019  16.717  0.00  0.00    +0.000 A 
ATOM     34  H   UNL     1      48.946   4.291  18.071  0.00  0.00    +0.000 HD
ENDBRANCH  21  24
ENDBRANCH  19  20
ENDBRANCH   4  19
TORSDOF 8
ENDMDL
MODEL 4
REMARK VINA RESULT:    -7.343      2.916      4.679
REMARK INTER + INTRA:         -11.699
REMARK INTER:                 -10.650
REMARK INTRA:                  -1.049
REMARK UNBOUND:                -0.921
REMARK  Name = 
REMARK  9 active torsions:
REMARK  status: ('A' for Active; 'I' for Inactive)
REMARK    1  A    between atoms: C_1  and  C_2
REMARK    2  A    between atoms: C_2  and  C_3
REMARK    3  A    between atoms: C_3  and  N_4
REMARK    4  A    between atoms: C_3  and  C_26
REMARK    5  A    between atoms: N_4  and  C_5
REMARK    6  A    between atoms: C_5  and  C_6
REMARK    7  A    between atoms: C_9  and  C_10
REMARK    8  A    between atoms: C_10  and  N_11
REMARK    9  A    between atoms: C_12  and  C_14
REMARK                            x       y       z     vdW  Elec       q    Type
REMARK                         _______ _______ _______ _____ _____    ______ ____
ROOT
ATOM      1  C   UNL     1      47.190   5.924  13.932  0.00  0.00    +0.000 A 
ATOM      2  C   UNL     1      48.032   6.322  14.976  0.00  0.00    +0.000 A 
ATOM      3  C   UNL     1      48.231   5.478  16.063  0.00  0.00    +0.000 A 
ATOM      4  C   UNL     1      47.564   4.259  16.093  0.00  0.00    +0.000 A 
ATOM      5  N   UNL     1      46.774   3.829  15.075  0.00  0.00    +0.000 NA
ATOM      6  C   UNL     1      46.609   4.664  14.027  0.00  0.00    +0.000 A 
ENDROOT
BRANCH   1   7
ATOM      7  C   UNL     1      46.906   6.837  12.772  0.00  0.00    +0.000 C 
BRANCH   7   8
ATOM      8  N   UNL     1      46.766   6.082  11.533  0.00  0.00    +0.000 NA
ATOM      9  H   UNL     1      47.416   6.481  10.850  0.00  0.00    +0.000 HD
BRANCH   8  10
ATOM     10  C   UNL     1      45.430   6.142  10.902  0.00  0.00    +0.000 C 
BRANCH  10  11
ATOM     11  C   UNL     1      45.165   4.800  10.187  0.00  0.00    +0.000 A 
ATOM     12  C   UNL     1      45.383   4.681   8.811  0.00  0.00    +0.000 A 
ATOM     13  C   UNL     1      45.149   3.461   8.184  0.00  0.00    +0.000 A 
ATOM     14  C   UNL     1      44.684   2.393   8.936  0.00  0.00    +0.000 A 
ATOM     15  C   UNL     1      44.473   2.594  10.292  0.00  0.00    +0.000 A 
ATOM     16  N   UNL     1      44.700   3.765  10.933  0.00  0.00    +0.000 NA
ENDBRANCH  10  11
BRANCH  10  18
ATOM     17  C   UNL     1      42.851   6.490  11.208  0.00  0.00    +0.000 C 
ATOM     18  C   UNL     1      44.230   6.413  11.844  0.00  0.00    +0.000 C 
ENDBRANCH  10  18
ENDBRANCH   8  10
ENDBRANCH   7   8
ENDBRANCH   1   7
BRANCH   4  19
ATOM     19  C   UNL     1      47.693   3.354  17.290  0.00  0.00    +0.000 C 
BRANCH  19  20
ATOM     20  N   UNL     1      49.069   3.133  17.666  0.00  0.00    +0.000 N 
ATOM     21  C   UNL     1      49.869   2.239  17.008  0.00  0.00    +0.000 C 
ATOM     22  O   UNL     1      49.456   1.564  16.069  0.00  0.00    +0.000 OA
ATOM     23  H   UNL     1      49.341   3.486  18.579  0.00  0.00    +0.000 HD
BRANCH  21  24
ATOM     24  C   UNL     1      51.275   2.186  17.427  0.00  0.00    +0.000 A 
ATOM     25  C   UNL     1      51.853   0.956  17.711  0.00  0.00    +0.000 A 
ATOM     26  S   UNL     1      53.504   1.055  18.124  0.00  0.00    +0.000 S 
ATOM     27  C   UNL     1      53.491   2.750  17.990  0.00  0.00    +0.000 A 
ATOM     28  N   UNL     1      54.612   3.479  18.245  0.00  0.00    +0.000 NA
ATOM     29  C   UNL     1      54.454   4.758  18.134  0.00  0.00    +0.000 A 
ATOM     30  N   UNL     1      53.275   5.371  17.783  0.00  0.00    +0.000 N 
ATOM     31  C   UNL     1      52.138   4.674  17.469  0.00  0.00    +0.000 A 
ATOM     32  O   UNL     1      51.128   5.249  17.081  0.00  0.00    +0.000 OA
ATOM     33  C   UNL     1      52.251   3.234  17.609  0.00  0.00    +0.000 A 
ATOM     34  H   UNL     1      53.228   6.378  17.695  0.00  0.00    +0.000 HD
ENDBRANCH  21  24
ENDBRANCH  19  20
ENDBRANCH   4  19
TORSDOF 8
ENDMDL
MODEL 5
REMARK VINA RESULT:    -7.207      3.106      8.130
REMARK INTER + INTRA:         -11.500
REMARK INTER:                  -9.774
REMARK INTRA:                  -1.726
REMARK UNBOUND:                -0.921
REMARK  Name = 
REMARK  9 active torsions:
REMARK  status: ('A' for Active; 'I' for Inactive)
REMARK    1  A    between atoms: C_1  and  C_2
REMARK    2  A    between atoms: C_2  and  C_3
REMARK    3  A    between atoms: C_3  and  N_4
REMARK    4  A    between atoms: C_3  and  C_26
REMARK    5  A    between atoms: N_4  and  C_5
REMARK    6  A    between atoms: C_5  and  C_6
REMARK    7  A    between atoms: C_9  and  C_10
REMARK    8  A    between atoms: C_10  and  N_11
REMARK    9  A    between atoms: C_12  and  C_14
REMARK                            x       y       z     vdW  Elec       q    Type
REMARK                         _______ _______ _______ _____ _____    ______ ____
ROOT
ATOM      1  C   UNL     1      48.823   8.057  16.117  0.00  0.00    +0.000 A 
ATOM      2  C   UNL     1      49.135   6.912  15.375  0.00  0.00    +0.000 A 
ATOM      3  C   UNL     1      49.010   6.931  13.990  0.00  0.00    +0.000 A 
ATOM      4  C   UNL     1      48.554   8.092  13.377  0.00  0.00    +0.000 A 
ATOM      5  N   UNL     1      48.283   9.230  14.067  0.00  0.00    +0.000 NA
ATOM      6  C   UNL     1      48.426   9.185  15.409  0.00  0.00    +0.000 A 
ENDROOT
BRANCH   1   7
ATOM      7  C   UNL     1      48.890   8.051  17.619  0.00  0.00    +0.000 C 
BRANCH   7   8
ATOM      8  N   UNL     1      47.807   7.258  18.189  0.00  0.00    +0.000 NA
ATOM      9  H   UNL     1      47.234   7.882  18.763  0.00  0.00    +0.000 HD
BRANCH   8  10
ATOM     10  C   UNL     1      48.231   6.160  19.084  0.00  0.00    +0.000 C 
BRANCH  10  11
ATOM     11  C   UNL     1      48.350   4.866  18.249  0.00  0.00    +0.000 A 
ATOM     12  C   UNL     1      49.574   4.194  18.166  0.00  0.00    +0.000 A 
ATOM     13  C   UNL     1      49.662   3.025  17.417  0.00  0.00    +0.000 A 
ATOM     14  C   UNL     1      48.536   2.560  16.754  0.00  0.00    +0.000 A 
ATOM     15  C   UNL     1      47.364   3.293  16.869  0.00  0.00    +0.000 A 
ATOM     16  N   UNL     1      47.244   4.428  17.595  0.00  0.00    +0.000 NA
ENDBRANCH  10  11
BRANCH  10  18
ATOM     17  C   UNL     1      49.531   7.136  21.139  0.00  0.00    +0.000 C 
ATOM     18  C   UNL     1      49.572   6.355  19.835  0.00  0.00    +0.000 C 
ENDBRANCH  10  18
ENDBRANCH   8  10
ENDBRANCH   7   8
ENDBRANCH   1   7
BRANCH   4  19
ATOM     19  C   UNL     1      48.330   8.124  11.887  0.00  0.00    +0.000 C 
BRANCH  19  20
ATOM     20  N   UNL     1      47.605   6.970  11.415  0.00  0.00    +0.000 N 
ATOM     21  C   UNL     1      46.238   6.928  11.392  0.00  0.00    +0.000 C 
ATOM     22  O   UNL     1      45.550   7.867  11.787  0.00  0.00    +0.000 OA
ATOM     23  H   UNL     1      48.144   6.113  11.330  0.00  0.00    +0.000 HD
BRANCH  21  24
ATOM     24  C   UNL     1      45.629   5.734  10.793  0.00  0.00    +0.000 A 
ATOM     25  C   UNL     1      45.791   5.498   9.434  0.00  0.00    +0.000 A 
ATOM     26  S   UNL     1      45.078   4.045   8.902  0.00  0.00    +0.000 S 
ATOM     27  C   UNL     1      44.482   3.705  10.458  0.00  0.00    +0.000 A 
ATOM     28  N   UNL     1      43.741   2.588  10.693  0.00  0.00    +0.000 NA
ATOM     29  C   UNL     1      43.327   2.468  11.913  0.00  0.00    +0.000 A 
ATOM     30  N   UNL     1      43.597   3.364  12.919  0.00  0.00    +0.000 N 
ATOM     31  C   UNL     1      44.380   4.474  12.738  0.00  0.00    +0.000 A 
ATOM     32  O   UNL     1      44.667   5.207  13.677  0.00  0.00    +0.000 OA
ATOM     33  C   UNL     1      44.844   4.673  11.379  0.00  0.00    +0.000 A 
ATOM     34  H   UNL     1      43.257   3.197  13.858  0.00  0.00    +0.000 HD
ENDBRANCH  21  24
ENDBRANCH  19  20
ENDBRANCH   4  19
TORSDOF 8
ENDMDL
MODEL 6
REMARK VINA RESULT:    -7.181      2.860      8.372
REMARK INTER + INTRA:         -11.461
REMARK INTER:                  -9.952
REMARK INTRA:                  -1.509
REMARK UNBOUND:                -0.921
REMARK  Name = 
REMARK  9 active torsions:
REMARK  status: ('A' for Active; 'I' for Inactive)
REMARK    1  A    between atoms: C_1  and  C_2
REMARK    2  A    between atoms: C_2  and  C_3
REMARK    3  A    between atoms: C_3  and  N_4
REMARK    4  A    between atoms: C_3  and  C_26
REMARK    5  A    between atoms: N_4  and  C_5
REMARK    6  A    between atoms: C_5  and  C_6
REMARK    7  A    between atoms: C_9  and  C_10
REMARK    8  A    between atoms: C_10  and  N_11
REMARK    9  A    between atoms: C_12  and  C_14
REMARK                            x       y       z     vdW  Elec       q    Type
REMARK                         _______ _______ _______ _____ _____    ______ ____
ROOT
ATOM      1  C   UNL     1      49.322   8.148  15.850  0.00  0.00    +0.000 A 
ATOM      2  C   UNL     1      48.381   9.075  15.389  0.00  0.00    +0.000 A 
ATOM      3  C   UNL     1      47.809   8.911  14.132  0.00  0.00    +0.000 A 
ATOM      4  C   UNL     1      48.208   7.832  13.353  0.00  0.00    +0.000 A 
ATOM      5  N   UNL     1      49.087   6.894  13.791  0.00  0.00    +0.000 NA
ATOM      6  C   UNL     1      49.617   7.073  15.020  0.00  0.00    +0.000 A 
ENDROOT
BRANCH   1   7
ATOM      7  C   UNL     1      50.004   8.329  17.178  0.00  0.00    +0.000 C 
BRANCH   7   8
ATOM      8  N   UNL     1      50.156   7.053  17.867  0.00  0.00    +0.000 NA
ATOM      9  H   UNL     1      50.431   6.354  17.171  0.00  0.00    +0.000 HD
BRANCH   8  10
ATOM     10  C   UNL     1      48.930   6.527  18.505  0.00  0.00    +0.000 C 
BRANCH  10  11
ATOM     11  C   UNL     1      48.690   5.090  17.992  0.00  0.00    +0.000 A 
ATOM     12  C   UNL     1      47.392   4.655  17.704  0.00  0.00    +0.000 A 
ATOM     13  C   UNL     1      47.194   3.361  17.234  0.00  0.00    +0.000 A 
ATOM     14  C   UNL     1      48.288   2.523  17.079  0.00  0.00    +0.000 A 
ATOM     15  C   UNL     1      49.541   3.021  17.404  0.00  0.00    +0.000 A 
ATOM     16  N   UNL     1      49.768   4.277  17.855  0.00  0.00    +0.000 NA
ENDBRANCH  10  11
BRANCH  10  18
ATOM     17  C   UNL     1      47.603   6.783  20.750  0.00  0.00    +0.000 C 
ATOM     18  C   UNL     1      48.920   6.477  20.053  0.00  0.00    +0.000 C 
ENDBRANCH  10  18
ENDBRANCH   8  10
ENDBRANCH   7   8
ENDBRANCH   1   7
BRANCH   4  19
ATOM     19  C   UNL     1      47.669   7.666  11.956  0.00  0.00    +0.000 C 
BRANCH  19  20
ATOM     20  N   UNL     1      46.957   6.422  11.785  0.00  0.00    +0.000 N 
ATOM     21  C   UNL     1      45.595   6.342  11.895  0.00  0.00    +0.000 C 
ATOM     22  O   UNL     1      44.904   7.323  12.160  0.00  0.00    +0.000 OA
ATOM     23  H   UNL     1      47.522   5.579  11.820  0.00  0.00    +0.000 HD
BRANCH  21  24
ATOM     24  C   UNL     1      44.990   5.039  11.597  0.00  0.00    +0.000 A 
ATOM     25  C   UNL     1      44.283   4.376  12.592  0.00  0.00    +0.000 A 
ATOM     26  S   UNL     1      43.591   2.906  12.076  0.00  0.00    +0.000 S 
ATOM     27  C   UNL     1      44.256   3.078  10.519  0.00  0.00    +0.000 A 
ATOM     28  N   UNL     1      44.059   2.125   9.568  0.00  0.00    +0.000 NA
ATOM     29  C   UNL     1      44.644   2.368   8.440  0.00  0.00    +0.000 A 
ATOM     30  N   UNL     1      45.402   3.484   8.179  0.00  0.00    +0.000 N 
ATOM     31  C   UNL     1      45.583   4.491   9.091  0.00  0.00    +0.000 A 
ATOM     32  O   UNL     1      46.198   5.510   8.797  0.00  0.00    +0.000 OA
ATOM     33  C   UNL     1      44.974   4.253  10.386  0.00  0.00    +0.000 A 
ATOM     34  H   UNL     1      45.816   3.620   7.266  0.00  0.00    +0.000 HD
ENDBRANCH  21  24
ENDBRANCH  19  20
ENDBRANCH   4  19
TORSDOF 8
ENDMDL
MODEL 7
REMARK VINA RESULT:    -7.082      4.380      9.726
REMARK INTER + INTRA:         -11.315
REMARK INTER:                 -10.225
REMARK INTRA:                  -1.091
REMARK UNBOUND:                -0.921
REMARK  Name = 
REMARK  9 active torsions:
REMARK  status: ('A' for Active; 'I' for Inactive)
REMARK    1  A    between atoms: C_1  and  C_2
REMARK    2  A    between atoms: C_2  and  C_3
REMARK    3  A    between atoms: C_3  and  N_4
REMARK    4  A    between atoms: C_3  and  C_26
REMARK    5  A    between atoms: N_4  and  C_5
REMARK    6  A    between atoms: C_5  and  C_6
REMARK    7  A    between atoms: C_9  and  C_10
REMARK    8  A    between atoms: C_10  and  N_11
REMARK    9  A    between atoms: C_12  and  C_14
REMARK                            x       y       z     vdW  Elec       q    Type
REMARK                         _______ _______ _______ _____ _____    ______ ____
ROOT
ATOM      1  C   UNL     1      51.146   3.863  17.906  0.00  0.00    +0.000 A 
ATOM      2  C   UNL     1      50.697   2.644  17.385  0.00  0.00    +0.000 A 
ATOM      3  C   UNL     1      49.371   2.509  16.989  0.00  0.00    +0.000 A 
ATOM      4  C   UNL     1      48.515   3.593  17.142  0.00  0.00    +0.000 A 
ATOM      5  N   UNL     1      48.933   4.800  17.605  0.00  0.00    +0.000 NA
ATOM      6  C   UNL     1      50.229   4.905  17.971  0.00  0.00    +0.000 A 
ENDROOT
BRANCH   1   7
ATOM      7  C   UNL     1      52.557   4.023  18.399  0.00  0.00    +0.000 C 
BRANCH   7   8
ATOM      8  N   UNL     1      52.825   3.133  19.522  0.00  0.00    +0.000 NA
ATOM      9  H   UNL     1      52.633   3.652  20.384  0.00  0.00    +0.000 HD
BRANCH   8  10
ATOM     10  C   UNL     1      54.221   2.662  19.637  0.00  0.00    +0.000 C 
BRANCH  10  11
ATOM     11  C   UNL     1      54.450   1.549  18.591  0.00  0.00    +0.000 A 
ATOM     12  C   UNL     1      55.125   1.832  17.400  0.00  0.00    +0.000 A 
ATOM     13  C   UNL     1      55.332   0.816  16.473  0.00  0.00    +0.000 A 
ATOM     14  C   UNL     1      54.846  -0.455  16.743  0.00  0.00    +0.000 A 
ATOM     15  C   UNL     1      54.170  -0.653  17.938  0.00  0.00    +0.000 A 
ATOM     16  N   UNL     1      53.960   0.312  18.863  0.00  0.00    +0.000 NA
ENDBRANCH  10  11
BRANCH  10  18
ATOM     17  C   UNL     1      55.755   4.526  20.657  0.00  0.00    +0.000 C 
ATOM     18  C   UNL     1      55.331   3.724  19.437  0.00  0.00    +0.000 C 
ENDBRANCH  10  18
ENDBRANCH   8  10
ENDBRANCH   7   8
ENDBRANCH   1   7
BRANCH   4  19
ATOM     19  C   UNL     1      47.054   3.460  16.797  0.00  0.00    +0.000 C 
BRANCH  19  20
ATOM     20  N   UNL     1      46.633   4.422  15.807  0.00  0.00    +0.000 N 
ATOM     21  C   UNL     1      46.760   4.189  14.465  0.00  0.00    +0.000 C 
ATOM     22  O   UNL     1      47.254   3.152  14.028  0.00  0.00    +0.000 OA
ATOM     23  H   UNL     1      46.465   5.364  16.148  0.00  0.00    +0.000 HD
BRANCH  21  24
ATOM     24  C   UNL     1      46.199   5.205  13.568  0.00  0.00    +0.000 A 
ATOM     25  C   UNL     1      46.953   6.330  13.260  0.00  0.00    +0.000 A 
ATOM     26  S   UNL     1      46.191   7.386  12.160  0.00  0.00    +0.000 S 
ATOM     27  C   UNL     1      44.803   6.403  12.097  0.00  0.00    +0.000 A 
ATOM     28  N   UNL     1      43.731   6.758  11.337  0.00  0.00    +0.000 NA
ATOM     29  C   UNL     1      42.735   5.937  11.404  0.00  0.00    +0.000 A 
ATOM     30  N   UNL     1      42.719   4.788  12.158  0.00  0.00    +0.000 N 
ATOM     31  C   UNL     1      43.794   4.369  12.897  0.00  0.00    +0.000 A 
ATOM     32  O   UNL     1      43.775   3.297  13.493  0.00  0.00    +0.000 OA
ATOM     33  C   UNL     1      44.930   5.271  12.883  0.00  0.00    +0.000 A 
ATOM     34  H   UNL     1      41.911   4.180  12.149  0.00  0.00    +0.000 HD
ENDBRANCH  21  24
ENDBRANCH  19  20
ENDBRANCH   4  19
TORSDOF 8
ENDMDL
MODEL 8
REMARK VINA RESULT:    -6.999      2.932      8.527
REMARK INTER + INTRA:         -11.194
REMARK INTER:                  -9.765
REMARK INTRA:                  -1.430
REMARK UNBOUND:                -0.921
REMARK  Name = 
REMARK  9 active torsions:
REMARK  status: ('A' for Active; 'I' for Inactive)
REMARK    1  A    between atoms: C_1  and  C_2
REMARK    2  A    between atoms: C_2  and  C_3
REMARK    3  A    between atoms: C_3  and  N_4
REMARK    4  A    between atoms: C_3  and  C_26
REMARK    5  A    between atoms: N_4  and  C_5
REMARK    6  A    between atoms: C_5  and  C_6
REMARK    7  A    between atoms: C_9  and  C_10
REMARK    8  A    between atoms: C_10  and  N_11
REMARK    9  A    between atoms: C_12  and  C_14
REMARK                            x       y       z     vdW  Elec       q    Type
REMARK                         _______ _______ _______ _____ _____    ______ ____
ROOT
ATOM      1  C   UNL     1      50.289   7.594  15.024  0.00  0.00    +0.000 A 
ATOM      2  C   UNL     1      50.704   8.098  13.787  0.00  0.00    +0.000 A 
ATOM      3  C   UNL     1      49.791   8.203  12.743  0.00  0.00    +0.000 A 
ATOM      4  C   UNL     1      48.484   7.781  12.954  0.00  0.00    +0.000 A 
ATOM      5  N   UNL     1      48.044   7.327  14.156  0.00  0.00    +0.000 NA
ATOM      6  C   UNL     1      48.949   7.248  15.154  0.00  0.00    +0.000 A 
ENDROOT
BRANCH   1   7
ATOM      7  C   UNL     1      51.263   7.412  16.155  0.00  0.00    +0.000 C 
BRANCH   7   8
ATOM      8  N   UNL     1      50.575   7.040  17.385  0.00  0.00    +0.000 NA
ATOM      9  H   UNL     1      50.842   7.716  18.107  0.00  0.00    +0.000 HD
BRANCH   8  10
ATOM     10  C   UNL     1      50.925   5.710  17.929  0.00  0.00    +0.000 C 
BRANCH  10  11
ATOM     11  C   UNL     1      49.729   4.760  17.703  0.00  0.00    +0.000 A 
ATOM     12  C   UNL     1      48.432   5.171  18.029  0.00  0.00    +0.000 A 
ATOM     13  C   UNL     1      47.365   4.306  17.810  0.00  0.00    +0.000 A 
ATOM     14  C   UNL     1      47.613   3.045  17.289  0.00  0.00    +0.000 A 
ATOM     15  C   UNL     1      48.928   2.703  17.010  0.00  0.00    +0.000 A 
ATOM     16  N   UNL     1      49.986   3.524  17.204  0.00  0.00    +0.000 NA
ENDBRANCH  10  11
BRANCH  10  18
ATOM     17  C   UNL     1      53.494   5.216  18.079  0.00  0.00    +0.000 C 
ATOM     18  C   UNL     1      52.182   5.026  17.334  0.00  0.00    +0.000 C 
ENDBRANCH  10  18
ENDBRANCH   8  10
ENDBRANCH   7   8
ENDBRANCH   1   7
BRANCH   4  19
ATOM     19  C   UNL     1      47.488   7.805  11.824  0.00  0.00    +0.000 C 
BRANCH  19  20
ATOM     20  N   UNL     1      46.792   6.550  11.676  0.00  0.00    +0.000 N 
ATOM     21  C   UNL     1      45.429   6.479  11.583  0.00  0.00    +0.000 C 
ATOM     22  O   UNL     1      44.720   7.480  11.636  0.00  0.00    +0.000 OA
ATOM     23  H   UNL     1      47.334   5.716  11.885  0.00  0.00    +0.000 HD
BRANCH  21  24
ATOM     24  C   UNL     1      44.858   5.150  11.334  0.00  0.00    +0.000 A 
ATOM     25  C   UNL     1      44.100   4.540  12.324  0.00  0.00    +0.000 A 
ATOM     26  S   UNL     1      43.457   3.031  11.863  0.00  0.00    +0.000 S 
ATOM     27  C   UNL     1      44.213   3.114  10.341  0.00  0.00    +0.000 A 
ATOM     28  N   UNL     1      44.085   2.101   9.442  0.00  0.00    +0.000 NA
ATOM     29  C   UNL     1      44.735   2.281   8.339  0.00  0.00    +0.000 A 
ATOM     30  N   UNL     1      45.495   3.390   8.053  0.00  0.00    +0.000 N 
ATOM     31  C   UNL     1      45.609   4.455   8.908  0.00  0.00    +0.000 A 
ATOM     32  O   UNL     1      46.228   5.462   8.587  0.00  0.00    +0.000 OA
ATOM     33  C   UNL     1      44.924   4.290  10.176  0.00  0.00    +0.000 A 
ATOM     34  H   UNL     1      45.962   3.474   7.160  0.00  0.00    +0.000 HD
ENDBRANCH  21  24
ENDBRANCH  19  20
ENDBRANCH   4  19
TORSDOF 8
ENDMDL
MODEL 9
REMARK VINA RESULT:    -6.579      3.452      8.107
REMARK INTER + INTRA:         -10.577
REMARK INTER:                  -8.492
REMARK INTRA:                  -2.085
REMARK UNBOUND:                -0.921
REMARK  Name = 
REMARK  9 active torsions:
REMARK  status: ('A' for Active; 'I' for Inactive)
REMARK    1  A    between atoms: C_1  and  C_2
REMARK    2  A    between atoms: C_2  and  C_3
REMARK    3  A    between atoms: C_3  and  N_4
REMARK    4  A    between atoms: C_3  and  C_26
REMARK    5  A    between atoms: N_4  and  C_5
REMARK    6  A    between atoms: C_5  and  C_6
REMARK    7  A    between atoms: C_9  and  C_10
REMARK    8  A    between atoms: C_10  and  N_11
REMARK    9  A    between atoms: C_12  and  C_14
REMARK                            x       y       z     vdW  Elec       q    Type
REMARK                         _______ _______ _______ _____ _____    ______ ____
ROOT
ATOM      1  C   UNL     1      50.780   7.102  17.500  0.00  0.00    +0.000 A 
ATOM      2  C   UNL     1      49.799   7.923  18.067  0.00  0.00    +0.000 A 
ATOM      3  C   UNL     1      48.917   8.615  17.245  0.00  0.00    +0.000 A 
ATOM      4  C   UNL     1      49.048   8.485  15.867  0.00  0.00    +0.000 A 
ATOM      5  N   UNL     1      49.962   7.664  15.290  0.00  0.00    +0.000 NA
ATOM      6  C   UNL     1      50.797   6.995  16.114  0.00  0.00    +0.000 A 
ENDROOT
BRANCH   1   7
ATOM      7  C   UNL     1      51.787   6.388  18.358  0.00  0.00    +0.000 C 
BRANCH   7   8
ATOM      8  N   UNL     1      51.131   5.473  19.284  0.00  0.00    +0.000 NA
ATOM      9  H   UNL     1      51.706   5.420  20.129  0.00  0.00    +0.000 HD
BRANCH   8  10
ATOM     10  C   UNL     1      50.990   4.081  18.804  0.00  0.00    +0.000 C 
BRANCH  10  11
ATOM     11  C   UNL     1      49.604   3.930  18.140  0.00  0.00    +0.000 A 
ATOM     12  C   UNL     1      48.501   4.622  18.649  0.00  0.00    +0.000 A 
ATOM     13  C   UNL     1      47.262   4.482  18.033  0.00  0.00    +0.000 A 
ATOM     14  C   UNL     1      47.144   3.644  16.934  0.00  0.00    +0.000 A 
ATOM     15  C   UNL     1      48.280   2.977  16.500  0.00  0.00    +0.000 A 
ATOM     16  N   UNL     1      49.500   3.098  17.072  0.00  0.00    +0.000 NA
ENDBRANCH  10  11
BRANCH  10  18
ATOM     17  C   UNL     1      53.049   2.549  18.275  0.00  0.00    +0.000 C 
ATOM     18  C   UNL     1      52.050   3.586  17.788  0.00  0.00    +0.000 C 
ENDBRANCH  10  18
ENDBRANCH   8  10
ENDBRANCH   7   8
ENDBRANCH   1   7
BRANCH   4  19
ATOM     19  C   UNL     1      48.161   9.280  14.944  0.00  0.00    +0.000 C 
BRANCH  19  20
ATOM     20  N   UNL     1      47.132   8.470  14.337  0.00  0.00    +0.000 N 
ATOM     21  C   UNL     1      47.024   8.326  12.981  0.00  0.00    +0.000 C 
ATOM     22  O   UNL     1      47.788   8.891  12.203  0.00  0.00    +0.000 OA
ATOM     23  H   UNL     1      46.357   8.213  14.942  0.00  0.00    +0.000 HD
BRANCH  21  24
ATOM     24  C   UNL     1      45.997   7.394  12.502  0.00  0.00    +0.000 A 
ATOM     25  C   UNL     1      44.918   7.884  11.778  0.00  0.00    +0.000 A 
ATOM     26  S   UNL     1      43.846   6.674  11.241  0.00  0.00    +0.000 S 
ATOM     27  C   UNL     1      44.756   5.455  12.002  0.00  0.00    +0.000 A 
ATOM     28  N   UNL     1      44.362   4.154  11.950  0.00  0.00    +0.000 NA
ATOM     29  C   UNL     1      45.129   3.337  12.595  0.00  0.00    +0.000 A 
ATOM     30  N   UNL     1      46.260   3.707  13.282  0.00  0.00    +0.000 N 
ATOM     31  C   UNL     1      46.721   4.997  13.318  0.00  0.00    +0.000 A 
ATOM     32  O   UNL     1      47.778   5.278  13.871  0.00  0.00    +0.000 OA
ATOM     33  C   UNL     1      45.878   5.961  12.635  0.00  0.00    +0.000 A 
ATOM     34  H   UNL     1      46.826   3.011  13.750  0.00  0.00    +0.000 HD
ENDBRANCH  21  24
ENDBRANCH  19  20
ENDBRANCH   4  19
TORSDOF 8
ENDMDL
