MODEL 1
REMARK VINA RESULT:    -8.489      0.000      0.000
REMARK INTER + INTRA:         -11.681
REMARK INTER:                 -11.219
REMARK INTRA:                  -0.463
REMARK UNBOUND:                -0.463
REMARK  Name = 
REMARK  6 active torsions:
REMARK  status: ('A' for Active; 'I' for Inactive)
REMARK    1  A    between atoms: C_2  and  C_4
REMARK    2  A    between atoms: C_8  and  O_9
REMARK    3  A    between atoms: O_9  and  C_10
REMARK    4  A    between atoms: C_10  and  C_11
REMARK    5  A    between atoms: C_15  and  N_16
REMARK    6  A    between atoms: C_19  and  O_20
REMARK                            x       y       z     vdW  Elec       q    Type
REMARK                         _______ _______ _______ _____ _____    ______ ____
ROOT
ATOM      1  C   UNL     1      44.750   4.404  12.019  0.00  0.00    +0.000 A 
ATOM      2  C   UNL     1      45.289   3.262  12.595  0.00  0.00    +0.000 A 
ATOM      3  N   UNL     1      46.373   3.290  13.394  0.00  0.00    +0.000 NA
ATOM      4  C   UNL     1      46.886   4.527  13.600  0.00  0.00    +0.000 A 
ATOM      5  C   UNL     1      46.375   5.705  13.040  0.00  0.00    +0.000 A 
ATOM      6  N   UNL     1      45.284   5.634  12.245  0.00  0.00    +0.000 NA
ENDROOT
BRANCH   5   7
ATOM      7  N   UNL     1      46.984   6.925  13.231  0.00  0.00    +0.000 N 
ATOM      8  C   UNL     1      48.437   7.009  13.218  0.00  0.00    +0.000 C 
ATOM      9  C   UNL     1      48.895   7.862  12.039  0.00  0.00    +0.000 C 
ATOM     10  C   UNL     1      48.156   9.201  11.969  0.00  0.00    +0.000 C 
ATOM     11  C   UNL     1      46.637   9.034  12.048  0.00  0.00    +0.000 C 
ATOM     12  C   UNL     1      46.222   8.164  13.230  0.00  0.00    +0.000 C 
BRANCH  10  13
ATOM     13  O   UNL     1      48.612  10.087  12.992  0.00  0.00    +0.000 OA
ATOM     14  H   UNL     1      47.846  10.464  13.452  0.00  0.00    +0.000 HD
ENDBRANCH  10  13
ENDBRANCH   5   7
BRANCH   1  15
ATOM     15  C   UNL     1      43.603   4.290  11.050  0.00  0.00    +0.000 C 
BRANCH  15  16
ATOM     16  O   UNL     1      43.724   3.091  10.286  0.00  0.00    +0.000 OA
BRANCH  16  21
ATOM     17  C   UNL     1      46.318   2.132   7.818  0.00  0.00    +0.000 A 
ATOM     18  C   UNL     1      46.554   3.407   7.324  0.00  0.00    +0.000 A 
ATOM     19  N   UNL     1      45.887   4.507   7.748  0.00  0.00    +0.000 NA
ATOM     20  C   UNL     1      44.968   4.317   8.726  0.00  0.00    +0.000 A 
ATOM     21  C   UNL     1      44.670   3.083   9.300  0.00  0.00    +0.000 A 
ATOM     22  C   UNL     1      45.363   1.969   8.828  0.00  0.00    +0.000 A 
BRANCH  17  24
ATOM     23  N   UNL     1      46.775  -0.252   7.736  0.00  0.00    +0.000 N 
ATOM     24  C   UNL     1      47.117   1.004   7.300  0.00  0.00    +0.000 C 
ATOM     25  O   UNL     1      48.022   1.175   6.506  0.00  0.00    +0.000 OA
ATOM     26  H   UNL     1      47.274  -1.020   7.308  0.00  0.00    +0.000 HD
ATOM     27  H   UNL     1      45.887  -0.457   8.171  0.00  0.00    +0.000 HD
ENDBRANCH  17  24
ENDBRANCH  16  21
ENDBRANCH  15  16
ENDBRANCH   1  15
TORSDOF 6
ENDMDL
MODEL 2
REMARK VINA RESULT:    -7.531      2.690      7.117
REMARK INTER + INTRA:         -10.415
REMARK INTER:                  -9.818
REMARK INTRA:                  -0.597
REMARK UNBOUND:                -0.463
REMARK  Name = 
REMARK  6 active torsions:
REMARK  status: ('A' for Active; 'I' for Inactive)
REMARK    1  A    between atoms: C_2  and  C_4
REMARK    2  A    between atoms: C_8  and  O_9
REMARK    3  A    between atoms: O_9  and  C_10
REMARK    4  A    between atoms: C_10  and  C_11
REMARK    5  A    between atoms: C_15  and  N_16
REMARK    6  A    between atoms: C_19  and  O_20
REMARK                            x       y       z     vdW  Elec       q    Type
REMARK                         _______ _______ _______ _____ _____    ______ ____
ROOT
ATOM      1  C   UNL     1      44.815   4.805  12.160  0.00  0.00    +0.000 A 
ATOM      2  C   UNL     1      43.930   4.012  12.879  0.00  0.00    +0.000 A 
ATOM      3  N   UNL     1      43.356   2.909  12.363  0.00  0.00    +0.000 NA
ATOM      4  C   UNL     1      43.722   2.628  11.089  0.00  0.00    +0.000 A 
ATOM      5  C   UNL     1      44.610   3.398  10.328  0.00  0.00    +0.000 A 
ATOM      6  N   UNL     1      45.168   4.498  10.883  0.00  0.00    +0.000 NA
ENDROOT
BRANCH   5   7
ATOM      7  N   UNL     1      44.889   3.100   9.013  0.00  0.00    +0.000 N 
ATOM      8  C   UNL     1      45.226   4.174   8.092  0.00  0.00    +0.000 C 
ATOM      9  C   UNL     1      46.661   4.004   7.602  0.00  0.00    +0.000 C 
ATOM     10  C   UNL     1      46.936   2.588   7.092  0.00  0.00    +0.000 C 
ATOM     11  C   UNL     1      46.501   1.513   8.090  0.00  0.00    +0.000 C 
ATOM     12  C   UNL     1      45.068   1.727   8.565  0.00  0.00    +0.000 C 
BRANCH  10  13
ATOM     13  O   UNL     1      46.311   2.373   5.826  0.00  0.00    +0.000 OA
ATOM     14  H   UNL     1      46.229   1.419   5.670  0.00  0.00    +0.000 HD
ENDBRANCH  10  13
ENDBRANCH   5   7
BRANCH   1  15
ATOM     15  C   UNL     1      45.338   6.084  12.758  0.00  0.00    +0.000 C 
BRANCH  15  16
ATOM     16  O   UNL     1      46.764   6.071  12.773  0.00  0.00    +0.000 OA
BRANCH  16  21
ATOM     17  C   UNL     1      47.808   4.457  15.941  0.00  0.00    +0.000 A 
ATOM     18  C   UNL     1      48.712   5.433  16.333  0.00  0.00    +0.000 A 
ATOM     19  N   UNL     1      48.987   6.535  15.595  0.00  0.00    +0.000 NA
ATOM     20  C   UNL     1      48.304   6.669  14.432  0.00  0.00    +0.000 A 
ATOM     21  C   UNL     1      47.364   5.756  13.960  0.00  0.00    +0.000 A 
ATOM     22  C   UNL     1      47.118   4.625  14.736  0.00  0.00    +0.000 A 
BRANCH  17  24
ATOM     23  N   UNL     1      48.635   2.475  17.078  0.00  0.00    +0.000 N 
ATOM     24  C   UNL     1      47.568   3.303  16.833  0.00  0.00    +0.000 C 
ATOM     25  O   UNL     1      46.482   3.108  17.345  0.00  0.00    +0.000 OA
ATOM     26  H   UNL     1      48.478   1.741  17.756  0.00  0.00    +0.000 HD
ATOM     27  H   UNL     1      49.590   2.745  16.895  0.00  0.00    +0.000 HD
ENDBRANCH  17  24
ENDBRANCH  16  21
ENDBRANCH  15  16
ENDBRANCH   1  15
TORSDOF 6
ENDMDL
MODEL 3
REMARK VINA RESULT:    -7.166      3.432      5.427
REMARK INTER + INTRA:          -9.933
REMARK INTER:                  -9.254
REMARK INTRA:                  -0.679
REMARK UNBOUND:                -0.463
REMARK  Name = 
REMARK  6 active torsions:
REMARK  status: ('A' for Active; 'I' for Inactive)
REMARK    1  A    between atoms: C_2  and  C_4
REMARK    2  A    between atoms: C_8  and  O_9
REMARK    3  A    between atoms: O_9  and  C_10
REMARK    4  A    between atoms: C_10  and  C_11
REMARK    5  A    between atoms: C_15  and  N_16
REMARK    6  A    between atoms: C_19  and  O_20
REMARK                            x       y       z     vdW  Elec       q    Type
REMARK                         _______ _______ _______ _____ _____    ______ ____
ROOT
ATOM      1  C   UNL     1      48.088   6.709  13.325  0.00  0.00    +0.000 A 
ATOM      2  C   UNL     1      49.125   7.631  13.274  0.00  0.00    +0.000 A 
ATOM      3  N   UNL     1      49.974   7.831  14.301  0.00  0.00    +0.000 NA
ATOM      4  C   UNL     1      49.741   7.049  15.382  0.00  0.00    +0.000 A 
ATOM      5  C   UNL     1      48.709   6.107  15.477  0.00  0.00    +0.000 A 
ATOM      6  N   UNL     1      47.878   5.935  14.424  0.00  0.00    +0.000 NA
ENDROOT
BRANCH   5   7
ATOM      7  N   UNL     1      48.480   5.391  16.631  0.00  0.00    +0.000 N 
ATOM      8  C   UNL     1      47.420   4.395  16.656  0.00  0.00    +0.000 C 
ATOM      9  C   UNL     1      48.020   3.008  16.864  0.00  0.00    +0.000 C 
ATOM     10  C   UNL     1      48.992   2.967  18.046  0.00  0.00    +0.000 C 
ATOM     11  C   UNL     1      50.039   4.080  17.979  0.00  0.00    +0.000 C 
ATOM     12  C   UNL     1      49.401   5.447  17.756  0.00  0.00    +0.000 C 
BRANCH  10  13
ATOM     13  O   UNL     1      48.287   3.021  19.286  0.00  0.00    +0.000 OA
ATOM     14  H   UNL     1      48.563   2.275  19.842  0.00  0.00    +0.000 HD
ENDBRANCH  10  13
ENDBRANCH   5   7
BRANCH   1  15
ATOM     15  C   UNL     1      47.110   6.611  12.186  0.00  0.00    +0.000 C 
BRANCH  15  16
ATOM     16  O   UNL     1      45.790   6.409  12.689  0.00  0.00    +0.000 OA
BRANCH  16  21
ATOM     17  C   UNL     1      44.448   3.569  10.722  0.00  0.00    +0.000 A 
ATOM     18  C   UNL     1      43.668   3.024  11.731  0.00  0.00    +0.000 A 
ATOM     19  N   UNL     1      43.607   3.534  12.985  0.00  0.00    +0.000 NA
ATOM     20  C   UNL     1      44.339   4.650  13.219  0.00  0.00    +0.000 A 
ATOM     21  C   UNL     1      45.138   5.283  12.271  0.00  0.00    +0.000 A 
ATOM     22  C   UNL     1      45.192   4.722  10.996  0.00  0.00    +0.000 A 
BRANCH  17  24
ATOM     23  N   UNL     1      44.268   3.785   8.309  0.00  0.00    +0.000 N 
ATOM     24  C   UNL     1      44.426   2.945   9.383  0.00  0.00    +0.000 C 
ATOM     25  O   UNL     1      44.563   1.746   9.236  0.00  0.00    +0.000 OA
ATOM     26  H   UNL     1      44.340   3.354   7.397  0.00  0.00    +0.000 HD
ATOM     27  H   UNL     1      44.417   4.781   8.368  0.00  0.00    +0.000 HD
ENDBRANCH  17  24
ENDBRANCH  16  21
ENDBRANCH  15  16
ENDBRANCH   1  15
TORSDOF 6
ENDMDL
MODEL 4
REMARK VINA RESULT:    -7.113      1.357      2.198
REMARK INTER + INTRA:          -9.862
REMARK INTER:                  -9.787
REMARK INTRA:                  -0.075
REMARK UNBOUND:                -0.463
REMARK  Name = 
REMARK  6 active torsions:
REMARK  status: ('A' for Active; 'I' for Inactive)
REMARK    1  A    between atoms: C_2  and  C_4
REMARK    2  A    between atoms: C_8  and  O_9
REMARK    3  A    between atoms: O_9  and  C_10
REMARK    4  A    between atoms: C_10  and  C_11
REMARK    5  A    between atoms: C_15  and  N_16
REMARK    6  A    between atoms: C_19  and  O_20
REMARK                            x       y       z     vdW  Elec       q    Type
REMARK                         _______ _______ _______ _____ _____    ______ ____
ROOT
ATOM      1  C   UNL     1      44.166   4.588  11.645  0.00  0.00    +0.000 A 
ATOM      2  C   UNL     1      43.007   5.345  11.533  0.00  0.00    +0.000 A 
ATOM      3  N   UNL     1      43.001   6.689  11.634  0.00  0.00    +0.000 NA
ATOM      4  C   UNL     1      44.221   7.241  11.840  0.00  0.00    +0.000 A 
ATOM      5  C   UNL     1      45.414   6.518  11.958  0.00  0.00    +0.000 A 
ATOM      6  N   UNL     1      45.378   5.170  11.850  0.00  0.00    +0.000 NA
ENDROOT
BRANCH   5   7
ATOM      7  N   UNL     1      46.614   7.133  12.238  0.00  0.00    +0.000 N 
ATOM      8  C   UNL     1      46.633   8.554  12.550  0.00  0.00    +0.000 C 
ATOM      9  C   UNL     1      47.104   8.761  13.986  0.00  0.00    +0.000 C 
ATOM     10  C   UNL     1      48.399   8.002  14.288  0.00  0.00    +0.000 C 
ATOM     11  C   UNL     1      48.321   6.530  13.878  0.00  0.00    +0.000 C 
ATOM     12  C   UNL     1      47.833   6.366  12.442  0.00  0.00    +0.000 C 
BRANCH  10  13
ATOM     13  O   UNL     1      49.516   8.634  13.662  0.00  0.00    +0.000 OA
ATOM     14  H   UNL     1      49.646   9.512  14.054  0.00  0.00    +0.000 HD
ENDBRANCH  10  13
ENDBRANCH   5   7
BRANCH   1  15
ATOM     15  C   UNL     1      44.089   3.085  11.631  0.00  0.00    +0.000 C 
BRANCH  15  16
ATOM     16  O   UNL     1      43.675   2.627  10.345  0.00  0.00    +0.000 OA
BRANCH  16  21
ATOM     17  C   UNL     1      46.307   2.216   7.768  0.00  0.00    +0.000 A 
ATOM     18  C   UNL     1      46.230   3.500   7.249  0.00  0.00    +0.000 A 
ATOM     19  N   UNL     1      45.353   4.433   7.691  0.00  0.00    +0.000 NA
ATOM     20  C   UNL     1      44.543   4.064   8.713  0.00  0.00    +0.000 A 
ATOM     21  C   UNL     1      44.555   2.808   9.315  0.00  0.00    +0.000 A 
ATOM     22  C   UNL     1      45.457   1.867   8.824  0.00  0.00    +0.000 A 
BRANCH  17  24
ATOM     23  N   UNL     1      48.489   1.832   6.773  0.00  0.00    +0.000 N 
ATOM     24  C   UNL     1      47.315   1.283   7.225  0.00  0.00    +0.000 C 
ATOM     25  O   UNL     1      47.124   0.082   7.199  0.00  0.00    +0.000 OA
ATOM     26  H   UNL     1      49.202   1.175   6.484  0.00  0.00    +0.000 HD
ATOM     27  H   UNL     1      48.786   2.764   7.017  0.00  0.00    +0.000 HD
ENDBRANCH  17  24
ENDBRANCH  16  21
ENDBRANCH  15  16
ENDBRANCH   1  15
TORSDOF 6
ENDMDL
MODEL 5
REMARK VINA RESULT:    -6.985      3.290      7.781
REMARK INTER + INTRA:          -9.693
REMARK INTER:                  -8.930
REMARK INTRA:                  -0.764
REMARK UNBOUND:                -0.463
REMARK  Name = 
REMARK  6 active torsions:
REMARK  status: ('A' for Active; 'I' for Inactive)
REMARK    1  A    between atoms: C_2  and  C_4
REMARK    2  A    between atoms: C_8  and  O_9
REMARK    3  A    between atoms: O_9  and  C_10
REMARK    4  A    between atoms: C_10  and  C_11
REMARK    5  A    between atoms: C_15  and  N_16
REMARK    6  A    between atoms: C_19  and  O_20
REMARK                            x       y       z     vdW  Elec       q    Type
REMARK                         _______ _______ _______ _____ _____    ______ ____
ROOT
ATOM      1  C   UNL     1      47.419   7.567  13.245  0.00  0.00    +0.000 A 
ATOM      2  C   UNL     1      47.057   8.819  12.765  0.00  0.00    +0.000 A 
ATOM      3  N   UNL     1      45.869   9.060  12.179  0.00  0.00    +0.000 NA
ATOM      4  C   UNL     1      45.050   7.983  12.107  0.00  0.00    +0.000 A 
ATOM      5  C   UNL     1      45.373   6.703  12.577  0.00  0.00    +0.000 A 
ATOM      6  N   UNL     1      46.576   6.503  13.161  0.00  0.00    +0.000 NA
ENDROOT
BRANCH   5   7
ATOM      7  N   UNL     1      44.524   5.631  12.411  0.00  0.00    +0.000 N 
ATOM      8  C   UNL     1      43.528   5.665  11.351  0.00  0.00    +0.000 C 
ATOM      9  C   UNL     1      43.821   4.570  10.332  0.00  0.00    +0.000 C 
ATOM     10  C   UNL     1      44.037   3.205  10.991  0.00  0.00    +0.000 C 
ATOM     11  C   UNL     1      45.053   3.264  12.133  0.00  0.00    +0.000 C 
ATOM     12  C   UNL     1      44.733   4.379  13.122  0.00  0.00    +0.000 C 
BRANCH  10  13
ATOM     13  O   UNL     1      42.800   2.663  11.453  0.00  0.00    +0.000 OA
ATOM     14  H   UNL     1      42.067   3.116  11.007  0.00  0.00    +0.000 HD
ENDBRANCH  10  13
ENDBRANCH   5   7
BRANCH   1  15
ATOM     15  C   UNL     1      48.803   7.340  13.791  0.00  0.00    +0.000 C 
BRANCH  15  16
ATOM     16  O   UNL     1      48.809   7.530  15.205  0.00  0.00    +0.000 OA
BRANCH  16  21
ATOM     17  C   UNL     1      48.693   4.441  17.250  0.00  0.00    +0.000 A 
ATOM     18  C   UNL     1      50.051   4.376  17.527  0.00  0.00    +0.000 A 
ATOM     19  N   UNL     1      50.953   5.268  17.050  0.00  0.00    +0.000 NA
ATOM     20  C   UNL     1      50.462   6.276  16.290  0.00  0.00    +0.000 A 
ATOM     21  C   UNL     1      49.116   6.441  15.971  0.00  0.00    +0.000 A 
ATOM     22  C   UNL     1      48.217   5.496  16.462  0.00  0.00    +0.000 A 
BRANCH  17  24
ATOM     23  N   UNL     1      48.198   2.844  19.012  0.00  0.00    +0.000 N 
ATOM     24  C   UNL     1      47.793   3.428  17.837  0.00  0.00    +0.000 C 
ATOM     25  O   UNL     1      46.732   3.139  17.318  0.00  0.00    +0.000 OA
ATOM     26  H   UNL     1      47.534   2.217  19.446  0.00  0.00    +0.000 HD
ATOM     27  H   UNL     1      48.919   3.238  19.597  0.00  0.00    +0.000 HD
ENDBRANCH  17  24
ENDBRANCH  16  21
ENDBRANCH  15  16
ENDBRANCH   1  15
TORSDOF 6
ENDMDL
MODEL 6
REMARK VINA RESULT:    -6.640      3.902      6.642
REMARK INTER + INTRA:          -9.238
REMARK INTER:                  -8.588
REMARK INTRA:                  -0.650
REMARK UNBOUND:                -0.463
REMARK  Name = 
REMARK  6 active torsions:
REMARK  status: ('A' for Active; 'I' for Inactive)
REMARK    1  A    between atoms: C_2  and  C_4
REMARK    2  A    between atoms: C_8  and  O_9
REMARK    3  A    between atoms: O_9  and  C_10
REMARK    4  A    between atoms: C_10  and  C_11
REMARK    5  A    between atoms: C_15  and  N_16
REMARK    6  A    between atoms: C_19  and  O_20
REMARK                            x       y       z     vdW  Elec       q    Type
REMARK                         _______ _______ _______ _____ _____    ______ ____
ROOT
ATOM      1  C   UNL     1      49.159   7.347  14.193  0.00  0.00    +0.000 A 
ATOM      2  C   UNL     1      50.419   7.925  14.119  0.00  0.00    +0.000 A 
ATOM      3  N   UNL     1      51.371   7.722  15.051  0.00  0.00    +0.000 NA
ATOM      4  C   UNL     1      51.001   6.896  16.059  0.00  0.00    +0.000 A 
ATOM      5  C   UNL     1      49.743   6.292  16.174  0.00  0.00    +0.000 A 
ATOM      6  N   UNL     1      48.815   6.520  15.216  0.00  0.00    +0.000 NA
ENDROOT
BRANCH   5   7
ATOM      7  N   UNL     1      49.403   5.518  17.261  0.00  0.00    +0.000 N 
ATOM      8  C   UNL     1      48.024   5.501  17.724  0.00  0.00    +0.000 C 
ATOM      9  C   UNL     1      47.438   4.103  17.553  0.00  0.00    +0.000 C 
ATOM     10  C   UNL     1      48.344   3.019  18.140  0.00  0.00    +0.000 C 
ATOM     11  C   UNL     1      49.790   3.139  17.653  0.00  0.00    +0.000 C 
ATOM     12  C   UNL     1      50.332   4.553  17.828  0.00  0.00    +0.000 C 
BRANCH  10  13
ATOM     13  O   UNL     1      48.298   3.035  19.567  0.00  0.00    +0.000 OA
ATOM     14  H   UNL     1      47.391   3.226  19.854  0.00  0.00    +0.000 HD
ENDBRANCH  10  13
ENDBRANCH   5   7
BRANCH   1  15
ATOM     15  C   UNL     1      48.107   7.701  13.177  0.00  0.00    +0.000 C 
BRANCH  15  16
ATOM     16  O   UNL     1      47.877   6.597  12.303  0.00  0.00    +0.000 OA
BRANCH  16  21
ATOM     17  C   UNL     1      44.301   5.673  12.010  0.00  0.00    +0.000 A 
ATOM     18  C   UNL     1      44.358   4.538  12.807  0.00  0.00    +0.000 A 
ATOM     19  N   UNL     1      45.499   4.086  13.380  0.00  0.00    +0.000 NA
ATOM     20  C   UNL     1      46.617   4.821  13.162  0.00  0.00    +0.000 A 
ATOM     21  C   UNL     1      46.660   5.982  12.394  0.00  0.00    +0.000 A 
ATOM     22  C   UNL     1      45.472   6.410  11.805  0.00  0.00    +0.000 A 
BRANCH  17  24
ATOM     23  N   UNL     1      42.873   7.406  11.084  0.00  0.00    +0.000 N 
ATOM     24  C   UNL     1      42.999   6.089  11.450  0.00  0.00    +0.000 C 
ATOM     25  O   UNL     1      42.087   5.299  11.298  0.00  0.00    +0.000 OA
ATOM     26  H   UNL     1      42.008   7.657  10.625  0.00  0.00    +0.000 HD
ATOM     27  H   UNL     1      43.667   8.014  10.947  0.00  0.00    +0.000 HD
ENDBRANCH  17  24
ENDBRANCH  16  21
ENDBRANCH  15  16
ENDBRANCH   1  15
TORSDOF 6
ENDMDL
MODEL 7
REMARK VINA RESULT:    -6.610      1.765      2.291
REMARK INTER + INTRA:          -9.198
REMARK INTER:                  -8.463
REMARK INTRA:                  -0.735
REMARK UNBOUND:                -0.463
REMARK  Name = 
REMARK  6 active torsions:
REMARK  status: ('A' for Active; 'I' for Inactive)
REMARK    1  A    between atoms: C_2  and  C_4
REMARK    2  A    between atoms: C_8  and  O_9
REMARK    3  A    between atoms: O_9  and  C_10
REMARK    4  A    between atoms: C_10  and  C_11
REMARK    5  A    between atoms: C_15  and  N_16
REMARK    6  A    between atoms: C_19  and  O_20
REMARK                            x       y       z     vdW  Elec       q    Type
REMARK                         _______ _______ _______ _____ _____    ______ ____
ROOT
ATOM      1  C   UNL     1      45.036   5.555  12.979  0.00  0.00    +0.000 A 
ATOM      2  C   UNL     1      45.540   4.470  13.683  0.00  0.00    +0.000 A 
ATOM      3  N   UNL     1      46.792   4.440  14.178  0.00  0.00    +0.000 NA
ATOM      4  C   UNL     1      47.515   5.562  13.943  0.00  0.00    +0.000 A 
ATOM      5  C   UNL     1      47.047   6.678  13.239  0.00  0.00    +0.000 A 
ATOM      6  N   UNL     1      45.783   6.669  12.759  0.00  0.00    +0.000 NA
ENDROOT
BRANCH   5   7
ATOM      7  N   UNL     1      47.855   7.761  12.972  0.00  0.00    +0.000 N 
ATOM      8  C   UNL     1      48.338   8.581  14.072  0.00  0.00    +0.000 C 
ATOM      9  C   UNL     1      49.857   8.482  14.163  0.00  0.00    +0.000 C 
ATOM     10  C   UNL     1      50.537   8.723  12.813  0.00  0.00    +0.000 C 
ATOM     11  C   UNL     1      49.935   7.868  11.696  0.00  0.00    +0.000 C 
ATOM     12  C   UNL     1      48.415   7.985  11.648  0.00  0.00    +0.000 C 
BRANCH  10  13
ATOM     13  O   UNL     1      50.490  10.106  12.460  0.00  0.00    +0.000 OA
ATOM     14  H   UNL     1      49.639  10.297  12.034  0.00  0.00    +0.000 HD
ENDBRANCH  10  13
ENDBRANCH   5   7
BRANCH   1  15
ATOM     15  C   UNL     1      43.666   5.480  12.360  0.00  0.00    +0.000 C 
BRANCH  15  16
ATOM     16  O   UNL     1      43.760   5.618  10.943  0.00  0.00    +0.000 OA
BRANCH  16  21
ATOM     17  C   UNL     1      45.522   3.363   8.588  0.00  0.00    +0.000 A 
ATOM     18  C   UNL     1      44.937   2.183   9.022  0.00  0.00    +0.000 A 
ATOM     19  N   UNL     1      44.046   2.122  10.041  0.00  0.00    +0.000 NA
ATOM     20  C   UNL     1      43.713   3.299  10.623  0.00  0.00    +0.000 A 
ATOM     21  C   UNL     1      44.228   4.538  10.249  0.00  0.00    +0.000 A 
ATOM     22  C   UNL     1      45.156   4.562   9.209  0.00  0.00    +0.000 A 
BRANCH  17  24
ATOM     23  N   UNL     1      46.813   2.078   6.982  0.00  0.00    +0.000 N 
ATOM     24  C   UNL     1      46.468   3.319   7.454  0.00  0.00    +0.000 C 
ATOM     25  O   UNL     1      46.904   4.335   6.947  0.00  0.00    +0.000 OA
ATOM     26  H   UNL     1      47.392   2.065   6.153  0.00  0.00    +0.000 HD
ATOM     27  H   UNL     1      46.282   1.246   7.192  0.00  0.00    +0.000 HD
ENDBRANCH  17  24
ENDBRANCH  16  21
ENDBRANCH  15  16
ENDBRANCH   1  15
TORSDOF 6
ENDMDL
MODEL 8
REMARK VINA RESULT:    -6.435      3.901      5.328
REMARK INTER + INTRA:          -8.967
REMARK INTER:                  -8.503
REMARK INTRA:                  -0.464
REMARK UNBOUND:                -0.463
REMARK  Name = 
REMARK  6 active torsions:
REMARK  status: ('A' for Active; 'I' for Inactive)
REMARK    1  A    between atoms: C_2  and  C_4
REMARK    2  A    between atoms: C_8  and  O_9
REMARK    3  A    between atoms: O_9  and  C_10
REMARK    4  A    between atoms: C_10  and  C_11
REMARK    5  A    between atoms: C_15  and  N_16
REMARK    6  A    between atoms: C_19  and  O_20
REMARK                            x       y       z     vdW  Elec       q    Type
REMARK                         _______ _______ _______ _____ _____    ______ ____
ROOT
ATOM      1  C   UNL     1      47.525   5.515  14.164  0.00  0.00    +0.000 A 
ATOM      2  C   UNL     1      47.131   4.189  14.041  0.00  0.00    +0.000 A 
ATOM      3  N   UNL     1      47.270   3.292  15.036  0.00  0.00    +0.000 NA
ATOM      4  C   UNL     1      47.812   3.793  16.172  0.00  0.00    +0.000 A 
ATOM      5  C   UNL     1      48.222   5.121  16.340  0.00  0.00    +0.000 A 
ATOM      6  N   UNL     1      48.065   5.992  15.317  0.00  0.00    +0.000 NA
ENDROOT
BRANCH   5   7
ATOM      7  N   UNL     1      48.833   5.554  17.497  0.00  0.00    +0.000 N 
ATOM      8  C   UNL     1      48.115   5.467  18.759  0.00  0.00    +0.000 C 
ATOM      9  C   UNL     1      48.828   4.494  19.693  0.00  0.00    +0.000 C 
ATOM     10  C   UNL     1      50.326   4.789  19.805  0.00  0.00    +0.000 C 
ATOM     11  C   UNL     1      50.997   4.924  18.437  0.00  0.00    +0.000 C 
ATOM     12  C   UNL     1      50.247   5.893  17.530  0.00  0.00    +0.000 C 
BRANCH  10  13
ATOM     13  O   UNL     1      50.556   5.959  20.590  0.00  0.00    +0.000 OA
ATOM     14  H   UNL     1      51.446   5.915  20.974  0.00  0.00    +0.000 HD
ENDBRANCH  10  13
ENDBRANCH   5   7
BRANCH   1  15
ATOM     15  C   UNL     1      47.443   6.439  12.979  0.00  0.00    +0.000 C 
BRANCH  15  16
ATOM     16  O   UNL     1      46.093   6.856  12.774  0.00  0.00    +0.000 OA
BRANCH  16  21
ATOM     17  C   UNL     1      44.787   4.791   9.988  0.00  0.00    +0.000 A 
ATOM     18  C   UNL     1      43.526   4.571  10.524  0.00  0.00    +0.000 A 
ATOM     19  N   UNL     1      43.137   5.041  11.733  0.00  0.00    +0.000 NA
ATOM     20  C   UNL     1      44.044   5.783  12.413  0.00  0.00    +0.000 A 
ATOM     21  C   UNL     1      45.326   6.077  11.955  0.00  0.00    +0.000 A 
ATOM     22  C   UNL     1      45.701   5.562  10.715  0.00  0.00    +0.000 A 
BRANCH  17  24
ATOM     23  N   UNL     1      44.286   3.252   8.177  0.00  0.00    +0.000 N 
ATOM     24  C   UNL     1      45.102   4.249   8.650  0.00  0.00    +0.000 C 
ATOM     25  O   UNL     1      46.027   4.679   7.989  0.00  0.00    +0.000 OA
ATOM     26  H   UNL     1      44.461   2.951   7.228  0.00  0.00    +0.000 HD
ATOM     27  H   UNL     1      43.376   3.059   8.567  0.00  0.00    +0.000 HD
ENDBRANCH  17  24
ENDBRANCH  16  21
ENDBRANCH  15  16
ENDBRANCH   1  15
TORSDOF 6
ENDMDL
MODEL 9
REMARK VINA RESULT:    -6.034      4.121      5.694
REMARK INTER + INTRA:          -8.437
REMARK INTER:                  -7.746
REMARK INTRA:                  -0.691
REMARK UNBOUND:                -0.463
REMARK  Name = 
REMARK  6 active torsions:
REMARK  status: ('A' for Active; 'I' for Inactive)
REMARK    1  A    between atoms: C_2  and  C_4
REMARK    2  A    between atoms: C_8  and  O_9
REMARK    3  A    between atoms: O_9  and  C_10
REMARK    4  A    between atoms: C_10  and  C_11
REMARK    5  A    between atoms: C_15  and  N_16
REMARK    6  A    between atoms: C_19  and  O_20
REMARK                            x       y       z     vdW  Elec       q    Type
REMARK                         _______ _______ _______ _____ _____    ______ ____
ROOT
ATOM      1  C   UNL     1      47.728   3.933  15.994  0.00  0.00    +0.000 A 
ATOM      2  C   UNL     1      48.120   2.873  16.800  0.00  0.00    +0.000 A 
ATOM      3  N   UNL     1      48.740   3.047  17.983  0.00  0.00    +0.000 NA
ATOM      4  C   UNL     1      48.939   4.342  18.327  0.00  0.00    +0.000 A 
ATOM      5  C   UNL     1      48.560   5.442  17.547  0.00  0.00    +0.000 A 
ATOM      6  N   UNL     1      47.937   5.225  16.366  0.00  0.00    +0.000 NA
ENDROOT
BRANCH   5   7
ATOM      7  N   UNL     1      48.853   6.735  17.920  0.00  0.00    +0.000 N 
ATOM      8  C   UNL     1      49.427   7.647  16.943  0.00  0.00    +0.000 C 
ATOM      9  C   UNL     1      48.456   8.792  16.672  0.00  0.00    +0.000 C 
ATOM     10  C   UNL     1      47.948   9.440  17.962  0.00  0.00    +0.000 C 
ATOM     11  C   UNL     1      47.415   8.412  18.962  0.00  0.00    +0.000 C 
ATOM     12  C   UNL     1      48.409   7.278  19.194  0.00  0.00    +0.000 C 
BRANCH  10  13
ATOM     13  O   UNL     1      48.968  10.238  18.566  0.00  0.00    +0.000 OA
ATOM     14  H   UNL     1      48.601  11.107  18.790  0.00  0.00    +0.000 HD
ENDBRANCH  10  13
ENDBRANCH   5   7
BRANCH   1  15
ATOM     15  C   UNL     1      47.137   3.669  14.635  0.00  0.00    +0.000 C 
BRANCH  15  16
ATOM     16  O   UNL     1      47.550   4.679  13.716  0.00  0.00    +0.000 OA
BRANCH  16  21
ATOM     17  C   UNL     1      44.394   5.618  12.016  0.00  0.00    +0.000 A 
ATOM     18  C   UNL     1      44.809   6.866  11.576  0.00  0.00    +0.000 A 
ATOM     19  N   UNL     1      46.033   7.383  11.843  0.00  0.00    +0.000 NA
ATOM     20  C   UNL     1      46.876   6.598  12.557  0.00  0.00    +0.000 A 
ATOM     21  C   UNL     1      46.562   5.326  13.028  0.00  0.00    +0.000 A 
ATOM     22  C   UNL     1      45.289   4.832  12.750  0.00  0.00    +0.000 A 
BRANCH  17  24
ATOM     23  N   UNL     1      42.022   6.055  11.729  0.00  0.00    +0.000 N 
ATOM     24  C   UNL     1      43.044   5.142  11.650  0.00  0.00    +0.000 C 
ATOM     25  O   UNL     1      42.849   4.002  11.276  0.00  0.00    +0.000 OA
ATOM     26  H   UNL     1      41.121   5.740  11.395  0.00  0.00    +0.000 HD
ATOM     27  H   UNL     1      42.180   7.051  11.775  0.00  0.00    +0.000 HD
ENDBRANCH  17  24
ENDBRANCH  16  21
ENDBRANCH  15  16
ENDBRANCH   1  15
TORSDOF 6
ENDMDL
