MODEL 1
REMARK VINA RESULT:    -8.847      0.000      0.000
REMARK INTER + INTRA:         -13.139
REMARK INTER:                 -12.209
REMARK INTRA:                  -0.930
REMARK UNBOUND:                -0.930
REMARK  Name = 
REMARK  9 active torsions:
REMARK  status: ('A' for Active; 'I' for Inactive)
REMARK    1  A    between atoms: C_1  and  C_2
REMARK    2  A    between atoms: C_2  and  C_3
REMARK    3  A    between atoms: C_2  and  C_14
REMARK    4  A    between atoms: C_3  and  N_4
REMARK    5  A    between atoms: C_8  and  C_9
REMARK    6  A    between atoms: C_18  and  O_19
REMARK    7  A    between atoms: O_19  and  C_20
REMARK    8  A    between atoms: C_22  and  C_23
REMARK    9  A    between atoms: C_22  and  O_24
REMARK                            x       y       z     vdW  Elec       q    Type
REMARK                         _______ _______ _______ _____ _____    ______ ____
ROOT
ATOM      1  C   UNL     1      43.024   4.548  13.077  0.00  0.00    +0.000 C 
ATOM      2  C   UNL     1      43.755   5.554  12.174  0.00  0.00    +0.000 C 
ENDROOT
BRANCH   2   3
ATOM      3  C   UNL     1      45.228   5.698  12.574  0.00  0.00    +0.000 A 
ATOM      4  C   UNL     1      46.025   6.770  12.141  0.00  0.00    +0.000 A 
ATOM      5  C   UNL     1      47.342   6.925  12.572  0.00  0.00    +0.000 A 
ATOM      6  C   UNL     1      47.896   6.003  13.448  0.00  0.00    +0.000 A 
ATOM      7  C   UNL     1      47.121   4.944  13.916  0.00  0.00    +0.000 A 
ATOM      8  C   UNL     1      45.807   4.775  13.465  0.00  0.00    +0.000 A 
BRANCH   7   9
ATOM      9  O   UNL     1      47.571   4.046  14.855  0.00  0.00    +0.000 OA
BRANCH   9  10
ATOM     10  C   UNL     1      47.418   4.428  16.246  0.00  0.00    +0.000 C 
ATOM     11  C   UNL     1      47.177   3.290  17.269  0.00  0.00    +0.000 C 
ATOM     12  C   UNL     1      48.670   3.360  17.664  0.00  0.00    +0.000 C 
ATOM     13  C   UNL     1      49.544   2.305  16.997  0.00  0.00    +0.000 C 
ATOM     14  C   UNL     1      48.728   4.755  16.993  0.00  0.00    +0.000 C 
BRANCH  12  15
ATOM     15  O   UNL     1      48.929   3.345  19.085  0.00  0.00    +0.000 OA
ATOM     16  H   UNL     1      48.312   3.986  19.477  0.00  0.00    +0.000 HD
ENDBRANCH  12  15
ENDBRANCH   9  10
ENDBRANCH   7   9
ENDBRANCH   2   3
BRANCH   2  17
ATOM     17  C   UNL     1      43.512   5.148  10.695  0.00  0.00    +0.000 C 
BRANCH  17  18
ATOM     18  N   UNL     1      43.779   3.718  10.478  0.00  0.00    +0.000 N 
ATOM     19  C   UNL     1      44.749   3.413   9.519  0.00  0.00    +0.000 A 
ATOM     20  C   UNL     1      45.128   2.080   9.307  0.00  0.00    +0.000 A 
ATOM     21  N   UNL     1      46.002   1.678   8.347  0.00  0.00    +0.000 NA
ATOM     22  C   UNL     1      46.512   2.697   7.603  0.00  0.00    +0.000 A 
ATOM     23  C   UNL     1      46.183   4.022   7.825  0.00  0.00    +0.000 A 
ATOM     24  N   UNL     1      45.306   4.399   8.786  0.00  0.00    +0.000 NA
ATOM     25  H   UNL     1      42.932   3.194  10.284  0.00  0.00    +0.000 HD
BRANCH  22  26
ATOM     26  C   UNL     1      47.426   2.355   6.485  0.00  0.00    +0.000 C 
ATOM     27  N   UNL     1      47.306   3.115   5.355  0.00  0.00    +0.000 N 
ATOM     28  O   UNL     1      48.250   1.451   6.566  0.00  0.00    +0.000 OA
ATOM     29  H   UNL     1      46.629   3.869   5.318  0.00  0.00    +0.000 HD
ATOM     30  H   UNL     1      47.923   2.942   4.575  0.00  0.00    +0.000 HD
ENDBRANCH  22  26
ENDBRANCH  17  18
ENDBRANCH   2  17
TORSDOF 7
ENDMDL
MODEL 2
REMARK VINA RESULT:    -7.353      2.904      3.763
REMARK INTER + INTRA:         -11.078
REMARK INTER:                 -10.230
REMARK INTRA:                  -0.847
REMARK UNBOUND:                -0.930
REMARK  Name = 
REMARK  9 active torsions:
REMARK  status: ('A' for Active; 'I' for Inactive)
REMARK    1  A    between atoms: C_1  and  C_2
REMARK    2  A    between atoms: C_2  and  C_3
REMARK    3  A    between atoms: C_2  and  C_14
REMARK    4  A    between atoms: C_3  and  N_4
REMARK    5  A    between atoms: C_8  and  C_9
REMARK    6  A    between atoms: C_18  and  O_19
REMARK    7  A    between atoms: O_19  and  C_20
REMARK    8  A    between atoms: C_22  and  C_23
REMARK    9  A    between atoms: C_22  and  O_24
REMARK                            x       y       z     vdW  Elec       q    Type
REMARK                         _______ _______ _______ _____ _____    ______ ____
ROOT
ATOM      1  C   UNL     1      44.780   4.326  12.763  0.00  0.00    +0.000 C 
ATOM      2  C   UNL     1      43.959   5.470  12.147  0.00  0.00    +0.000 C 
ENDROOT
BRANCH   2   3
ATOM      3  C   UNL     1      44.742   6.787  12.153  0.00  0.00    +0.000 A 
ATOM      4  C   UNL     1      44.308   7.926  11.455  0.00  0.00    +0.000 A 
ATOM      5  C   UNL     1      44.993   9.137  11.529  0.00  0.00    +0.000 A 
ATOM      6  C   UNL     1      46.138   9.238  12.305  0.00  0.00    +0.000 A 
ATOM      7  C   UNL     1      46.579   8.133  13.031  0.00  0.00    +0.000 A 
ATOM      8  C   UNL     1      45.904   6.911  12.938  0.00  0.00    +0.000 A 
BRANCH   7   9
ATOM      9  O   UNL     1      47.649   8.182  13.893  0.00  0.00    +0.000 OA
BRANCH   9  10
ATOM     10  C   UNL     1      48.764   7.303  13.597  0.00  0.00    +0.000 C 
ATOM     11  C   UNL     1      49.147   7.125  12.106  0.00  0.00    +0.000 C 
ATOM     12  C   UNL     1      50.305   8.130  12.307  0.00  0.00    +0.000 C 
ATOM     13  C   UNL     1      49.988   9.548  11.850  0.00  0.00    +0.000 C 
ATOM     14  C   UNL     1      50.166   7.904  13.834  0.00  0.00    +0.000 C 
BRANCH  12  15
ATOM     15  O   UNL     1      51.569   7.729  11.735  0.00  0.00    +0.000 OA
ATOM     16  H   UNL     1      52.242   8.293  12.151  0.00  0.00    +0.000 HD
ENDBRANCH  12  15
ENDBRANCH   9  10
ENDBRANCH   7   9
ENDBRANCH   2   3
BRANCH   2  17
ATOM     17  C   UNL     1      43.454   5.012  10.752  0.00  0.00    +0.000 C 
BRANCH  17  18
ATOM     18  N   UNL     1      43.752   3.592  10.510  0.00  0.00    +0.000 N 
ATOM     19  C   UNL     1      44.710   3.324   9.528  0.00  0.00    +0.000 A 
ATOM     20  C   UNL     1      45.117   2.003   9.291  0.00  0.00    +0.000 A 
ATOM     21  N   UNL     1      45.981   1.635   8.308  0.00  0.00    +0.000 NA
ATOM     22  C   UNL     1      46.450   2.677   7.567  0.00  0.00    +0.000 A 
ATOM     23  C   UNL     1      46.093   3.990   7.813  0.00  0.00    +0.000 A 
ATOM     24  N   UNL     1      45.226   4.332   8.797  0.00  0.00    +0.000 NA
ATOM     25  H   UNL     1      42.915   3.048  10.326  0.00  0.00    +0.000 HD
BRANCH  22  26
ATOM     26  C   UNL     1      47.349   2.373   6.426  0.00  0.00    +0.000 C 
ATOM     27  N   UNL     1      47.294   3.237   5.369  0.00  0.00    +0.000 N 
ATOM     28  O   UNL     1      48.106   1.409   6.429  0.00  0.00    +0.000 OA
ATOM     29  H   UNL     1      46.672   4.037   5.398  0.00  0.00    +0.000 HD
ATOM     30  H   UNL     1      47.905   3.092   4.579  0.00  0.00    +0.000 HD
ENDBRANCH  22  26
ENDBRANCH  17  18
ENDBRANCH   2  17
TORSDOF 7
ENDMDL
MODEL 3
REMARK VINA RESULT:    -7.173      1.555      2.106
REMARK INTER + INTRA:         -10.829
REMARK INTER:                  -9.905
REMARK INTRA:                  -0.924
REMARK UNBOUND:                -0.930
REMARK  Name = 
REMARK  9 active torsions:
REMARK  status: ('A' for Active; 'I' for Inactive)
REMARK    1  A    between atoms: C_1  and  C_2
REMARK    2  A    between atoms: C_2  and  C_3
REMARK    3  A    between atoms: C_2  and  C_14
REMARK    4  A    between atoms: C_3  and  N_4
REMARK    5  A    between atoms: C_8  and  C_9
REMARK    6  A    between atoms: C_18  and  O_19
REMARK    7  A    between atoms: O_19  and  C_20
REMARK    8  A    between atoms: C_22  and  C_23
REMARK    9  A    between atoms: C_22  and  O_24
REMARK                            x       y       z     vdW  Elec       q    Type
REMARK                         _______ _______ _______ _____ _____    ______ ____
ROOT
ATOM      1  C   UNL     1      44.698   4.323  13.075  0.00  0.00    +0.000 C 
ATOM      2  C   UNL     1      44.399   5.647  12.353  0.00  0.00    +0.000 C 
ENDROOT
BRANCH   2   3
ATOM      3  C   UNL     1      45.613   6.583  12.377  0.00  0.00    +0.000 A 
ATOM      4  C   UNL     1      45.552   7.908  11.916  0.00  0.00    +0.000 A 
ATOM      5  C   UNL     1      46.644   8.769  12.011  0.00  0.00    +0.000 A 
ATOM      6  C   UNL     1      47.832   8.319  12.569  0.00  0.00    +0.000 A 
ATOM      7  C   UNL     1      47.915   7.017  13.060  0.00  0.00    +0.000 A 
ATOM      8  C   UNL     1      46.825   6.147  12.943  0.00  0.00    +0.000 A 
BRANCH   7   9
ATOM      9  O   UNL     1      49.026   6.531  13.709  0.00  0.00    +0.000 OA
BRANCH   9  10
ATOM     10  C   UNL     1      49.542   7.332  14.802  0.00  0.00    +0.000 C 
ATOM     11  C   UNL     1      48.565   7.666  15.957  0.00  0.00    +0.000 C 
ATOM     12  C   UNL     1      49.208   6.539  16.797  0.00  0.00    +0.000 C 
ATOM     13  C   UNL     1      48.430   5.229  16.784  0.00  0.00    +0.000 C 
ATOM     14  C   UNL     1      50.414   6.574  15.826  0.00  0.00    +0.000 C 
BRANCH  12  15
ATOM     15  O   UNL     1      49.504   6.888  18.166  0.00  0.00    +0.000 OA
ATOM     16  H   UNL     1      48.657   7.149  18.566  0.00  0.00    +0.000 HD
ENDBRANCH  12  15
ENDBRANCH   9  10
ENDBRANCH   7   9
ENDBRANCH   2   3
BRANCH   2  17
ATOM     17  C   UNL     1      43.850   5.319  10.939  0.00  0.00    +0.000 C 
BRANCH  17  18
ATOM     18  N   UNL     1      43.948   3.881  10.642  0.00  0.00    +0.000 N 
ATOM     19  C   UNL     1      44.840   3.522   9.628  0.00  0.00    +0.000 A 
ATOM     20  C   UNL     1      45.060   2.169   9.337  0.00  0.00    +0.000 A 
ATOM     21  N   UNL     1      45.846   1.724   8.321  0.00  0.00    +0.000 NA
ATOM     22  C   UNL     1      46.436   2.719   7.603  0.00  0.00    +0.000 A 
ATOM     23  C   UNL     1      46.265   4.058   7.902  0.00  0.00    +0.000 A 
ATOM     24  N   UNL     1      45.473   4.478   8.918  0.00  0.00    +0.000 NA
ATOM     25  H   UNL     1      43.041   3.462  10.462  0.00  0.00    +0.000 HD
BRANCH  22  26
ATOM     26  C   UNL     1      47.261   2.338   6.430  0.00  0.00    +0.000 C 
ATOM     27  N   UNL     1      47.178   3.161   5.342  0.00  0.00    +0.000 N 
ATOM     28  O   UNL     1      47.986   1.349   6.434  0.00  0.00    +0.000 OA
ATOM     29  H   UNL     1      46.584   3.982   5.370  0.00  0.00    +0.000 HD
ATOM     30  H   UNL     1      47.740   2.963   4.527  0.00  0.00    +0.000 HD
ENDBRANCH  22  26
ENDBRANCH  17  18
ENDBRANCH   2  17
TORSDOF 7
ENDMDL
MODEL 4
REMARK VINA RESULT:    -7.145      3.982      7.776
REMARK INTER + INTRA:         -10.791
REMARK INTER:                  -9.733
REMARK INTRA:                  -1.057
REMARK UNBOUND:                -0.930
REMARK  Name = 
REMARK  9 active torsions:
REMARK  status: ('A' for Active; 'I' for Inactive)
REMARK    1  A    between atoms: C_1  and  C_2
REMARK    2  A    between atoms: C_2  and  C_3
REMARK    3  A    between atoms: C_2  and  C_14
REMARK    4  A    between atoms: C_3  and  N_4
REMARK    5  A    between atoms: C_8  and  C_9
REMARK    6  A    between atoms: C_18  and  O_19
REMARK    7  A    between atoms: O_19  and  C_20
REMARK    8  A    between atoms: C_22  and  C_23
REMARK    9  A    between atoms: C_22  and  O_24
REMARK                            x       y       z     vdW  Elec       q    Type
REMARK                         _______ _______ _______ _____ _____    ______ ____
ROOT
ATOM      1  C   UNL     1      49.289   9.668  11.615  0.00  0.00    +0.000 C 
ATOM      2  C   UNL     1      48.498   8.983  12.740  0.00  0.00    +0.000 C 
ENDROOT
BRANCH   2   3
ATOM      3  C   UNL     1      47.064   8.665  12.302  0.00  0.00    +0.000 A 
ATOM      4  C   UNL     1      46.085   9.661  12.145  0.00  0.00    +0.000 A 
ATOM      5  C   UNL     1      44.807   9.365  11.677  0.00  0.00    +0.000 A 
ATOM      6  C   UNL     1      44.473   8.058  11.356  0.00  0.00    +0.000 A 
ATOM      7  C   UNL     1      45.430   7.052  11.476  0.00  0.00    +0.000 A 
ATOM      8  C   UNL     1      46.706   7.345  11.968  0.00  0.00    +0.000 A 
BRANCH   7   9
ATOM      9  O   UNL     1      45.202   5.752  11.090  0.00  0.00    +0.000 OA
BRANCH   9  10
ATOM     10  C   UNL     1      44.364   4.951  11.962  0.00  0.00    +0.000 C 
ATOM     11  C   UNL     1      43.078   4.346  11.347  0.00  0.00    +0.000 C 
ATOM     12  C   UNL     1      43.810   2.992  11.206  0.00  0.00    +0.000 C 
ATOM     13  C   UNL     1      44.365   2.722   9.813  0.00  0.00    +0.000 C 
ATOM     14  C   UNL     1      44.858   3.512  12.221  0.00  0.00    +0.000 C 
BRANCH  12  15
ATOM     15  O   UNL     1      43.052   1.839  11.634  0.00  0.00    +0.000 OA
ATOM     16  H   UNL     1      42.473   1.607  10.889  0.00  0.00    +0.000 HD
ENDBRANCH  12  15
ENDBRANCH   9  10
ENDBRANCH   7   9
ENDBRANCH   2   3
BRANCH   2  17
ATOM     17  C   UNL     1      49.318   7.762  13.239  0.00  0.00    +0.000 C 
BRANCH  17  18
ATOM     18  N   UNL     1      49.508   7.801  14.697  0.00  0.00    +0.000 N 
ATOM     19  C   UNL     1      49.027   6.699  15.409  0.00  0.00    +0.000 A 
ATOM     20  C   UNL     1      49.242   6.613  16.792  0.00  0.00    +0.000 A 
ATOM     21  N   UNL     1      48.747   5.623  17.581  0.00  0.00    +0.000 NA
ATOM     22  C   UNL     1      48.029   4.685  16.905  0.00  0.00    +0.000 A 
ATOM     23  C   UNL     1      47.843   4.730  15.535  0.00  0.00    +0.000 A 
ATOM     24  N   UNL     1      48.343   5.729  14.769  0.00  0.00    +0.000 NA
ATOM     25  H   UNL     1      49.148   8.656  15.110  0.00  0.00    +0.000 HD
BRANCH  22  26
ATOM     26  C   UNL     1      47.390   3.597  17.687  0.00  0.00    +0.000 C 
ATOM     27  N   UNL     1      48.028   3.229  18.839  0.00  0.00    +0.000 N 
ATOM     28  O   UNL     1      46.347   3.061  17.331  0.00  0.00    +0.000 OA
ATOM     29  H   UNL     1      48.881   3.699  19.121  0.00  0.00    +0.000 HD
ATOM     30  H   UNL     1      47.621   2.512  19.422  0.00  0.00    +0.000 HD
ENDBRANCH  22  26
ENDBRANCH  17  18
ENDBRANCH   2  17
TORSDOF 7
ENDMDL
MODEL 5
REMARK VINA RESULT:    -7.144      3.343      8.110
REMARK INTER + INTRA:         -10.789
REMARK INTER:                 -10.262
REMARK INTRA:                  -0.527
REMARK UNBOUND:                -0.930
REMARK  Name = 
REMARK  9 active torsions:
REMARK  status: ('A' for Active; 'I' for Inactive)
REMARK    1  A    between atoms: C_1  and  C_2
REMARK    2  A    between atoms: C_2  and  C_3
REMARK    3  A    between atoms: C_2  and  C_14
REMARK    4  A    between atoms: C_3  and  N_4
REMARK    5  A    between atoms: C_8  and  C_9
REMARK    6  A    between atoms: C_18  and  O_19
REMARK    7  A    between atoms: O_19  and  C_20
REMARK    8  A    between atoms: C_22  and  C_23
REMARK    9  A    between atoms: C_22  and  O_24
REMARK                            x       y       z     vdW  Elec       q    Type
REMARK                         _______ _______ _______ _____ _____    ______ ____
ROOT
ATOM      1  C   UNL     1      45.339   8.344  11.817  0.00  0.00    +0.000 C 
ATOM      2  C   UNL     1      45.783   7.119  12.632  0.00  0.00    +0.000 C 
ENDROOT
BRANCH   2   3
ATOM      3  C   UNL     1      44.979   5.871  12.250  0.00  0.00    +0.000 A 
ATOM      4  C   UNL     1      43.756   5.546  12.861  0.00  0.00    +0.000 A 
ATOM      5  C   UNL     1      43.001   4.448  12.453  0.00  0.00    +0.000 A 
ATOM      6  C   UNL     1      43.457   3.642  11.419  0.00  0.00    +0.000 A 
ATOM      7  C   UNL     1      44.653   3.954  10.776  0.00  0.00    +0.000 A 
ATOM      8  C   UNL     1      45.421   5.043  11.202  0.00  0.00    +0.000 A 
BRANCH   7   9
ATOM      9  O   UNL     1      45.120   3.258   9.686  0.00  0.00    +0.000 OA
BRANCH   9  10
ATOM     10  C   UNL     1      45.185   3.982   8.431  0.00  0.00    +0.000 C 
ATOM     11  C   UNL     1      46.594   4.310   7.877  0.00  0.00    +0.000 C 
ATOM     12  C   UNL     1      46.465   3.116   6.904  0.00  0.00    +0.000 C 
ATOM     13  C   UNL     1      47.164   1.847   7.375  0.00  0.00    +0.000 C 
ATOM     14  C   UNL     1      44.937   3.137   7.163  0.00  0.00    +0.000 C 
BRANCH  12  15
ATOM     15  O   UNL     1      46.866   3.388   5.543  0.00  0.00    +0.000 OA
ATOM     16  H   UNL     1      46.348   2.784   4.985  0.00  0.00    +0.000 HD
ENDBRANCH  12  15
ENDBRANCH   9  10
ENDBRANCH   7   9
ENDBRANCH   2   3
BRANCH   2  17
ATOM     17  C   UNL     1      47.323   6.975  12.496  0.00  0.00    +0.000 C 
BRANCH  17  18
ATOM     18  N   UNL     1      48.003   7.236  13.774  0.00  0.00    +0.000 N 
ATOM     19  C   UNL     1      47.986   6.192  14.703  0.00  0.00    +0.000 A 
ATOM     20  C   UNL     1      48.682   6.322  15.913  0.00  0.00    +0.000 A 
ATOM     21  N   UNL     1      48.661   5.397  16.909  0.00  0.00    +0.000 NA
ATOM     22  C   UNL     1      47.913   4.297  16.625  0.00  0.00    +0.000 A 
ATOM     23  C   UNL     1      47.254   4.131  15.420  0.00  0.00    +0.000 A 
ATOM     24  N   UNL     1      47.286   5.069  14.443  0.00  0.00    +0.000 NA
ATOM     25  H   UNL     1      47.678   8.090  14.216  0.00  0.00    +0.000 HD
BRANCH  22  26
ATOM     26  C   UNL     1      47.772   3.258  17.675  0.00  0.00    +0.000 C 
ATOM     27  N   UNL     1      48.784   3.186  18.591  0.00  0.00    +0.000 N 
ATOM     28  O   UNL     1      46.803   2.509  17.730  0.00  0.00    +0.000 OA
ATOM     29  H   UNL     1      49.568   3.827  18.535  0.00  0.00    +0.000 HD
ATOM     30  H   UNL     1      48.725   2.515  19.343  0.00  0.00    +0.000 HD
ENDBRANCH  22  26
ENDBRANCH  17  18
ENDBRANCH   2  17
TORSDOF 7
ENDMDL
MODEL 6
REMARK VINA RESULT:    -6.997      2.405      3.889
REMARK INTER + INTRA:         -10.585
REMARK INTER:                  -9.547
REMARK INTRA:                  -1.038
REMARK UNBOUND:                -0.930
REMARK  Name = 
REMARK  9 active torsions:
REMARK  status: ('A' for Active; 'I' for Inactive)
REMARK    1  A    between atoms: C_1  and  C_2
REMARK    2  A    between atoms: C_2  and  C_3
REMARK    3  A    between atoms: C_2  and  C_14
REMARK    4  A    between atoms: C_3  and  N_4
REMARK    5  A    between atoms: C_8  and  C_9
REMARK    6  A    between atoms: C_18  and  O_19
REMARK    7  A    between atoms: O_19  and  C_20
REMARK    8  A    between atoms: C_22  and  C_23
REMARK    9  A    between atoms: C_22  and  O_24
REMARK                            x       y       z     vdW  Elec       q    Type
REMARK                         _______ _______ _______ _____ _____    ______ ____
ROOT
ATOM      1  C   UNL     1      48.335   9.432  12.288  0.00  0.00    +0.000 C 
ATOM      2  C   UNL     1      47.896   8.129  12.974  0.00  0.00    +0.000 C 
ENDROOT
BRANCH   2   3
ATOM      3  C   UNL     1      48.422   8.049  14.412  0.00  0.00    +0.000 A 
ATOM      4  C   UNL     1      48.261   9.097  15.333  0.00  0.00    +0.000 A 
ATOM      5  C   UNL     1      48.681   8.981  16.657  0.00  0.00    +0.000 A 
ATOM      6  C   UNL     1      49.278   7.807  17.092  0.00  0.00    +0.000 A 
ATOM      7  C   UNL     1      49.428   6.740  16.209  0.00  0.00    +0.000 A 
ATOM      8  C   UNL     1      49.028   6.866  14.874  0.00  0.00    +0.000 A 
BRANCH   7   9
ATOM      9  O   UNL     1      49.926   5.516  16.591  0.00  0.00    +0.000 OA
BRANCH   9  10
ATOM     10  C   UNL     1      49.224   4.834  17.662  0.00  0.00    +0.000 C 
ATOM     11  C   UNL     1      47.688   5.021  17.731  0.00  0.00    +0.000 C 
ATOM     12  C   UNL     1      47.513   3.638  17.061  0.00  0.00    +0.000 C 
ATOM     13  C   UNL     1      47.252   3.699  15.561  0.00  0.00    +0.000 C 
ATOM     14  C   UNL     1      48.982   3.326  17.442  0.00  0.00    +0.000 C 
BRANCH  12  15
ATOM     15  O   UNL     1      46.520   2.785  17.670  0.00  0.00    +0.000 OA
ATOM     16  H   UNL     1      46.027   2.381  16.936  0.00  0.00    +0.000 HD
ENDBRANCH  12  15
ENDBRANCH   9  10
ENDBRANCH   7   9
ENDBRANCH   2   3
BRANCH   2  17
ATOM     17  C   UNL     1      46.356   7.996  12.829  0.00  0.00    +0.000 C 
BRANCH  17  18
ATOM     18  N   UNL     1      45.890   6.661  13.233  0.00  0.00    +0.000 N 
ATOM     19  C   UNL     1      45.650   5.754  12.197  0.00  0.00    +0.000 A 
ATOM     20  C   UNL     1      45.285   4.433  12.494  0.00  0.00    +0.000 A 
ATOM     21  N   UNL     1      44.957   3.503  11.559  0.00  0.00    +0.000 NA
ATOM     22  C   UNL     1      45.034   3.957  10.278  0.00  0.00    +0.000 A 
ATOM     23  C   UNL     1      45.433   5.243   9.963  0.00  0.00    +0.000 A 
ATOM     24  N   UNL     1      45.752   6.155  10.913  0.00  0.00    +0.000 NA
ATOM     25  H   UNL     1      45.078   6.704  13.842  0.00  0.00    +0.000 HD
BRANCH  22  26
ATOM     26  C   UNL     1      44.632   3.036   9.185  0.00  0.00    +0.000 C 
ATOM     27  N   UNL     1      44.264   3.624   8.007  0.00  0.00    +0.000 N 
ATOM     28  O   UNL     1      44.635   1.818   9.322  0.00  0.00    +0.000 OA
ATOM     29  H   UNL     1      44.286   4.633   7.913  0.00  0.00    +0.000 HD
ATOM     30  H   UNL     1      44.008   3.042   7.223  0.00  0.00    +0.000 HD
ENDBRANCH  22  26
ENDBRANCH  17  18
ENDBRANCH   2  17
TORSDOF 7
ENDMDL
MODEL 7
REMARK VINA RESULT:    -6.607      3.339      5.008
REMARK INTER + INTRA:         -10.047
REMARK INTER:                  -8.905
REMARK INTRA:                  -1.142
REMARK UNBOUND:                -0.930
REMARK  Name = 
REMARK  9 active torsions:
REMARK  status: ('A' for Active; 'I' for Inactive)
REMARK    1  A    between atoms: C_1  and  C_2
REMARK    2  A    between atoms: C_2  and  C_3
REMARK    3  A    between atoms: C_2  and  C_14
REMARK    4  A    between atoms: C_3  and  N_4
REMARK    5  A    between atoms: C_8  and  C_9
REMARK    6  A    between atoms: C_18  and  O_19
REMARK    7  A    between atoms: O_19  and  C_20
REMARK    8  A    between atoms: C_22  and  C_23
REMARK    9  A    between atoms: C_22  and  O_24
REMARK                            x       y       z     vdW  Elec       q    Type
REMARK                         _______ _______ _______ _____ _____    ______ ____
ROOT
ATOM      1  C   UNL     1      48.579  10.548  12.843  0.00  0.00    +0.000 C 
ATOM      2  C   UNL     1      48.322   9.051  13.074  0.00  0.00    +0.000 C 
ENDROOT
BRANCH   2   3
ATOM      3  C   UNL     1      49.416   8.425  13.947  0.00  0.00    +0.000 A 
ATOM      4  C   UNL     1      50.689   9.000  14.089  0.00  0.00    +0.000 A 
ATOM      5  C   UNL     1      51.648   8.458  14.943  0.00  0.00    +0.000 A 
ATOM      6  C   UNL     1      51.354   7.318  15.677  0.00  0.00    +0.000 A 
ATOM      7  C   UNL     1      50.091   6.740  15.578  0.00  0.00    +0.000 A 
ATOM      8  C   UNL     1      49.137   7.271  14.703  0.00  0.00    +0.000 A 
BRANCH   7   9
ATOM      9  O   UNL     1      49.697   5.666  16.342  0.00  0.00    +0.000 OA
BRANCH   9  10
ATOM     10  C   UNL     1      48.270   5.501  16.546  0.00  0.00    +0.000 C 
ATOM     11  C   UNL     1      47.607   4.249  15.921  0.00  0.00    +0.000 C 
ATOM     12  C   UNL     1      47.641   3.567  17.309  0.00  0.00    +0.000 C 
ATOM     13  C   UNL     1      48.807   2.606  17.506  0.00  0.00    +0.000 C 
ATOM     14  C   UNL     1      47.855   4.968  17.934  0.00  0.00    +0.000 C 
BRANCH  12  15
ATOM     15  O   UNL     1      46.419   2.898  17.692  0.00  0.00    +0.000 OA
ATOM     16  H   UNL     1      46.339   2.129  17.103  0.00  0.00    +0.000 HD
ENDBRANCH  12  15
ENDBRANCH   9  10
ENDBRANCH   7   9
ENDBRANCH   2   3
BRANCH   2  17
ATOM     17  C   UNL     1      46.875   8.881  13.610  0.00  0.00    +0.000 C 
BRANCH  17  18
ATOM     18  N   UNL     1      45.920   8.647  12.516  0.00  0.00    +0.000 N 
ATOM     19  C   UNL     1      45.388   7.357  12.429  0.00  0.00    +0.000 A 
ATOM     20  C   UNL     1      44.407   7.069  11.470  0.00  0.00    +0.000 A 
ATOM     21  N   UNL     1      43.887   5.831  11.257  0.00  0.00    +0.000 NA
ATOM     22  C   UNL     1      44.389   4.873  12.083  0.00  0.00    +0.000 A 
ATOM     23  C   UNL     1      45.325   5.146  13.064  0.00  0.00    +0.000 A 
ATOM     24  N   UNL     1      45.832   6.388  13.255  0.00  0.00    +0.000 NA
ATOM     25  H   UNL     1      46.294   8.923  11.613  0.00  0.00    +0.000 HD
BRANCH  22  26
ATOM     26  C   UNL     1      43.934   3.474  11.887  0.00  0.00    +0.000 C 
ATOM     27  N   UNL     1      44.644   2.511  12.547  0.00  0.00    +0.000 N 
ATOM     28  O   UNL     1      42.972   3.192  11.182  0.00  0.00    +0.000 OA
ATOM     29  H   UNL     1      45.426   2.771  13.138  0.00  0.00    +0.000 HD
ATOM     30  H   UNL     1      44.360   1.545  12.470  0.00  0.00    +0.000 HD
ENDBRANCH  22  26
ENDBRANCH  17  18
ENDBRANCH   2  17
TORSDOF 7
ENDMDL
MODEL 8
REMARK VINA RESULT:    -6.028      5.005      8.725
REMARK INTER + INTRA:          -9.248
REMARK INTER:                  -8.419
REMARK INTRA:                  -0.829
REMARK UNBOUND:                -0.930
REMARK  Name = 
REMARK  9 active torsions:
REMARK  status: ('A' for Active; 'I' for Inactive)
REMARK    1  A    between atoms: C_1  and  C_2
REMARK    2  A    between atoms: C_2  and  C_3
REMARK    3  A    between atoms: C_2  and  C_14
REMARK    4  A    between atoms: C_3  and  N_4
REMARK    5  A    between atoms: C_8  and  C_9
REMARK    6  A    between atoms: C_18  and  O_19
REMARK    7  A    between atoms: O_19  and  C_20
REMARK    8  A    between atoms: C_22  and  C_23
REMARK    9  A    between atoms: C_22  and  O_24
REMARK                            x       y       z     vdW  Elec       q    Type
REMARK                         _______ _______ _______ _____ _____    ______ ____
ROOT
ATOM      1  C   UNL     1      48.794   7.926  17.682  0.00  0.00    +0.000 C 
ATOM      2  C   UNL     1      48.681   6.574  16.960  0.00  0.00    +0.000 C 
ENDROOT
BRANCH   2   3
ATOM      3  C   UNL     1      48.699   6.751  15.437  0.00  0.00    +0.000 A 
ATOM      4  C   UNL     1      49.706   7.469  14.773  0.00  0.00    +0.000 A 
ATOM      5  C   UNL     1      49.748   7.560  13.383  0.00  0.00    +0.000 A 
ATOM      6  C   UNL     1      48.774   6.932  12.620  0.00  0.00    +0.000 A 
ATOM      7  C   UNL     1      47.776   6.190  13.249  0.00  0.00    +0.000 A 
ATOM      8  C   UNL     1      47.722   6.119  14.645  0.00  0.00    +0.000 A 
BRANCH   7   9
ATOM      9  O   UNL     1      46.833   5.466  12.557  0.00  0.00    +0.000 OA
BRANCH   9  10
ATOM     10  C   UNL     1      46.095   6.174  11.528  0.00  0.00    +0.000 C 
ATOM     11  C   UNL     1      45.123   5.341  10.657  0.00  0.00    +0.000 C 
ATOM     12  C   UNL     1      43.946   5.857  11.517  0.00  0.00    +0.000 C 
ATOM     13  C   UNL     1      43.491   4.886  12.600  0.00  0.00    +0.000 C 
ATOM     14  C   UNL     1      44.879   6.985  12.023  0.00  0.00    +0.000 C 
BRANCH  12  15
ATOM     15  O   UNL     1      42.789   6.296  10.772  0.00  0.00    +0.000 OA
ATOM     16  H   UNL     1      42.017   6.062  11.314  0.00  0.00    +0.000 HD
ENDBRANCH  12  15
ENDBRANCH   9  10
ENDBRANCH   7   9
ENDBRANCH   2   3
BRANCH   2  17
ATOM     17  C   UNL     1      49.774   5.627  17.524  0.00  0.00    +0.000 C 
BRANCH  17  18
ATOM     18  N   UNL     1      49.485   4.220  17.206  0.00  0.00    +0.000 N 
ATOM     19  C   UNL     1      50.515   3.309  17.454  0.00  0.00    +0.000 A 
ATOM     20  C   UNL     1      50.297   1.938  17.261  0.00  0.00    +0.000 A 
ATOM     21  N   UNL     1      51.257   0.985  17.400  0.00  0.00    +0.000 NA
ATOM     22  C   UNL     1      52.470   1.475  17.774  0.00  0.00    +0.000 A 
ATOM     23  C   UNL     1      52.693   2.819  18.011  0.00  0.00    +0.000 A 
ATOM     24  N   UNL     1      51.722   3.751  17.862  0.00  0.00    +0.000 NA
ATOM     25  H   UNL     1      49.147   4.102  16.256  0.00  0.00    +0.000 HD
BRANCH  22  26
ATOM     26  C   UNL     1      53.602   0.522  17.889  0.00  0.00    +0.000 C 
ATOM     27  N   UNL     1      53.328  -0.669  18.502  0.00  0.00    +0.000 N 
ATOM     28  O   UNL     1      54.719   0.777  17.453  0.00  0.00    +0.000 OA
ATOM     29  H   UNL     1      52.392  -0.863  18.839  0.00  0.00    +0.000 HD
ATOM     30  H   UNL     1      54.056  -1.363  18.582  0.00  0.00    +0.000 HD
ENDBRANCH  22  26
ENDBRANCH  17  18
ENDBRANCH   2  17
TORSDOF 7
ENDMDL
MODEL 9
REMARK VINA RESULT:    -6.002      3.434      5.760
REMARK INTER + INTRA:          -9.212
REMARK INTER:                  -8.618
REMARK INTRA:                  -0.594
REMARK UNBOUND:                -0.930
REMARK  Name = 
REMARK  9 active torsions:
REMARK  status: ('A' for Active; 'I' for Inactive)
REMARK    1  A    between atoms: C_1  and  C_2
REMARK    2  A    between atoms: C_2  and  C_3
REMARK    3  A    between atoms: C_2  and  C_14
REMARK    4  A    between atoms: C_3  and  N_4
REMARK    5  A    between atoms: C_8  and  C_9
REMARK    6  A    between atoms: C_18  and  O_19
REMARK    7  A    between atoms: O_19  and  C_20
REMARK    8  A    between atoms: C_22  and  C_23
REMARK    9  A    between atoms: C_22  and  O_24
REMARK                            x       y       z     vdW  Elec       q    Type
REMARK                         _______ _______ _______ _____ _____    ______ ____
ROOT
ATOM      1  C   UNL     1      48.094   3.493  18.269  0.00  0.00    +0.000 C 
ATOM      2  C   UNL     1      48.087   4.632  17.237  0.00  0.00    +0.000 C 
ENDROOT
BRANCH   2   3
ATOM      3  C   UNL     1      49.473   5.272  17.101  0.00  0.00    +0.000 A 
ATOM      4  C   UNL     1      49.649   6.633  16.805  0.00  0.00    +0.000 A 
ATOM      5  C   UNL     1      50.915   7.216  16.755  0.00  0.00    +0.000 A 
ATOM      6  C   UNL     1      52.041   6.443  16.999  0.00  0.00    +0.000 A 
ATOM      7  C   UNL     1      51.897   5.095  17.321  0.00  0.00    +0.000 A 
ATOM      8  C   UNL     1      50.628   4.506  17.347  0.00  0.00    +0.000 A 
BRANCH   7   9
ATOM      9  O   UNL     1      52.958   4.290  17.664  0.00  0.00    +0.000 OA
BRANCH   9  10
ATOM     10  C   UNL     1      52.683   3.215  18.598  0.00  0.00    +0.000 C 
ATOM     11  C   UNL     1      52.590   1.782  18.018  0.00  0.00    +0.000 C 
ATOM     12  C   UNL     1      54.032   1.514  18.508  0.00  0.00    +0.000 C 
ATOM     13  C   UNL     1      55.097   1.667  17.429  0.00  0.00    +0.000 C 
ATOM     14  C   UNL     1      53.887   2.743  19.440  0.00  0.00    +0.000 C 
BRANCH  12  15
ATOM     15  O   UNL     1      54.227   0.249  19.175  0.00  0.00    +0.000 OA
ATOM     16  H   UNL     1      53.343  -0.052  19.444  0.00  0.00    +0.000 HD
ENDBRANCH  12  15
ENDBRANCH   9  10
ENDBRANCH   7   9
ENDBRANCH   2   3
BRANCH   2  17
ATOM     17  C   UNL     1      47.481   4.088  15.915  0.00  0.00    +0.000 C 
BRANCH  17  18
ATOM     18  N   UNL     1      46.995   5.179  15.056  0.00  0.00    +0.000 N 
ATOM     19  C   UNL     1      46.273   4.795  13.923  0.00  0.00    +0.000 A 
ATOM     20  C   UNL     1      45.701   5.771  13.094  0.00  0.00    +0.000 A 
ATOM     21  N   UNL     1      45.050   5.500  11.933  0.00  0.00    +0.000 NA
ATOM     22  C   UNL     1      44.974   4.173  11.639  0.00  0.00    +0.000 A 
ATOM     23  C   UNL     1      45.495   3.194  12.465  0.00  0.00    +0.000 A 
ATOM     24  N   UNL     1      46.143   3.488  13.617  0.00  0.00    +0.000 NA
ATOM     25  H   UNL     1      47.739   5.817  14.786  0.00  0.00    +0.000 HD
BRANCH  22  26
ATOM     26  C   UNL     1      44.340   3.776  10.357  0.00  0.00    +0.000 C 
ATOM     27  N   UNL     1      44.469   4.660   9.322  0.00  0.00    +0.000 N 
ATOM     28  O   UNL     1      43.741   2.715  10.224  0.00  0.00    +0.000 OA
ATOM     29  H   UNL     1      44.984   5.524   9.452  0.00  0.00    +0.000 HD
ATOM     30  H   UNL     1      44.080   4.426   8.421  0.00  0.00    +0.000 HD
ENDBRANCH  22  26
ENDBRANCH  17  18
ENDBRANCH   2  17
TORSDOF 7
ENDMDL
