MODEL 1
REMARK VINA RESULT:    -6.583      0.000      0.000
REMARK INTER + INTRA:          -8.188
REMARK INTER:                  -7.929
REMARK INTRA:                  -0.258
REMARK UNBOUND:                -0.258
REMARK  Name = 
REMARK  4 active torsions:
REMARK  status: ('A' for Active; 'I' for Inactive)
REMARK    1  A    between atoms: N_1  and  C_2
REMARK    2  A    between atoms: C_2  and  C_3
REMARK    3  A    between atoms: N_6  and  C_7
REMARK    4  A    between atoms: C_7  and  C_8
REMARK                            x       y       z     vdW  Elec       q    Type
REMARK                         _______ _______ _______ _____ _____    ______ ____
ROOT
ATOM      1  C   UNL     1      44.260   6.340  11.531  0.00  0.00    +0.000 C 
ENDROOT
BRANCH   1   2
ATOM      2  C   UNL     1      44.156   4.861  11.282  0.00  0.00    +0.000 A 
ATOM      3  C   UNL     1      43.447   3.947  12.040  0.00  0.00    +0.000 A 
ATOM      4  N   UNL     1      43.528   2.725  11.432  0.00  0.00    +0.000 N 
ATOM      5  C   UNL     1      44.252   2.821  10.267  0.00  0.00    +0.000 A 
ATOM      6  C   UNL     1      44.530   1.850   9.296  0.00  0.00    +0.000 A 
ATOM      7  C   UNL     1      45.288   2.239   8.189  0.00  0.00    +0.000 A 
ATOM      8  C   UNL     1      45.776   3.539   8.083  0.00  0.00    +0.000 A 
ATOM      9 CL   UNL     1      46.710   3.986   6.706  0.00  0.00    +0.000 Cl
ATOM     10  C   UNL     1      45.505   4.495   9.066  0.00  0.00    +0.000 A 
ATOM     11  C   UNL     1      44.701   4.140  10.169  0.00  0.00    +0.000 A 
ATOM     12  H   UNL     1      43.093   1.877  11.770  0.00  0.00    +0.000 HD
ENDBRANCH   1   2
BRANCH   1  16
ATOM     13  C   UNL     1      47.947   7.590  13.352  0.00  0.00    +0.000 C 
ATOM     14  C   UNL     1      47.443   6.166  13.609  0.00  0.00    +0.000 C 
ATOM     15  C   UNL     1      46.362   5.755  12.609  0.00  0.00    +0.000 C 
ATOM     16  N   UNL     1      45.214   6.674  12.612  0.00  0.00    +0.000 NA
ATOM     17  C   UNL     1      45.617   8.086  12.456  0.00  0.00    +0.000 C 
ATOM     18  C   UNL     1      46.729   8.522  13.416  0.00  0.00    +0.000 C 
BRANCH  13  19
ATOM     19  C   UNL     1      48.702   7.762  12.015  0.00  0.00    +0.000 C 
BRANCH  19  20
ATOM     20  N   UNL     1      50.077   7.274  12.075  0.00  0.00    +0.000 NA
ATOM     21  H   UNL     1      50.294   7.008  13.035  0.00  0.00    +0.000 HD
ATOM     22  H   UNL     1      50.723   8.028  11.847  0.00  0.00    +0.000 HD
ENDBRANCH  19  20
ENDBRANCH  13  19
ENDBRANCH   1  16
TORSDOF 4
ENDMDL
MODEL 2
REMARK VINA RESULT:    -5.974      2.639      6.549
REMARK INTER + INTRA:          -7.455
REMARK INTER:                  -7.158
REMARK INTRA:                  -0.297
REMARK UNBOUND:                -0.258
REMARK  Name = 
REMARK  4 active torsions:
REMARK  status: ('A' for Active; 'I' for Inactive)
REMARK    1  A    between atoms: N_1  and  C_2
REMARK    2  A    between atoms: C_2  and  C_3
REMARK    3  A    between atoms: N_6  and  C_7
REMARK    4  A    between atoms: C_7  and  C_8
REMARK                            x       y       z     vdW  Elec       q    Type
REMARK                         _______ _______ _______ _____ _____    ______ ____
ROOT
ATOM      1  C   UNL     1      46.558   6.397  12.453  0.00  0.00    +0.000 C 
ENDROOT
BRANCH   1   2
ATOM      2  C   UNL     1      46.927   7.851  12.363  0.00  0.00    +0.000 A 
ATOM      3  C   UNL     1      46.134   8.926  12.723  0.00  0.00    +0.000 A 
ATOM      4  N   UNL     1      46.866  10.071  12.579  0.00  0.00    +0.000 N 
ATOM      5  C   UNL     1      48.141   9.770  12.161  0.00  0.00    +0.000 A 
ATOM      6  C   UNL     1      49.242  10.612  11.950  0.00  0.00    +0.000 A 
ATOM      7  C   UNL     1      50.438  10.022  11.535  0.00  0.00    +0.000 A 
ATOM      8  C   UNL     1      50.512   8.650  11.306  0.00  0.00    +0.000 A 
ATOM      9 CL   UNL     1      52.002   7.954  10.792  0.00  0.00    +0.000 Cl
ATOM     10  C   UNL     1      49.402   7.823  11.505  0.00  0.00    +0.000 A 
ATOM     11  C   UNL     1      48.197   8.388  11.970  0.00  0.00    +0.000 A 
ATOM     12  H   UNL     1      46.532  11.003  12.780  0.00  0.00    +0.000 HD
ENDBRANCH   1   2
BRANCH   1  16
ATOM     13  C   UNL     1      43.016   4.136  11.548  0.00  0.00    +0.000 C 
ATOM     14  C   UNL     1      43.891   4.632  10.391  0.00  0.00    +0.000 C 
ATOM     15  C   UNL     1      45.277   5.065  10.870  0.00  0.00    +0.000 C 
ATOM     16  N   UNL     1      45.215   6.111  11.902  0.00  0.00    +0.000 NA
ATOM     17  C   UNL     1      44.320   5.753  13.020  0.00  0.00    +0.000 C 
ATOM     18  C   UNL     1      42.933   5.274  12.575  0.00  0.00    +0.000 C 
BRANCH  13  19
ATOM     19  C   UNL     1      43.519   2.834  12.208  0.00  0.00    +0.000 C 
BRANCH  19  20
ATOM     20  N   UNL     1      43.085   1.635  11.497  0.00  0.00    +0.000 NA
ATOM     21  H   UNL     1      43.723   1.457  10.723  0.00  0.00    +0.000 HD
ATOM     22  H   UNL     1      42.174   1.795  11.070  0.00  0.00    +0.000 HD
ENDBRANCH  19  20
ENDBRANCH  13  19
ENDBRANCH   1  16
TORSDOF 4
ENDMDL
MODEL 3
REMARK VINA RESULT:    -5.959      2.503      6.187
REMARK INTER + INTRA:          -7.437
REMARK INTER:                  -7.023
REMARK INTRA:                  -0.414
REMARK UNBOUND:                -0.258
REMARK  Name = 
REMARK  4 active torsions:
REMARK  status: ('A' for Active; 'I' for Inactive)
REMARK    1  A    between atoms: N_1  and  C_2
REMARK    2  A    between atoms: C_2  and  C_3
REMARK    3  A    between atoms: N_6  and  C_7
REMARK    4  A    between atoms: C_7  and  C_8
REMARK                            x       y       z     vdW  Elec       q    Type
REMARK                         _______ _______ _______ _____ _____    ______ ____
ROOT
ATOM      1  C   UNL     1      45.989   5.192  12.158  0.00  0.00    +0.000 C 
ENDROOT
BRANCH   1   2
ATOM      2  C   UNL     1      45.935   6.692  12.244  0.00  0.00    +0.000 A 
ATOM      3  C   UNL     1      44.845   7.455  12.621  0.00  0.00    +0.000 A 
ATOM      4  N   UNL     1      45.228   8.767  12.662  0.00  0.00    +0.000 N 
ATOM      5  C   UNL     1      46.563   8.881  12.350  0.00  0.00    +0.000 A 
ATOM      6  C   UNL     1      47.391  10.012  12.335  0.00  0.00    +0.000 A 
ATOM      7  C   UNL     1      48.732   9.828  11.991  0.00  0.00    +0.000 A 
ATOM      8  C   UNL     1      49.210   8.567  11.641  0.00  0.00    +0.000 A 
ATOM      9 CL   UNL     1      50.869   8.375  11.219  0.00  0.00    +0.000 Cl
ATOM     10  C   UNL     1      48.371   7.449  11.645  0.00  0.00    +0.000 A 
ATOM     11  C   UNL     1      47.024   7.601  12.036  0.00  0.00    +0.000 A 
ATOM     12  H   UNL     1      44.629   9.540  12.915  0.00  0.00    +0.000 HD
ENDBRANCH   1   2
BRANCH   1  16
ATOM     13  C   UNL     1      44.514   2.723   8.964  0.00  0.00    +0.000 C 
ATOM     14  C   UNL     1      44.542   4.243   8.770  0.00  0.00    +0.000 C 
ATOM     15  C   UNL     1      45.430   4.934   9.804  0.00  0.00    +0.000 C 
ATOM     16  N   UNL     1      45.022   4.638  11.185  0.00  0.00    +0.000 NA
ATOM     17  C   UNL     1      44.884   3.191  11.438  0.00  0.00    +0.000 C 
ATOM     18  C   UNL     1      44.032   2.457  10.397  0.00  0.00    +0.000 C 
BRANCH  13  19
ATOM     19  C   UNL     1      45.867   2.027   8.700  0.00  0.00    +0.000 C 
BRANCH  19  20
ATOM     20  N   UNL     1      46.482   2.445   7.444  0.00  0.00    +0.000 NA
ATOM     21  H   UNL     1      46.376   1.700   6.756  0.00  0.00    +0.000 HD
ATOM     22  H   UNL     1      47.487   2.560   7.570  0.00  0.00    +0.000 HD
ENDBRANCH  19  20
ENDBRANCH  13  19
ENDBRANCH   1  16
TORSDOF 4
ENDMDL
MODEL 4
REMARK VINA RESULT:    -5.869      3.180      6.995
REMARK INTER + INTRA:          -7.329
REMARK INTER:                  -6.928
REMARK INTRA:                  -0.401
REMARK UNBOUND:                -0.258
REMARK  Name = 
REMARK  4 active torsions:
REMARK  status: ('A' for Active; 'I' for Inactive)
REMARK    1  A    between atoms: N_1  and  C_2
REMARK    2  A    between atoms: C_2  and  C_3
REMARK    3  A    between atoms: N_6  and  C_7
REMARK    4  A    between atoms: C_7  and  C_8
REMARK                            x       y       z     vdW  Elec       q    Type
REMARK                         _______ _______ _______ _____ _____    ______ ____
ROOT
ATOM      1  C   UNL     1      46.818   6.417  11.806  0.00  0.00    +0.000 C 
ENDROOT
BRANCH   1   2
ATOM      2  C   UNL     1      47.153   7.622  12.641  0.00  0.00    +0.000 A 
ATOM      3  C   UNL     1      46.771   8.928  12.391  0.00  0.00    +0.000 A 
ATOM      4  N   UNL     1      47.195   9.709  13.430  0.00  0.00    +0.000 N 
ATOM      5  C   UNL     1      47.822   8.936  14.380  0.00  0.00    +0.000 A 
ATOM      6  C   UNL     1      48.348   9.295  15.628  0.00  0.00    +0.000 A 
ATOM      7  C   UNL     1      48.922   8.285  16.403  0.00  0.00    +0.000 A 
ATOM      8  C   UNL     1      48.997   6.978  15.926  0.00  0.00    +0.000 A 
ATOM      9 CL   UNL     1      49.714   5.756  16.906  0.00  0.00    +0.000 Cl
ATOM     10  C   UNL     1      48.483   6.636  14.672  0.00  0.00    +0.000 A 
ATOM     11  C   UNL     1      47.855   7.628  13.891  0.00  0.00    +0.000 A 
ATOM     12  H   UNL     1      47.043  10.704  13.508  0.00  0.00    +0.000 HD
ENDBRANCH   1   2
BRANCH   1  16
ATOM     13  C   UNL     1      43.076   4.302  11.833  0.00  0.00    +0.000 C 
ATOM     14  C   UNL     1      43.585   4.888  10.510  0.00  0.00    +0.000 C 
ATOM     15  C   UNL     1      45.067   5.254  10.581  0.00  0.00    +0.000 C 
ATOM     16  N   UNL     1      45.361   6.203  11.666  0.00  0.00    +0.000 NA
ATOM     17  C   UNL     1      44.828   5.759  12.968  0.00  0.00    +0.000 C 
ATOM     18  C   UNL     1      43.353   5.343  12.926  0.00  0.00    +0.000 C 
BRANCH  13  19
ATOM     19  C   UNL     1      43.699   2.938  12.200  0.00  0.00    +0.000 C 
BRANCH  19  20
ATOM     20  N   UNL     1      42.948   1.809  11.660  0.00  0.00    +0.000 NA
ATOM     21  H   UNL     1      43.577   1.014  11.547  0.00  0.00    +0.000 HD
ATOM     22  H   UNL     1      42.614   2.030  10.723  0.00  0.00    +0.000 HD
ENDBRANCH  19  20
ENDBRANCH  13  19
ENDBRANCH   1  16
TORSDOF 4
ENDMDL
MODEL 5
REMARK VINA RESULT:    -5.811      3.376      4.931
REMARK INTER + INTRA:          -7.258
REMARK INTER:                  -7.006
REMARK INTRA:                  -0.252
REMARK UNBOUND:                -0.258
REMARK  Name = 
REMARK  4 active torsions:
REMARK  status: ('A' for Active; 'I' for Inactive)
REMARK    1  A    between atoms: N_1  and  C_2
REMARK    2  A    between atoms: C_2  and  C_3
REMARK    3  A    between atoms: N_6  and  C_7
REMARK    4  A    between atoms: C_7  and  C_8
REMARK                            x       y       z     vdW  Elec       q    Type
REMARK                         _______ _______ _______ _____ _____    ______ ____
ROOT
ATOM      1  C   UNL     1      47.704   5.605  13.821  0.00  0.00    +0.000 C 
ENDROOT
BRANCH   1   2
ATOM      2  C   UNL     1      46.473   6.250  13.249  0.00  0.00    +0.000 A 
ATOM      3  C   UNL     1      46.266   7.605  13.058  0.00  0.00    +0.000 A 
ATOM      4  N   UNL     1      45.064   7.776  12.431  0.00  0.00    +0.000 N 
ATOM      5  C   UNL     1      44.485   6.555  12.173  0.00  0.00    +0.000 A 
ATOM      6  C   UNL     1      43.298   6.245  11.495  0.00  0.00    +0.000 A 
ATOM      7  C   UNL     1      42.958   4.897  11.367  0.00  0.00    +0.000 A 
ATOM      8  C   UNL     1      43.759   3.905  11.929  0.00  0.00    +0.000 A 
ATOM      9 CL   UNL     1      43.309   2.251  11.755  0.00  0.00    +0.000 Cl
ATOM     10  C   UNL     1      44.932   4.227  12.617  0.00  0.00    +0.000 A 
ATOM     11  C   UNL     1      45.322   5.579  12.718  0.00  0.00    +0.000 A 
ATOM     12  H   UNL     1      44.669   8.666  12.164  0.00  0.00    +0.000 HD
ENDBRANCH   1   2
BRANCH   1  16
ATOM     13  C   UNL     1      48.640   3.701  17.559  0.00  0.00    +0.000 C 
ATOM     14  C   UNL     1      47.409   3.227  16.776  0.00  0.00    +0.000 C 
ATOM     15  C   UNL     1      47.433   3.714  15.328  0.00  0.00    +0.000 C 
ATOM     16  N   UNL     1      47.527   5.178  15.226  0.00  0.00    +0.000 NA
ATOM     17  C   UNL     1      48.639   5.731  16.024  0.00  0.00    +0.000 C 
ATOM     18  C   UNL     1      48.672   5.233  17.473  0.00  0.00    +0.000 C 
BRANCH  13  19
ATOM     19  C   UNL     1      49.972   3.094  17.067  0.00  0.00    +0.000 C 
BRANCH  19  20
ATOM     20  N   UNL     1      49.796   1.809  16.397  0.00  0.00    +0.000 NA
ATOM     21  H   UNL     1      50.489   1.722  15.654  0.00  0.00    +0.000 HD
ATOM     22  H   UNL     1      48.890   1.781  15.932  0.00  0.00    +0.000 HD
ENDBRANCH  19  20
ENDBRANCH  13  19
ENDBRANCH   1  16
TORSDOF 4
ENDMDL
MODEL 6
REMARK VINA RESULT:    -5.606      4.167      5.651
REMARK INTER + INTRA:          -7.011
REMARK INTER:                  -7.075
REMARK INTRA:                   0.063
REMARK UNBOUND:                -0.258
REMARK  Name = 
REMARK  4 active torsions:
REMARK  status: ('A' for Active; 'I' for Inactive)
REMARK    1  A    between atoms: N_1  and  C_2
REMARK    2  A    between atoms: C_2  and  C_3
REMARK    3  A    between atoms: N_6  and  C_7
REMARK    4  A    between atoms: C_7  and  C_8
REMARK                            x       y       z     vdW  Elec       q    Type
REMARK                         _______ _______ _______ _____ _____    ______ ____
ROOT
ATOM      1  C   UNL     1      47.171   4.403  15.427  0.00  0.00    +0.000 C 
ENDROOT
BRANCH   1   2
ATOM      2  C   UNL     1      47.087   5.203  14.157  0.00  0.00    +0.000 A 
ATOM      3  C   UNL     1      47.930   6.230  13.773  0.00  0.00    +0.000 A 
ATOM      4  N   UNL     1      47.577   6.635  12.516  0.00  0.00    +0.000 N 
ATOM      5  C   UNL     1      46.534   5.870  12.047  0.00  0.00    +0.000 A 
ATOM      6  C   UNL     1      45.899   5.882  10.798  0.00  0.00    +0.000 A 
ATOM      7  C   UNL     1      44.864   4.968  10.589  0.00  0.00    +0.000 A 
ATOM      8  C   UNL     1      44.461   4.106  11.606  0.00  0.00    +0.000 A 
ATOM      9 CL   UNL     1      43.178   2.993  11.317  0.00  0.00    +0.000 Cl
ATOM     10  C   UNL     1      45.092   4.114  12.853  0.00  0.00    +0.000 A 
ATOM     11  C   UNL     1      46.172   4.994  13.072  0.00  0.00    +0.000 A 
ATOM     12  H   UNL     1      48.034   7.367  11.991  0.00  0.00    +0.000 HD
ENDBRANCH   1   2
BRANCH   1  16
ATOM     13  C   UNL     1      49.796   4.958  18.785  0.00  0.00    +0.000 C 
ATOM     14  C   UNL     1      49.658   6.090  17.760  0.00  0.00    +0.000 C 
ATOM     15  C   UNL     1      48.431   5.905  16.868  0.00  0.00    +0.000 C 
ATOM     16  N   UNL     1      48.439   4.618  16.157  0.00  0.00    +0.000 NA
ATOM     17  C   UNL     1      48.655   3.472  17.061  0.00  0.00    +0.000 C 
ATOM     18  C   UNL     1      49.855   3.640  18.000  0.00  0.00    +0.000 C 
BRANCH  13  19
ATOM     19  C   UNL     1      48.668   4.920  19.840  0.00  0.00    +0.000 C 
BRANCH  19  20
ATOM     20  N   UNL     1      48.608   3.652  20.559  0.00  0.00    +0.000 NA
ATOM     21  H   UNL     1      49.010   2.918  19.976  0.00  0.00    +0.000 HD
ATOM     22  H   UNL     1      47.637   3.382  20.709  0.00  0.00    +0.000 HD
ENDBRANCH  19  20
ENDBRANCH  13  19
ENDBRANCH   1  16
TORSDOF 4
ENDMDL
MODEL 7
REMARK VINA RESULT:    -5.493      3.601      7.061
REMARK INTER + INTRA:          -6.876
REMARK INTER:                  -6.487
REMARK INTRA:                  -0.389
REMARK UNBOUND:                -0.258
REMARK  Name = 
REMARK  4 active torsions:
REMARK  status: ('A' for Active; 'I' for Inactive)
REMARK    1  A    between atoms: N_1  and  C_2
REMARK    2  A    between atoms: C_2  and  C_3
REMARK    3  A    between atoms: N_6  and  C_7
REMARK    4  A    between atoms: C_7  and  C_8
REMARK                            x       y       z     vdW  Elec       q    Type
REMARK                         _______ _______ _______ _____ _____    ______ ____
ROOT
ATOM      1  C   UNL     1      47.546   5.906  12.974  0.00  0.00    +0.000 C 
ENDROOT
BRANCH   1   2
ATOM      2  C   UNL     1      48.116   6.416  14.268  0.00  0.00    +0.000 A 
ATOM      3  C   UNL     1      48.679   7.660  14.486  0.00  0.00    +0.000 A 
ATOM      4  N   UNL     1      48.992   7.768  15.812  0.00  0.00    +0.000 N 
ATOM      5  C   UNL     1      48.614   6.628  16.483  0.00  0.00    +0.000 A 
ATOM      6  C   UNL     1      48.676   6.325  17.850  0.00  0.00    +0.000 A 
ATOM      7  C   UNL     1      48.199   5.077  18.258  0.00  0.00    +0.000 A 
ATOM      8  C   UNL     1      47.717   4.160  17.327  0.00  0.00    +0.000 A 
ATOM      9 CL   UNL     1      47.139   2.629  17.864  0.00  0.00    +0.000 Cl
ATOM     10  C   UNL     1      47.675   4.468  15.964  0.00  0.00    +0.000 A 
ATOM     11  C   UNL     1      48.106   5.740  15.533  0.00  0.00    +0.000 A 
ATOM     12  H   UNL     1      49.409   8.578  16.248  0.00  0.00    +0.000 HD
ENDBRANCH   1   2
BRANCH   1  16
ATOM     13  C   UNL     1      43.526   5.257  11.598  0.00  0.00    +0.000 C 
ATOM     14  C   UNL     1      44.172   6.629  11.372  0.00  0.00    +0.000 C 
ATOM     15  C   UNL     1      45.688   6.583  11.556  0.00  0.00    +0.000 C 
ATOM     16  N   UNL     1      46.080   6.085  12.883  0.00  0.00    +0.000 NA
ATOM     17  C   UNL     1      45.433   4.803  13.222  0.00  0.00    +0.000 C 
ATOM     18  C   UNL     1      43.915   4.800  13.011  0.00  0.00    +0.000 C 
BRANCH  13  19
ATOM     19  C   UNL     1      43.917   4.195  10.548  0.00  0.00    +0.000 C 
BRANCH  19  20
ATOM     20  N   UNL     1      43.741   4.664   9.177  0.00  0.00    +0.000 NA
ATOM     21  H   UNL     1      42.746   4.696   8.960  0.00  0.00    +0.000 HD
ATOM     22  H   UNL     1      44.142   3.990   8.525  0.00  0.00    +0.000 HD
ENDBRANCH  19  20
ENDBRANCH  13  19
ENDBRANCH   1  16
TORSDOF 4
ENDMDL
MODEL 8
REMARK VINA RESULT:    -5.441      2.592      3.759
REMARK INTER + INTRA:          -6.813
REMARK INTER:                  -6.458
REMARK INTRA:                  -0.355
REMARK UNBOUND:                -0.258
REMARK  Name = 
REMARK  4 active torsions:
REMARK  status: ('A' for Active; 'I' for Inactive)
REMARK    1  A    between atoms: N_1  and  C_2
REMARK    2  A    between atoms: C_2  and  C_3
REMARK    3  A    between atoms: N_6  and  C_7
REMARK    4  A    between atoms: C_7  and  C_8
REMARK                            x       y       z     vdW  Elec       q    Type
REMARK                         _______ _______ _______ _____ _____    ______ ____
ROOT
ATOM      1  C   UNL     1      46.103   7.575  11.751  0.00  0.00    +0.000 C 
ENDROOT
BRANCH   1   2
ATOM      2  C   UNL     1      45.422   6.257  11.988  0.00  0.00    +0.000 A 
ATOM      3  C   UNL     1      44.796   5.851  13.153  0.00  0.00    +0.000 A 
ATOM      4  N   UNL     1      44.222   4.630  12.934  0.00  0.00    +0.000 N 
ATOM      5  C   UNL     1      44.428   4.236  11.632  0.00  0.00    +0.000 A 
ATOM      6  C   UNL     1      43.966   3.101  10.952  0.00  0.00    +0.000 A 
ATOM      7  C   UNL     1      44.322   2.963   9.608  0.00  0.00    +0.000 A 
ATOM      8  C   UNL     1      45.137   3.906   8.988  0.00  0.00    +0.000 A 
ATOM      9 CL   UNL     1      45.560   3.705   7.330  0.00  0.00    +0.000 Cl
ATOM     10  C   UNL     1      45.604   5.026   9.682  0.00  0.00    +0.000 A 
ATOM     11  C   UNL     1      45.219   5.213  11.026  0.00  0.00    +0.000 A 
ATOM     12  H   UNL     1      43.694   4.105  13.617  0.00  0.00    +0.000 HD
ENDBRANCH   1   2
BRANCH   1  16
ATOM     13  C   UNL     1      43.889  11.085  10.633  0.00  0.00    +0.000 C 
ATOM     14  C   UNL     1      44.968  11.206  11.715  0.00  0.00    +0.000 C 
ATOM     15  C   UNL     1      45.907  10.000  11.721  0.00  0.00    +0.000 C 
ATOM     16  N   UNL     1      45.190   8.729  11.904  0.00  0.00    +0.000 NA
ATOM     17  C   UNL     1      44.072   8.567  10.955  0.00  0.00    +0.000 C 
ATOM     18  C   UNL     1      43.131   9.775  10.891  0.00  0.00    +0.000 C 
BRANCH  13  19
ATOM     19  C   UNL     1      44.434  11.130   9.189  0.00  0.00    +0.000 C 
BRANCH  19  20
ATOM     20  N   UNL     1      43.463  10.665   8.203  0.00  0.00    +0.000 NA
ATOM     21  H   UNL     1      43.855   9.870   7.698  0.00  0.00    +0.000 HD
ATOM     22  H   UNL     1      43.309  11.387   7.500  0.00  0.00    +0.000 HD
ENDBRANCH  19  20
ENDBRANCH  13  19
ENDBRANCH   1  16
TORSDOF 4
ENDMDL
MODEL 9
REMARK VINA RESULT:    -5.088      3.678      7.414
REMARK INTER + INTRA:          -6.387
REMARK INTER:                  -5.960
REMARK INTRA:                  -0.427
REMARK UNBOUND:                -0.258
REMARK  Name = 
REMARK  4 active torsions:
REMARK  status: ('A' for Active; 'I' for Inactive)
REMARK    1  A    between atoms: N_1  and  C_2
REMARK    2  A    between atoms: C_2  and  C_3
REMARK    3  A    between atoms: N_6  and  C_7
REMARK    4  A    between atoms: C_7  and  C_8
REMARK                            x       y       z     vdW  Elec       q    Type
REMARK                         _______ _______ _______ _____ _____    ______ ____
ROOT
ATOM      1  C   UNL     1      47.119   7.377  13.323  0.00  0.00    +0.000 C 
ENDROOT
BRANCH   1   2
ATOM      2  C   UNL     1      48.585   7.418  13.654  0.00  0.00    +0.000 A 
ATOM      3  C   UNL     1      49.594   7.932  12.860  0.00  0.00    +0.000 A 
ATOM      4  N   UNL     1      50.769   7.867  13.556  0.00  0.00    +0.000 N 
ATOM      5  C   UNL     1      50.549   7.348  14.811  0.00  0.00    +0.000 A 
ATOM      6  C   UNL     1      51.438   7.164  15.879  0.00  0.00    +0.000 A 
ATOM      7  C   UNL     1      50.928   6.623  17.060  0.00  0.00    +0.000 A 
ATOM      8  C   UNL     1      49.590   6.248  17.151  0.00  0.00    +0.000 A 
ATOM      9 CL   UNL     1      48.993   5.580  18.623  0.00  0.00    +0.000 Cl
ATOM     10  C   UNL     1      48.715   6.422  16.074  0.00  0.00    +0.000 A 
ATOM     11  C   UNL     1      49.196   7.011  14.886  0.00  0.00    +0.000 A 
ATOM     12  H   UNL     1      51.665   8.183  13.215  0.00  0.00    +0.000 HD
ENDBRANCH   1   2
BRANCH   1  16
ATOM     13  C   UNL     1      44.554   4.212  11.953  0.00  0.00    +0.000 C 
ATOM     14  C   UNL     1      45.729   3.864  12.874  0.00  0.00    +0.000 C 
ATOM     15  C   UNL     1      46.293   5.102  13.571  0.00  0.00    +0.000 C 
ATOM     16  N   UNL     1      46.725   6.136  12.620  0.00  0.00    +0.000 NA
ATOM     17  C   UNL     1      45.679   6.473  11.634  0.00  0.00    +0.000 C 
ATOM     18  C   UNL     1      45.061   5.252  10.944  0.00  0.00    +0.000 C 
BRANCH  13  19
ATOM     19  C   UNL     1      43.302   4.728  12.694  0.00  0.00    +0.000 C 
BRANCH  19  20
ATOM     20  N   UNL     1      42.258   5.191  11.785  0.00  0.00    +0.000 NA
ATOM     21  H   UNL     1      42.568   6.049  11.329  0.00  0.00    +0.000 HD
ATOM     22  H   UNL     1      41.425   5.448  12.314  0.00  0.00    +0.000 HD
ENDBRANCH  19  20
ENDBRANCH  13  19
ENDBRANCH   1  16
TORSDOF 4
ENDMDL
