MODEL 1
REMARK VINA RESULT:    -9.063      0.000      0.000
REMARK INTER + INTRA:         -12.185
REMARK INTER:                 -11.182
REMARK INTRA:                  -1.003
REMARK UNBOUND:                -1.003
REMARK  Name = 
REMARK  8 active torsions:
REMARK  status: ('A' for Active; 'I' for Inactive)
REMARK    1  A    between atoms: C_1  and  C_2
REMARK    2  A    between atoms: C_7  and  C_8
REMARK    3  A    between atoms: C_8  and  C_9
REMARK    4  A    between atoms: C_8  and  C_10
REMARK    5  A    between atoms: C_8  and  C_11
REMARK    6  A    between atoms: C_11  and  N_12
REMARK    7  A    between atoms: C_16  and  C_17
REMARK    8  A    between atoms: C_26  and  C_27
REMARK                            x       y       z     vdW  Elec       q    Type
REMARK                         _______ _______ _______ _____ _____    ______ ____
ROOT
ATOM      1  C   UNL     1      44.212   4.406  12.192  0.00  0.00    +0.000 C 
ATOM      2  C   UNL     1      45.248   3.290  12.447  0.00  0.00    +0.000 C 
ATOM      3  C   UNL     1      43.245   4.507  13.391  0.00  0.00    +0.000 C 
ENDROOT
BRANCH   1  10
ATOM      4  C   UNL     1      48.668  10.419  12.807  0.00  0.00    +0.000 C 
ATOM      5  C   UNL     1      49.624   9.287  12.454  0.00  0.00    +0.000 C 
ATOM      6  C   UNL     1      49.033   8.248  11.482  0.00  0.00    +0.000 C 
ATOM      7  N   UNL     1      48.305   7.170  12.154  0.00  0.00    +0.000 N 
ATOM      8  C   UNL     1      46.932   7.077  12.022  0.00  0.00    +0.000 A 
ATOM      9  C   UNL     1      46.316   5.843  12.163  0.00  0.00    +0.000 A 
ATOM     10  C   UNL     1      44.939   5.756  12.032  0.00  0.00    +0.000 A 
ATOM     11  N   UNL     1      44.210   6.857  11.771  0.00  0.00    +0.000 NA
ATOM     12  C   UNL     1      44.887   8.006  11.621  0.00  0.00    +0.000 A 
ATOM     13  N   UNL     1      46.214   8.169  11.722  0.00  0.00    +0.000 NA
ATOM     14  C   UNL     1      48.960   6.605  13.337  0.00  0.00    +0.000 C 
ATOM     15  C   UNL     1      49.477   7.700  14.291  0.00  0.00    +0.000 C 
ATOM     16  C   UNL     1      48.398   8.288  15.194  0.00  0.00    +0.000 C 
ATOM     17  O   UNL     1      50.239   8.713  13.618  0.00  0.00    +0.000 OA
ENDBRANCH   1  10
BRANCH   1  18
ATOM     18  C   UNL     1      43.417   4.080  10.893  0.00  0.00    +0.000 C 
BRANCH  18  19
ATOM     19  N   UNL     1      43.890   4.825   9.719  0.00  0.00    +0.000 N 
ATOM     20  C   UNL     1      44.786   4.094   8.945  0.00  0.00    +0.000 A 
ATOM     21  N   UNL     1      44.697   2.756   8.895  0.00  0.00    +0.000 NA
ATOM     22  C   UNL     1      45.634   2.094   8.189  0.00  0.00    +0.000 A 
ATOM     23  C   UNL     1      46.644   2.719   7.499  0.00  0.00    +0.000 A 
ATOM     24  C   UNL     1      46.647   4.090   7.597  0.00  0.00    +0.000 A 
ATOM     25  N   UNL     1      45.738   4.797   8.312  0.00  0.00    +0.000 NA
ATOM     26  H   UNL     1      44.364   5.701   9.909  0.00  0.00    +0.000 HD
BRANCH  23  27
ATOM     27  C   UNL     1      47.641   1.920   6.777  0.00  0.00    +0.000 C 
ATOM     28  N   UNL     1      48.703   2.565   6.211  0.00  0.00    +0.000 N 
ATOM     29  O   UNL     1      47.507   0.709   6.662  0.00  0.00    +0.000 OA
ATOM     30  H   UNL     1      48.748   3.565   6.073  0.00  0.00    +0.000 HD
ATOM     31  H   UNL     1      49.310   1.992   5.638  0.00  0.00    +0.000 HD
ENDBRANCH  23  27
ENDBRANCH  18  19
ENDBRANCH   1  18
TORSDOF 4
ENDMDL
MODEL 2
REMARK VINA RESULT:    -7.274      2.805      3.571
REMARK INTER + INTRA:          -9.978
REMARK INTER:                  -9.396
REMARK INTRA:                  -0.582
REMARK UNBOUND:                -1.003
REMARK  Name = 
REMARK  8 active torsions:
REMARK  status: ('A' for Active; 'I' for Inactive)
REMARK    1  A    between atoms: C_1  and  C_2
REMARK    2  A    between atoms: C_7  and  C_8
REMARK    3  A    between atoms: C_8  and  C_9
REMARK    4  A    between atoms: C_8  and  C_10
REMARK    5  A    between atoms: C_8  and  C_11
REMARK    6  A    between atoms: C_11  and  N_12
REMARK    7  A    between atoms: C_16  and  C_17
REMARK    8  A    between atoms: C_26  and  C_27
REMARK                            x       y       z     vdW  Elec       q    Type
REMARK                         _______ _______ _______ _____ _____    ______ ____
ROOT
ATOM      1  C   UNL     1      44.359   5.110  12.654  0.00  0.00    +0.000 C 
ATOM      2  C   UNL     1      43.380   4.542  13.705  0.00  0.00    +0.000 C 
ATOM      3  C   UNL     1      43.864   6.489  12.169  0.00  0.00    +0.000 C 
ENDROOT
BRANCH   1  10
ATOM      4  C   UNL     1      50.239   5.904  17.256  0.00  0.00    +0.000 C 
ATOM      5  C   UNL     1      49.713   4.509  17.568  0.00  0.00    +0.000 C 
ATOM      6  C   UNL     1      49.163   3.757  16.341  0.00  0.00    +0.000 C 
ATOM      7  N   UNL     1      47.748   4.027  16.079  0.00  0.00    +0.000 N 
ATOM      8  C   UNL     1      47.378   4.748  14.960  0.00  0.00    +0.000 A 
ATOM      9  C   UNL     1      46.119   4.556  14.411  0.00  0.00    +0.000 A 
ATOM     10  C   UNL     1      45.753   5.283  13.289  0.00  0.00    +0.000 A 
ATOM     11  N   UNL     1      46.610   6.165  12.741  0.00  0.00    +0.000 NA
ATOM     12  C   UNL     1      47.818   6.268  13.316  0.00  0.00    +0.000 A 
ATOM     13  N   UNL     1      48.249   5.594  14.392  0.00  0.00    +0.000 NA
ATOM     14  C   UNL     1      46.873   4.011  17.254  0.00  0.00    +0.000 C 
ATOM     15  C   UNL     1      47.459   4.827  18.423  0.00  0.00    +0.000 C 
ATOM     16  C   UNL     1      47.232   6.330  18.298  0.00  0.00    +0.000 C 
ATOM     17  O   UNL     1      48.829   4.503  18.700  0.00  0.00    +0.000 OA
ENDBRANCH   1  10
BRANCH   1  18
ATOM     18  C   UNL     1      44.449   4.124  11.451  0.00  0.00    +0.000 C 
BRANCH  18  19
ATOM     19  N   UNL     1      44.582   4.801  10.154  0.00  0.00    +0.000 N 
ATOM     20  C   UNL     1      45.252   4.027   9.212  0.00  0.00    +0.000 A 
ATOM     21  N   UNL     1      45.175   2.689   9.262  0.00  0.00    +0.000 NA
ATOM     22  C   UNL     1      45.903   1.988   8.371  0.00  0.00    +0.000 A 
ATOM     23  C   UNL     1      46.684   2.573   7.404  0.00  0.00    +0.000 A 
ATOM     24  C   UNL     1      46.690   3.947   7.421  0.00  0.00    +0.000 A 
ATOM     25  N   UNL     1      45.992   4.693   8.311  0.00  0.00    +0.000 NA
ATOM     26  H   UNL     1      45.075   5.687  10.162  0.00  0.00    +0.000 HD
BRANCH  23  27
ATOM     27  C   UNL     1      47.467   1.734   6.489  0.00  0.00    +0.000 C 
ATOM     28  N   UNL     1      48.433   2.329   5.731  0.00  0.00    +0.000 N 
ATOM     29  O   UNL     1      47.238   0.536   6.389  0.00  0.00    +0.000 OA
ATOM     30  H   UNL     1      48.512   3.327   5.598  0.00  0.00    +0.000 HD
ATOM     31  H   UNL     1      48.879   1.735   5.041  0.00  0.00    +0.000 HD
ENDBRANCH  23  27
ENDBRANCH  18  19
ENDBRANCH   1  18
TORSDOF 4
ENDMDL
MODEL 3
REMARK VINA RESULT:    -6.796      3.294      5.429
REMARK INTER + INTRA:          -9.388
REMARK INTER:                  -8.527
REMARK INTRA:                  -0.861
REMARK UNBOUND:                -1.003
REMARK  Name = 
REMARK  8 active torsions:
REMARK  status: ('A' for Active; 'I' for Inactive)
REMARK    1  A    between atoms: C_1  and  C_2
REMARK    2  A    between atoms: C_7  and  C_8
REMARK    3  A    between atoms: C_8  and  C_9
REMARK    4  A    between atoms: C_8  and  C_10
REMARK    5  A    between atoms: C_8  and  C_11
REMARK    6  A    between atoms: C_11  and  N_12
REMARK    7  A    between atoms: C_16  and  C_17
REMARK    8  A    between atoms: C_26  and  C_27
REMARK                            x       y       z     vdW  Elec       q    Type
REMARK                         _______ _______ _______ _____ _____    ______ ____
ROOT
ATOM      1  C   UNL     1      48.306   4.512  17.034  0.00  0.00    +0.000 C 
ATOM      2  C   UNL     1      49.080   3.176  17.001  0.00  0.00    +0.000 C 
ATOM      3  C   UNL     1      47.917   4.855  18.488  0.00  0.00    +0.000 C 
ENDROOT
BRANCH   1  10
ATOM      4  C   UNL     1      51.642   9.845  12.935  0.00  0.00    +0.000 C 
ATOM      5  C   UNL     1      50.237  10.386  13.169  0.00  0.00    +0.000 C 
ATOM      6  C   UNL     1      49.653  10.036  14.551  0.00  0.00    +0.000 C 
ATOM      7  N   UNL     1      48.959   8.748  14.581  0.00  0.00    +0.000 N 
ATOM      8  C   UNL     1      49.496   7.690  15.289  0.00  0.00    +0.000 A 
ATOM      9  C   UNL     1      48.656   6.699  15.777  0.00  0.00    +0.000 A 
ATOM     10  C   UNL     1      49.201   5.640  16.485  0.00  0.00    +0.000 A 
ATOM     11  N   UNL     1      50.529   5.574  16.696  0.00  0.00    +0.000 NA
ATOM     12  C   UNL     1      51.266   6.588  16.216  0.00  0.00    +0.000 A 
ATOM     13  N   UNL     1      50.814   7.649  15.533  0.00  0.00    +0.000 NA
ATOM     14  C   UNL     1      48.065   8.484  13.450  0.00  0.00    +0.000 C 
ATOM     15  C   UNL     1      48.733   8.804  12.098  0.00  0.00    +0.000 C 
ATOM     16  C   UNL     1      49.661   7.703  11.595  0.00  0.00    +0.000 C 
ATOM     17  O   UNL     1      49.355  10.096  12.073  0.00  0.00    +0.000 OA
ENDBRANCH   1  10
BRANCH   1  18
ATOM     18  C   UNL     1      47.025   4.383  16.158  0.00  0.00    +0.000 C 
BRANCH  18  19
ATOM     19  N   UNL     1      47.231   3.588  14.941  0.00  0.00    +0.000 N 
ATOM     20  C   UNL     1      46.400   3.980  13.896  0.00  0.00    +0.000 A 
ATOM     21  N   UNL     1      45.996   5.256  13.800  0.00  0.00    +0.000 NA
ATOM     22  C   UNL     1      45.133   5.564  12.813  0.00  0.00    +0.000 A 
ATOM     23  C   UNL     1      44.679   4.652  11.891  0.00  0.00    +0.000 A 
ATOM     24  C   UNL     1      45.158   3.374  12.060  0.00  0.00    +0.000 A 
ATOM     25  N   UNL     1      46.009   3.014  13.050  0.00  0.00    +0.000 NA
ATOM     26  H   UNL     1      47.084   2.589  15.030  0.00  0.00    +0.000 HD
BRANCH  23  27
ATOM     27  C   UNL     1      43.718   5.067  10.862  0.00  0.00    +0.000 C 
ATOM     28  N   UNL     1      43.995   4.770   9.559  0.00  0.00    +0.000 N 
ATOM     29  O   UNL     1      42.707   5.687  11.165  0.00  0.00    +0.000 OA
ATOM     30  H   UNL     1      44.902   4.474   9.228  0.00  0.00    +0.000 HD
ATOM     31  H   UNL     1      43.359   5.162   8.874  0.00  0.00    +0.000 HD
ENDBRANCH  23  27
ENDBRANCH  18  19
ENDBRANCH   1  18
TORSDOF 4
ENDMDL
MODEL 4
REMARK VINA RESULT:    -6.639      5.475      7.443
REMARK INTER + INTRA:          -9.195
REMARK INTER:                  -8.482
REMARK INTRA:                  -0.713
REMARK UNBOUND:                -1.003
REMARK  Name = 
REMARK  8 active torsions:
REMARK  status: ('A' for Active; 'I' for Inactive)
REMARK    1  A    between atoms: C_1  and  C_2
REMARK    2  A    between atoms: C_7  and  C_8
REMARK    3  A    between atoms: C_8  and  C_9
REMARK    4  A    between atoms: C_8  and  C_10
REMARK    5  A    between atoms: C_8  and  C_11
REMARK    6  A    between atoms: C_11  and  N_12
REMARK    7  A    between atoms: C_16  and  C_17
REMARK    8  A    between atoms: C_26  and  C_27
REMARK                            x       y       z     vdW  Elec       q    Type
REMARK                         _______ _______ _______ _____ _____    ______ ____
ROOT
ATOM      1  C   UNL     1      47.775   4.092  17.314  0.00  0.00    +0.000 C 
ATOM      2  C   UNL     1      46.774   2.927  17.479  0.00  0.00    +0.000 C 
ATOM      3  C   UNL     1      47.530   5.151  18.410  0.00  0.00    +0.000 C 
ENDROOT
BRANCH   1  10
ATOM      4  C   UNL     1      55.216   3.183  17.746  0.00  0.00    +0.000 C 
ATOM      5  C   UNL     1      54.882   4.061  18.946  0.00  0.00    +0.000 C 
ATOM      6  C   UNL     1      53.530   3.732  19.606  0.00  0.00    +0.000 C 
ATOM      7  N   UNL     1      52.400   4.445  19.008  0.00  0.00    +0.000 N 
ATOM      8  C   UNL     1      51.450   3.751  18.283  0.00  0.00    +0.000 A 
ATOM      9  C   UNL     1      50.163   4.258  18.186  0.00  0.00    +0.000 A 
ATOM     10  C   UNL     1      49.214   3.559  17.457  0.00  0.00    +0.000 A 
ATOM     11  N   UNL     1      49.540   2.402  16.851  0.00  0.00    +0.000 NA
ATOM     12  C   UNL     1      50.799   1.968  17.019  0.00  0.00    +0.000 A 
ATOM     13  N   UNL     1      51.767   2.579  17.716  0.00  0.00    +0.000 NA
ATOM     14  C   UNL     1      52.623   5.868  18.737  0.00  0.00    +0.000 C 
ATOM     15  C   UNL     1      53.968   6.118  18.026  0.00  0.00    +0.000 C 
ATOM     16  C   UNL     1      53.928   5.858  16.524  0.00  0.00    +0.000 C 
ATOM     17  O   UNL     1      55.069   5.457  18.666  0.00  0.00    +0.000 OA
ENDBRANCH   1  10
BRANCH   1  18
ATOM     18  C   UNL     1      47.589   4.731  15.905  0.00  0.00    +0.000 C 
BRANCH  18  19
ATOM     19  N   UNL     1      47.407   3.740  14.837  0.00  0.00    +0.000 N 
ATOM     20  C   UNL     1      46.540   4.178  13.840  0.00  0.00    +0.000 A 
ATOM     21  N   UNL     1      46.443   5.487  13.561  0.00  0.00    +0.000 NA
ATOM     22  C   UNL     1      45.535   5.862  12.639  0.00  0.00    +0.000 A 
ATOM     23  C   UNL     1      44.739   4.975  11.956  0.00  0.00    +0.000 A 
ATOM     24  C   UNL     1      44.918   3.656  12.298  0.00  0.00    +0.000 A 
ATOM     25  N   UNL     1      45.803   3.234  13.234  0.00  0.00    +0.000 NA
ATOM     26  H   UNL     1      47.041   2.838  15.123  0.00  0.00    +0.000 HD
BRANCH  23  27
ATOM     27  C   UNL     1      43.756   5.472  10.986  0.00  0.00    +0.000 C 
ATOM     28  N   UNL     1      43.177   6.687  11.215  0.00  0.00    +0.000 N 
ATOM     29  O   UNL     1      43.443   4.800  10.012  0.00  0.00    +0.000 OA
ATOM     30  H   UNL     1      43.217   7.174  12.098  0.00  0.00    +0.000 HD
ATOM     31  H   UNL     1      42.433   6.946  10.578  0.00  0.00    +0.000 HD
ENDBRANCH  23  27
ENDBRANCH  18  19
ENDBRANCH   1  18
TORSDOF 4
ENDMDL
MODEL 5
REMARK VINA RESULT:    -6.407      3.811      6.525
REMARK INTER + INTRA:          -8.908
REMARK INTER:                  -8.029
REMARK INTRA:                  -0.879
REMARK UNBOUND:                -1.003
REMARK  Name = 
REMARK  8 active torsions:
REMARK  status: ('A' for Active; 'I' for Inactive)
REMARK    1  A    between atoms: C_1  and  C_2
REMARK    2  A    between atoms: C_7  and  C_8
REMARK    3  A    between atoms: C_8  and  C_9
REMARK    4  A    between atoms: C_8  and  C_10
REMARK    5  A    between atoms: C_8  and  C_11
REMARK    6  A    between atoms: C_11  and  N_12
REMARK    7  A    between atoms: C_16  and  C_17
REMARK    8  A    between atoms: C_26  and  C_27
REMARK                            x       y       z     vdW  Elec       q    Type
REMARK                         _______ _______ _______ _____ _____    ______ ____
ROOT
ATOM      1  C   UNL     1      49.770   8.378  13.365  0.00  0.00    +0.000 C 
ATOM      2  C   UNL     1      49.141   9.647  12.749  0.00  0.00    +0.000 C 
ATOM      3  C   UNL     1      51.310   8.477  13.306  0.00  0.00    +0.000 C 
ENDROOT
BRANCH   1  10
ATOM      4  C   UNL     1      47.504   6.073  20.142  0.00  0.00    +0.000 C 
ATOM      5  C   UNL     1      48.847   5.382  19.948  0.00  0.00    +0.000 C 
ATOM      6  C   UNL     1      49.883   6.227  19.184  0.00  0.00    +0.000 C 
ATOM      7  N   UNL     1      49.806   6.070  17.731  0.00  0.00    +0.000 N 
ATOM      8  C   UNL     1      49.368   7.119  16.944  0.00  0.00    +0.000 A 
ATOM      9  C   UNL     1      49.785   7.202  15.624  0.00  0.00    +0.000 A 
ATOM     10  C   UNL     1      49.342   8.255  14.840  0.00  0.00    +0.000 A 
ATOM     11  N   UNL     1      48.517   9.186  15.355  0.00  0.00    +0.000 NA
ATOM     12  C   UNL     1      48.185   9.047  16.648  0.00  0.00    +0.000 A 
ATOM     13  N   UNL     1      48.580   8.067  17.472  0.00  0.00    +0.000 NA
ATOM     14  C   UNL     1      49.660   4.693  17.250  0.00  0.00    +0.000 C 
ATOM     15  C   UNL     1      48.570   3.924  18.022  0.00  0.00    +0.000 C 
ATOM     16  C   UNL     1      47.152   4.221  17.543  0.00  0.00    +0.000 C 
ATOM     17  O   UNL     1      48.702   4.044  19.445  0.00  0.00    +0.000 OA
ENDBRANCH   1  10
BRANCH   1  18
ATOM     18  C   UNL     1      49.286   7.129  12.570  0.00  0.00    +0.000 C 
BRANCH  18  19
ATOM     19  N   UNL     1      48.134   7.403  11.702  0.00  0.00    +0.000 N 
ATOM     20  C   UNL     1      47.030   6.614  12.010  0.00  0.00    +0.000 A 
ATOM     21  N   UNL     1      46.833   6.194  13.268  0.00  0.00    +0.000 NA
ATOM     22  C   UNL     1      45.790   5.372  13.496  0.00  0.00    +0.000 A 
ATOM     23  C   UNL     1      44.911   4.976  12.517  0.00  0.00    +0.000 A 
ATOM     24  C   UNL     1      45.184   5.466  11.263  0.00  0.00    +0.000 A 
ATOM     25  N   UNL     1      46.233   6.278  10.983  0.00  0.00    +0.000 NA
ATOM     26  H   UNL     1      48.282   7.268  10.708  0.00  0.00    +0.000 HD
BRANCH  23  27
ATOM     27  C   UNL     1      43.816   4.055  12.847  0.00  0.00    +0.000 C 
ATOM     28  N   UNL     1      43.992   2.724  12.598  0.00  0.00    +0.000 N 
ATOM     29  O   UNL     1      42.763   4.476  13.306  0.00  0.00    +0.000 OA
ATOM     30  H   UNL     1      44.729   2.351  12.018  0.00  0.00    +0.000 HD
ATOM     31  H   UNL     1      43.178   2.139  12.744  0.00  0.00    +0.000 HD
ENDBRANCH  23  27
ENDBRANCH  18  19
ENDBRANCH   1  18
TORSDOF 4
ENDMDL
MODEL 6
REMARK VINA RESULT:    -6.403      3.540      8.231
REMARK INTER + INTRA:          -8.903
REMARK INTER:                  -8.190
REMARK INTRA:                  -0.714
REMARK UNBOUND:                -1.003
REMARK  Name = 
REMARK  8 active torsions:
REMARK  status: ('A' for Active; 'I' for Inactive)
REMARK    1  A    between atoms: C_1  and  C_2
REMARK    2  A    between atoms: C_7  and  C_8
REMARK    3  A    between atoms: C_8  and  C_9
REMARK    4  A    between atoms: C_8  and  C_10
REMARK    5  A    between atoms: C_8  and  C_11
REMARK    6  A    between atoms: C_11  and  N_12
REMARK    7  A    between atoms: C_16  and  C_17
REMARK    8  A    between atoms: C_26  and  C_27
REMARK                            x       y       z     vdW  Elec       q    Type
REMARK                         _______ _______ _______ _____ _____    ______ ____
ROOT
ATOM      1  C   UNL     1      49.152   8.194  12.819  0.00  0.00    +0.000 C 
ATOM      2  C   UNL     1      49.811   7.737  11.499  0.00  0.00    +0.000 C 
ATOM      3  C   UNL     1      49.379   9.707  13.021  0.00  0.00    +0.000 C 
ENDROOT
BRANCH   1  10
ATOM      4  C   UNL     1      42.257   5.498  11.564  0.00  0.00    +0.000 C 
ATOM      5  C   UNL     1      42.924   4.423  12.413  0.00  0.00    +0.000 C 
ATOM      6  C   UNL     1      43.888   4.975  13.479  0.00  0.00    +0.000 C 
ATOM      7  N   UNL     1      45.254   5.167  12.987  0.00  0.00    +0.000 N 
ATOM      8  C   UNL     1      45.762   6.443  12.838  0.00  0.00    +0.000 A 
ATOM      9  C   UNL     1      47.132   6.645  12.910  0.00  0.00    +0.000 A 
ATOM     10  C   UNL     1      47.636   7.927  12.758  0.00  0.00    +0.000 A 
ATOM     11  N   UNL     1      46.804   8.963  12.542  0.00  0.00    +0.000 NA
ATOM     12  C   UNL     1      45.491   8.685  12.515  0.00  0.00    +0.000 A 
ATOM     13  N   UNL     1      44.928   7.478  12.665  0.00  0.00    +0.000 NA
ATOM     14  C   UNL     1      45.793   4.072  12.176  0.00  0.00    +0.000 C 
ATOM     15  C   UNL     1      44.798   3.607  11.095  0.00  0.00    +0.000 C 
ATOM     16  C   UNL     1      44.781   4.493   9.853  0.00  0.00    +0.000 C 
ATOM     17  O   UNL     1      43.482   3.368  11.613  0.00  0.00    +0.000 OA
ENDBRANCH   1  10
BRANCH   1  18
ATOM     18  C   UNL     1      49.778   7.400  14.005  0.00  0.00    +0.000 C 
BRANCH  18  19
ATOM     19  N   UNL     1      49.625   8.074  15.300  0.00  0.00    +0.000 N 
ATOM     20  C   UNL     1      49.448   7.180  16.352  0.00  0.00    +0.000 A 
ATOM     21  N   UNL     1      49.998   5.958  16.296  0.00  0.00    +0.000 NA
ATOM     22  C   UNL     1      49.734   5.108  17.308  0.00  0.00    +0.000 A 
ATOM     23  C   UNL     1      48.965   5.442  18.396  0.00  0.00    +0.000 A 
ATOM     24  C   UNL     1      48.456   6.718  18.374  0.00  0.00    +0.000 A 
ATOM     25  N   UNL     1      48.677   7.600  17.368  0.00  0.00    +0.000 NA
ATOM     26  H   UNL     1      48.849   8.722  15.377  0.00  0.00    +0.000 HD
BRANCH  23  27
ATOM     27  C   UNL     1      48.705   4.445  19.442  0.00  0.00    +0.000 C 
ATOM     28  N   UNL     1      48.436   3.162  19.061  0.00  0.00    +0.000 N 
ATOM     29  O   UNL     1      48.702   4.764  20.623  0.00  0.00    +0.000 OA
ATOM     30  H   UNL     1      48.199   2.891  18.117  0.00  0.00    +0.000 HD
ATOM     31  H   UNL     1      48.163   2.531  19.805  0.00  0.00    +0.000 HD
ENDBRANCH  23  27
ENDBRANCH  18  19
ENDBRANCH   1  18
TORSDOF 4
ENDMDL
MODEL 7
REMARK VINA RESULT:    -6.242      3.558      6.055
REMARK INTER + INTRA:          -8.705
REMARK INTER:                  -8.071
REMARK INTRA:                  -0.634
REMARK UNBOUND:                -1.003
REMARK  Name = 
REMARK  8 active torsions:
REMARK  status: ('A' for Active; 'I' for Inactive)
REMARK    1  A    between atoms: C_1  and  C_2
REMARK    2  A    between atoms: C_7  and  C_8
REMARK    3  A    between atoms: C_8  and  C_9
REMARK    4  A    between atoms: C_8  and  C_10
REMARK    5  A    between atoms: C_8  and  C_11
REMARK    6  A    between atoms: C_11  and  N_12
REMARK    7  A    between atoms: C_16  and  C_17
REMARK    8  A    between atoms: C_26  and  C_27
REMARK                            x       y       z     vdW  Elec       q    Type
REMARK                         _______ _______ _______ _____ _____    ______ ____
ROOT
ATOM      1  C   UNL     1      48.537   8.278  13.254  0.00  0.00    +0.000 C 
ATOM      2  C   UNL     1      48.764   9.805  13.308  0.00  0.00    +0.000 C 
ATOM      3  C   UNL     1      49.015   7.725  11.895  0.00  0.00    +0.000 C 
ENDROOT
BRANCH   1  10
ATOM      4  C   UNL     1      51.002   5.197  19.643  0.00  0.00    +0.000 C 
ATOM      5  C   UNL     1      49.882   4.268  19.194  0.00  0.00    +0.000 C 
ATOM      6  C   UNL     1      49.783   4.097  17.667  0.00  0.00    +0.000 C 
ATOM      7  N   UNL     1      48.946   5.109  17.020  0.00  0.00    +0.000 N 
ATOM      8  C   UNL     1      49.522   6.060  16.199  0.00  0.00    +0.000 A 
ATOM      9  C   UNL     1      48.764   6.643  15.195  0.00  0.00    +0.000 A 
ATOM     10  C   UNL     1      49.346   7.597  14.375  0.00  0.00    +0.000 A 
ATOM     11  N   UNL     1      50.632   7.953  14.554  0.00  0.00    +0.000 NA
ATOM     12  C   UNL     1      51.302   7.320  15.529  0.00  0.00    +0.000 A 
ATOM     13  N   UNL     1      50.814   6.382  16.353  0.00  0.00    +0.000 NA
ATOM     14  C   UNL     1      47.677   5.403  17.691  0.00  0.00    +0.000 C 
ATOM     15  C   UNL     1      47.858   5.617  19.207  0.00  0.00    +0.000 C 
ATOM     16  C   UNL     1      48.354   7.011  19.576  0.00  0.00    +0.000 C 
ATOM     17  O   UNL     1      48.631   4.580  19.828  0.00  0.00    +0.000 OA
ENDBRANCH   1  10
BRANCH   1  18
ATOM     18  C   UNL     1      47.020   7.980  13.446  0.00  0.00    +0.000 C 
BRANCH  18  19
ATOM     19  N   UNL     1      46.275   7.925  12.182  0.00  0.00    +0.000 N 
ATOM     20  C   UNL     1      45.651   6.697  11.980  0.00  0.00    +0.000 A 
ATOM     21  N   UNL     1      45.240   5.971  13.029  0.00  0.00    +0.000 NA
ATOM     22  C   UNL     1      44.709   4.757  12.779  0.00  0.00    +0.000 A 
ATOM     23  C   UNL     1      44.542   4.251  11.513  0.00  0.00    +0.000 A 
ATOM     24  C   UNL     1      44.979   5.071  10.501  0.00  0.00    +0.000 A 
ATOM     25  N   UNL     1      45.537   6.289  10.706  0.00  0.00    +0.000 NA
ATOM     26  H   UNL     1      46.814   8.085  11.338  0.00  0.00    +0.000 HD
BRANCH  23  27
ATOM     27  C   UNL     1      43.979   2.907  11.331  0.00  0.00    +0.000 C 
ATOM     28  N   UNL     1      43.640   2.191  12.443  0.00  0.00    +0.000 N 
ATOM     29  O   UNL     1      43.845   2.432  10.212  0.00  0.00    +0.000 OA
ATOM     30  H   UNL     1      43.935   2.428  13.379  0.00  0.00    +0.000 HD
ATOM     31  H   UNL     1      43.352   1.234  12.278  0.00  0.00    +0.000 HD
ENDBRANCH  23  27
ENDBRANCH  18  19
ENDBRANCH   1  18
TORSDOF 4
ENDMDL
