MODEL 1
REMARK VINA RESULT:    -8.046      0.000      0.000
REMARK INTER + INTRA:         -10.533
REMARK INTER:                  -9.927
REMARK INTRA:                  -0.606
REMARK UNBOUND:                -0.606
REMARK  Name = 
REMARK  5 active torsions:
REMARK  status: ('A' for Active; 'I' for Inactive)
REMARK    1  A    between atoms: C_1  and  C_2
REMARK    2  A    between atoms: C_2  and  O_3
REMARK    3  A    between atoms: C_2  and  C_13
REMARK    4  A    between atoms: O_3  and  C_4
REMARK    5  A    between atoms: C_7  and  C_8
REMARK                            x       y       z     vdW  Elec       q    Type
REMARK                         _______ _______ _______ _____ _____    ______ ____
ROOT
ATOM      1  C   UNL     1      44.505   3.903   9.112  0.00  0.00    +0.000 A 
ATOM      2  C   UNL     1      45.503   4.312   8.234  0.00  0.00    +0.000 A 
ATOM      3  C   UNL     1      46.364   3.374   7.668  0.00  0.00    +0.000 A 
ATOM      4  C   UNL     1      46.189   2.036   7.989  0.00  0.00    +0.000 A 
ATOM      5  N   UNL     1      45.231   1.586   8.843  0.00  0.00    +0.000 NA
ATOM      6  C   UNL     1      44.423   2.537   9.387  0.00  0.00    +0.000 A 
ENDROOT
BRANCH   4   7
ATOM      7  C   UNL     1      47.099   1.024   7.360  0.00  0.00    +0.000 C 
ATOM      8  N   UNL     1      46.833  -0.284   7.668  0.00  0.00    +0.000 N 
ATOM      9  O   UNL     1      48.010   1.337   6.609  0.00  0.00    +0.000 OA
ATOM     10  H   UNL     1      46.063  -0.512   8.288  0.00  0.00    +0.000 HD
ATOM     11  H   UNL     1      47.412  -1.008   7.263  0.00  0.00    +0.000 HD
ENDBRANCH   4   7
BRANCH   1  12
ATOM     12  O   UNL     1      43.617   4.723   9.755  0.00  0.00    +0.000 OA
BRANCH  12  14
ATOM     13  C   UNL     1      42.427   5.528  11.748  0.00  0.00    +0.000 C 
ATOM     14  C   UNL     1      43.556   4.651  11.190  0.00  0.00    +0.000 C 
BRANCH  14  15
ATOM     15  C   UNL     1      44.855   5.158  11.794  0.00  0.00    +0.000 A 
ATOM     16  C   UNL     1      45.445   6.374  11.432  0.00  0.00    +0.000 A 
ATOM     17  C   UNL     1      46.543   6.849  12.147  0.00  0.00    +0.000 A 
ATOM     18  C   UNL     1      47.013   6.085  13.200  0.00  0.00    +0.000 A 
ATOM     19 CL   UNL     1      48.312   6.631  14.178  0.00  0.00    +0.000 Cl
ATOM     20  N   UNL     1      46.494   4.898  13.572  0.00  0.00    +0.000 NA
ATOM     21  C   UNL     1      45.431   4.466  12.861  0.00  0.00    +0.000 A 
ENDBRANCH  14  15
ENDBRANCH  12  14
ENDBRANCH   1  12
TORSDOF 4
ENDMDL
MODEL 2
REMARK VINA RESULT:    -6.731      3.367      6.651
REMARK INTER + INTRA:          -8.911
REMARK INTER:                  -8.360
REMARK INTRA:                  -0.551
REMARK UNBOUND:                -0.606
REMARK  Name = 
REMARK  5 active torsions:
REMARK  status: ('A' for Active; 'I' for Inactive)
REMARK    1  A    between atoms: C_1  and  C_2
REMARK    2  A    between atoms: C_2  and  O_3
REMARK    3  A    between atoms: C_2  and  C_13
REMARK    4  A    between atoms: O_3  and  C_4
REMARK    5  A    between atoms: C_7  and  C_8
REMARK                            x       y       z     vdW  Elec       q    Type
REMARK                         _______ _______ _______ _____ _____    ______ ____
ROOT
ATOM      1  C   UNL     1      45.994   4.994  12.697  0.00  0.00    +0.000 A 
ATOM      2  C   UNL     1      45.571   6.283  12.388  0.00  0.00    +0.000 A 
ATOM      3  C   UNL     1      46.262   7.384  12.890  0.00  0.00    +0.000 A 
ATOM      4  C   UNL     1      47.378   7.162  13.682  0.00  0.00    +0.000 A 
ATOM      5  N   UNL     1      47.830   5.923  14.014  0.00  0.00    +0.000 NA
ATOM      6  C   UNL     1      47.116   4.875  13.518  0.00  0.00    +0.000 A 
ENDROOT
BRANCH   4   7
ATOM      7  C   UNL     1      48.137   8.347  14.200  0.00  0.00    +0.000 C 
ATOM      8  N   UNL     1      47.499   9.082  15.164  0.00  0.00    +0.000 N 
ATOM      9  O   UNL     1      49.255   8.636  13.803  0.00  0.00    +0.000 OA
ATOM     10  H   UNL     1      46.574   8.811  15.479  0.00  0.00    +0.000 HD
ATOM     11  H   UNL     1      47.971   9.888  15.555  0.00  0.00    +0.000 HD
ENDBRANCH   4   7
BRANCH   1  12
ATOM     12  O   UNL     1      45.390   3.834  12.295  0.00  0.00    +0.000 OA
BRANCH  12  14
ATOM     13  C   UNL     1      43.306   2.899  11.388  0.00  0.00    +0.000 C 
ATOM     14  C   UNL     1      44.446   3.910  11.211  0.00  0.00    +0.000 C 
BRANCH  14  15
ATOM     15  C   UNL     1      45.134   3.581   9.897  0.00  0.00    +0.000 A 
ATOM     16  C   UNL     1      45.283   2.275   9.416  0.00  0.00    +0.000 A 
ATOM     17  C   UNL     1      45.774   2.065   8.129  0.00  0.00    +0.000 A 
ATOM     18  C   UNL     1      46.100   3.174   7.368  0.00  0.00    +0.000 A 
ATOM     19 CL   UNL     1      46.639   3.007   5.748  0.00  0.00    +0.000 Cl
ATOM     20  N   UNL     1      45.995   4.447   7.794  0.00  0.00    +0.000 NA
ATOM     21  C   UNL     1      45.517   4.618   9.045  0.00  0.00    +0.000 A 
ENDBRANCH  14  15
ENDBRANCH  12  14
ENDBRANCH   1  12
TORSDOF 4
ENDMDL
MODEL 3
REMARK VINA RESULT:    -6.651      3.094      6.053
REMARK INTER + INTRA:          -8.812
REMARK INTER:                  -9.353
REMARK INTRA:                   0.541
REMARK UNBOUND:                -0.606
REMARK  Name = 
REMARK  5 active torsions:
REMARK  status: ('A' for Active; 'I' for Inactive)
REMARK    1  A    between atoms: C_1  and  C_2
REMARK    2  A    between atoms: C_2  and  O_3
REMARK    3  A    between atoms: C_2  and  C_13
REMARK    4  A    between atoms: O_3  and  C_4
REMARK    5  A    between atoms: C_7  and  C_8
REMARK                            x       y       z     vdW  Elec       q    Type
REMARK                         _______ _______ _______ _____ _____    ______ ____
ROOT
ATOM      1  C   UNL     1      45.124   5.255  11.881  0.00  0.00    +0.000 A 
ATOM      2  C   UNL     1      46.399   5.804  11.963  0.00  0.00    +0.000 A 
ATOM      3  C   UNL     1      47.160   5.633  13.118  0.00  0.00    +0.000 A 
ATOM      4  C   UNL     1      46.624   4.893  14.161  0.00  0.00    +0.000 A 
ATOM      5  N   UNL     1      45.382   4.338  14.130  0.00  0.00    +0.000 NA
ATOM      6  C   UNL     1      44.665   4.545  12.992  0.00  0.00    +0.000 A 
ENDROOT
BRANCH   4   7
ATOM      7  C   UNL     1      47.454   4.686  15.393  0.00  0.00    +0.000 C 
ATOM      8  N   UNL     1      47.049   3.669  16.216  0.00  0.00    +0.000 N 
ATOM      9  O   UNL     1      48.436   5.367  15.645  0.00  0.00    +0.000 OA
ATOM     10  H   UNL     1      46.234   3.116  15.973  0.00  0.00    +0.000 HD
ATOM     11  H   UNL     1      47.580   3.481  17.056  0.00  0.00    +0.000 HD
ENDBRANCH   4   7
BRANCH   1  12
ATOM     12  O   UNL     1      44.267   5.375  10.820  0.00  0.00    +0.000 OA
BRANCH  12  14
ATOM     13  C   UNL     1      43.484   3.079  11.209  0.00  0.00    +0.000 C 
ATOM     14  C   UNL     1      43.817   4.168  10.181  0.00  0.00    +0.000 C 
BRANCH  14  15
ATOM     15  C   UNL     1      44.911   3.614   9.283  0.00  0.00    +0.000 A 
ATOM     16  C   UNL     1      45.201   2.249   9.182  0.00  0.00    +0.000 A 
ATOM     17  C   UNL     1      46.102   1.804   8.216  0.00  0.00    +0.000 A 
ATOM     18  C   UNL     1      46.682   2.746   7.385  0.00  0.00    +0.000 A 
ATOM     19 CL   UNL     1      47.744   2.277   6.122  0.00  0.00    +0.000 Cl
ATOM     20  N   UNL     1      46.452   4.071   7.459  0.00  0.00    +0.000 NA
ATOM     21  C   UNL     1      45.576   4.471   8.404  0.00  0.00    +0.000 A 
ENDBRANCH  14  15
ENDBRANCH  12  14
ENDBRANCH   1  12
TORSDOF 4
ENDMDL
MODEL 4
REMARK VINA RESULT:    -6.643      3.432      6.584
REMARK INTER + INTRA:          -8.803
REMARK INTER:                  -8.255
REMARK INTRA:                  -0.548
REMARK UNBOUND:                -0.606
REMARK  Name = 
REMARK  5 active torsions:
REMARK  status: ('A' for Active; 'I' for Inactive)
REMARK    1  A    between atoms: C_1  and  C_2
REMARK    2  A    between atoms: C_2  and  O_3
REMARK    3  A    between atoms: C_2  and  C_13
REMARK    4  A    between atoms: O_3  and  C_4
REMARK    5  A    between atoms: C_7  and  C_8
REMARK                            x       y       z     vdW  Elec       q    Type
REMARK                         _______ _______ _______ _____ _____    ______ ____
ROOT
ATOM      1  C   UNL     1      45.506   5.770  11.903  0.00  0.00    +0.000 A 
ATOM      2  C   UNL     1      46.721   6.321  12.297  0.00  0.00    +0.000 A 
ATOM      3  C   UNL     1      46.876   7.705  12.348  0.00  0.00    +0.000 A 
ATOM      4  C   UNL     1      45.793   8.506  12.018  0.00  0.00    +0.000 A 
ATOM      5  N   UNL     1      44.587   8.016  11.625  0.00  0.00    +0.000 NA
ATOM      6  C   UNL     1      44.484   6.659  11.570  0.00  0.00    +0.000 A 
ENDROOT
BRANCH   4   7
ATOM      7  C   UNL     1      45.953   9.995  12.099  0.00  0.00    +0.000 C 
ATOM      8  N   UNL     1      44.787  10.713  12.142  0.00  0.00    +0.000 N 
ATOM      9  O   UNL     1      47.046  10.537  12.138  0.00  0.00    +0.000 OA
ATOM     10  H   UNL     1      43.895  10.232  12.116  0.00  0.00    +0.000 HD
ATOM     11  H   UNL     1      44.838  11.721  12.206  0.00  0.00    +0.000 HD
ENDBRANCH   4   7
BRANCH   1  12
ATOM     12  O   UNL     1      45.234   4.433  11.783  0.00  0.00    +0.000 OA
BRANCH  12  14
ATOM     13  C   UNL     1      43.383   2.884  11.326  0.00  0.00    +0.000 C 
ATOM     14  C   UNL     1      44.257   4.033  10.806  0.00  0.00    +0.000 C 
BRANCH  14  15
ATOM     15  C   UNL     1      44.949   3.535   9.549  0.00  0.00    +0.000 A 
ATOM     16  C   UNL     1      45.520   4.390   8.599  0.00  0.00    +0.000 A 
ATOM     17  C   UNL     1      46.281   3.857   7.561  0.00  0.00    +0.000 A 
ATOM     18  C   UNL     1      46.442   2.484   7.509  0.00  0.00    +0.000 A 
ATOM     19 CL   UNL     1      47.424   1.753   6.308  0.00  0.00    +0.000 Cl
ATOM     20  N   UNL     1      45.893   1.620   8.385  0.00  0.00    +0.000 NA
ATOM     21  C   UNL     1      45.162   2.166   9.380  0.00  0.00    +0.000 A 
ENDBRANCH  14  15
ENDBRANCH  12  14
ENDBRANCH   1  12
TORSDOF 4
ENDMDL
MODEL 5
REMARK VINA RESULT:    -6.570      3.504      6.515
REMARK INTER + INTRA:          -8.712
REMARK INTER:                  -8.234
REMARK INTRA:                  -0.478
REMARK UNBOUND:                -0.606
REMARK  Name = 
REMARK  5 active torsions:
REMARK  status: ('A' for Active; 'I' for Inactive)
REMARK    1  A    between atoms: C_1  and  C_2
REMARK    2  A    between atoms: C_2  and  O_3
REMARK    3  A    between atoms: C_2  and  C_13
REMARK    4  A    between atoms: O_3  and  C_4
REMARK    5  A    between atoms: C_7  and  C_8
REMARK                            x       y       z     vdW  Elec       q    Type
REMARK                         _______ _______ _______ _____ _____    ______ ____
ROOT
ATOM      1  C   UNL     1      46.144   5.276  12.978  0.00  0.00    +0.000 A 
ATOM      2  C   UNL     1      46.599   6.458  12.402  0.00  0.00    +0.000 A 
ATOM      3  C   UNL     1      47.678   7.138  12.963  0.00  0.00    +0.000 A 
ATOM      4  C   UNL     1      48.289   6.600  14.086  0.00  0.00    +0.000 A 
ATOM      5  N   UNL     1      47.881   5.450  14.687  0.00  0.00    +0.000 NA
ATOM      6  C   UNL     1      46.812   4.828  14.119  0.00  0.00    +0.000 A 
ENDROOT
BRANCH   4   7
ATOM      7  C   UNL     1      49.467   7.319  14.673  0.00  0.00    +0.000 C 
ATOM      8  N   UNL     1      50.498   7.571  13.808  0.00  0.00    +0.000 N 
ATOM      9  O   UNL     1      49.505   7.671  15.842  0.00  0.00    +0.000 OA
ATOM     10  H   UNL     1      50.432   7.272  12.841  0.00  0.00    +0.000 HD
ATOM     11  H   UNL     1      51.314   8.061  14.151  0.00  0.00    +0.000 HD
ENDBRANCH   4   7
BRANCH   1  12
ATOM     12  O   UNL     1      45.080   4.531  12.545  0.00  0.00    +0.000 OA
BRANCH  12  14
ATOM     13  C   UNL     1      42.925   4.552  11.365  0.00  0.00    +0.000 C 
ATOM     14  C   UNL     1      44.404   4.958  11.349  0.00  0.00    +0.000 C 
BRANCH  14  15
ATOM     15  C   UNL     1      45.034   4.304  10.131  0.00  0.00    +0.000 A 
ATOM     16  C   UNL     1      44.875   2.948   9.823  0.00  0.00    +0.000 A 
ATOM     17  C   UNL     1      45.342   2.458   8.605  0.00  0.00    +0.000 A 
ATOM     18  C   UNL     1      45.954   3.346   7.738  0.00  0.00    +0.000 A 
ATOM     19 CL   UNL     1      46.490   2.842   6.188  0.00  0.00    +0.000 Cl
ATOM     20  N   UNL     1      46.150   4.653   7.999  0.00  0.00    +0.000 NA
ATOM     21  C   UNL     1      45.687   5.097   9.187  0.00  0.00    +0.000 A 
ENDBRANCH  14  15
ENDBRANCH  12  14
ENDBRANCH   1  12
TORSDOF 4
ENDMDL
MODEL 6
REMARK VINA RESULT:    -6.223      3.366      6.566
REMARK INTER + INTRA:          -8.285
REMARK INTER:                  -7.723
REMARK INTRA:                  -0.561
REMARK UNBOUND:                -0.606
REMARK  Name = 
REMARK  5 active torsions:
REMARK  status: ('A' for Active; 'I' for Inactive)
REMARK    1  A    between atoms: C_1  and  C_2
REMARK    2  A    between atoms: C_2  and  O_3
REMARK    3  A    between atoms: C_2  and  C_13
REMARK    4  A    between atoms: O_3  and  C_4
REMARK    5  A    between atoms: C_7  and  C_8
REMARK                            x       y       z     vdW  Elec       q    Type
REMARK                         _______ _______ _______ _____ _____    ______ ____
ROOT
ATOM      1  C   UNL     1      45.959   5.242  12.619  0.00  0.00    +0.000 A 
ATOM      2  C   UNL     1      47.305   5.475  12.884  0.00  0.00    +0.000 A 
ATOM      3  C   UNL     1      47.754   6.771  13.133  0.00  0.00    +0.000 A 
ATOM      4  C   UNL     1      46.830   7.804  13.128  0.00  0.00    +0.000 A 
ATOM      5  N   UNL     1      45.505   7.629  12.873  0.00  0.00    +0.000 NA
ATOM      6  C   UNL     1      45.112   6.351  12.616  0.00  0.00    +0.000 A 
ENDROOT
BRANCH   4   7
ATOM      7  C   UNL     1      47.309   9.194  13.423  0.00  0.00    +0.000 C 
ATOM      8  N   UNL     1      46.726  10.190  12.685  0.00  0.00    +0.000 N 
ATOM      9  O   UNL     1      48.152   9.432  14.274  0.00  0.00    +0.000 OA
ATOM     10  H   UNL     1      46.023   9.961  11.992  0.00  0.00    +0.000 HD
ATOM     11  H   UNL     1      47.007  11.148  12.851  0.00  0.00    +0.000 HD
ENDBRANCH   4   7
BRANCH   1  12
ATOM     12  O   UNL     1      45.398   4.027  12.330  0.00  0.00    +0.000 OA
BRANCH  12  14
ATOM     13  C   UNL     1      43.300   2.905  11.718  0.00  0.00    +0.000 C 
ATOM     14  C   UNL     1      44.324   3.995  11.375  0.00  0.00    +0.000 C 
BRANCH  14  15
ATOM     15  C   UNL     1      44.866   3.679   9.991  0.00  0.00    +0.000 A 
ATOM     16  C   UNL     1      45.358   4.657   9.119  0.00  0.00    +0.000 A 
ATOM     17  C   UNL     1      45.991   4.274   7.938  0.00  0.00    +0.000 A 
ATOM     18  C   UNL     1      46.106   2.921   7.671  0.00  0.00    +0.000 A 
ATOM     19 CL   UNL     1      46.935   2.363   6.277  0.00  0.00    +0.000 Cl
ATOM     20  N   UNL     1      45.628   1.945   8.467  0.00  0.00    +0.000 NA
ATOM     21  C   UNL     1      45.021   2.347   9.603  0.00  0.00    +0.000 A 
ENDBRANCH  14  15
ENDBRANCH  12  14
ENDBRANCH   1  12
TORSDOF 4
ENDMDL
MODEL 7
REMARK VINA RESULT:    -5.605      4.062      6.169
REMARK INTER + INTRA:          -7.521
REMARK INTER:                  -7.055
REMARK INTRA:                  -0.466
REMARK UNBOUND:                -0.606
REMARK  Name = 
REMARK  5 active torsions:
REMARK  status: ('A' for Active; 'I' for Inactive)
REMARK    1  A    between atoms: C_1  and  C_2
REMARK    2  A    between atoms: C_2  and  O_3
REMARK    3  A    between atoms: C_2  and  C_13
REMARK    4  A    between atoms: O_3  and  C_4
REMARK    5  A    between atoms: C_7  and  C_8
REMARK                            x       y       z     vdW  Elec       q    Type
REMARK                         _______ _______ _______ _____ _____    ______ ____
ROOT
ATOM      1  C   UNL     1      46.978   5.232  13.504  0.00  0.00    +0.000 A 
ATOM      2  C   UNL     1      46.183   6.210  12.915  0.00  0.00    +0.000 A 
ATOM      3  C   UNL     1      44.961   5.864  12.341  0.00  0.00    +0.000 A 
ATOM      4  C   UNL     1      44.558   4.538  12.389  0.00  0.00    +0.000 A 
ATOM      5  N   UNL     1      45.299   3.546  12.951  0.00  0.00    +0.000 NA
ATOM      6  C   UNL     1      46.494   3.923  13.483  0.00  0.00    +0.000 A 
ENDROOT
BRANCH   4   7
ATOM      7  C   UNL     1      43.230   4.172  11.795  0.00  0.00    +0.000 C 
ATOM      8  N   UNL     1      42.278   5.155  11.821  0.00  0.00    +0.000 N 
ATOM      9  O   UNL     1      43.011   3.075  11.305  0.00  0.00    +0.000 OA
ATOM     10  H   UNL     1      42.494   6.059  12.228  0.00  0.00    +0.000 HD
ATOM     11  H   UNL     1      41.367   4.963  11.425  0.00  0.00    +0.000 HD
ENDBRANCH   4   7
BRANCH   1  12
ATOM     12  O   UNL     1      48.206   5.434  14.073  0.00  0.00    +0.000 OA
BRANCH  12  14
ATOM     13  C   UNL     1      49.564   7.425  14.552  0.00  0.00    +0.000 C 
ATOM     14  C   UNL     1      48.361   6.561  14.953  0.00  0.00    +0.000 C 
BRANCH  14  15
ATOM     15  C   UNL     1      48.608   6.084  16.374  0.00  0.00    +0.000 A 
ATOM     16  C   UNL     1      48.975   6.943  17.417  0.00  0.00    +0.000 A 
ATOM     17  C   UNL     1      49.020   6.461  18.724  0.00  0.00    +0.000 A 
ATOM     18  C   UNL     1      48.696   5.133  18.940  0.00  0.00    +0.000 A 
ATOM     19 CL   UNL     1      48.654   4.479  20.525  0.00  0.00    +0.000 Cl
ATOM     20  N   UNL     1      48.359   4.264  17.967  0.00  0.00    +0.000 NA
ATOM     21  C   UNL     1      48.324   4.760  16.712  0.00  0.00    +0.000 A 
ENDBRANCH  14  15
ENDBRANCH  12  14
ENDBRANCH   1  12
TORSDOF 4
ENDMDL
MODEL 8
REMARK VINA RESULT:    -5.491      4.010      6.080
REMARK INTER + INTRA:          -7.381
REMARK INTER:                  -6.884
REMARK INTRA:                  -0.497
REMARK UNBOUND:                -0.606
REMARK  Name = 
REMARK  5 active torsions:
REMARK  status: ('A' for Active; 'I' for Inactive)
REMARK    1  A    between atoms: C_1  and  C_2
REMARK    2  A    between atoms: C_2  and  O_3
REMARK    3  A    between atoms: C_2  and  C_13
REMARK    4  A    between atoms: O_3  and  C_4
REMARK    5  A    between atoms: C_7  and  C_8
REMARK                            x       y       z     vdW  Elec       q    Type
REMARK                         _______ _______ _______ _____ _____    ______ ____
ROOT
ATOM      1  C   UNL     1      47.048   5.527  13.079  0.00  0.00    +0.000 A 
ATOM      2  C   UNL     1      46.416   6.156  12.011  0.00  0.00    +0.000 A 
ATOM      3  C   UNL     1      45.175   5.701  11.568  0.00  0.00    +0.000 A 
ATOM      4  C   UNL     1      44.589   4.629  12.225  0.00  0.00    +0.000 A 
ATOM      5  N   UNL     1      45.168   3.980  13.271  0.00  0.00    +0.000 NA
ATOM      6  C   UNL     1      46.387   4.444  13.660  0.00  0.00    +0.000 A 
ENDROOT
BRANCH   4   7
ATOM      7  C   UNL     1      43.242   4.157  11.765  0.00  0.00    +0.000 C 
ATOM      8  N   UNL     1      42.253   5.104  11.759  0.00  0.00    +0.000 N 
ATOM      9  O   UNL     1      43.038   3.008  11.404  0.00  0.00    +0.000 OA
ATOM     10  H   UNL     1      42.458   6.052  12.057  0.00  0.00    +0.000 HD
ATOM     11  H   UNL     1      41.327   4.840  11.449  0.00  0.00    +0.000 HD
ENDBRANCH   4   7
BRANCH   1  12
ATOM     12  O   UNL     1      48.275   5.856  13.589  0.00  0.00    +0.000 OA
BRANCH  12  14
ATOM     13  C   UNL     1      49.130   8.082  14.181  0.00  0.00    +0.000 C 
ATOM     14  C   UNL     1      48.326   6.853  14.625  0.00  0.00    +0.000 C 
BRANCH  14  15
ATOM     15  C   UNL     1      49.013   6.291  15.858  0.00  0.00    +0.000 A 
ATOM     16  C   UNL     1      48.448   5.295  16.662  0.00  0.00    +0.000 A 
ATOM     17  C   UNL     1      49.207   4.713  17.675  0.00  0.00    +0.000 A 
ATOM     18  C   UNL     1      50.508   5.152  17.848  0.00  0.00    +0.000 A 
ATOM     19 CL   UNL     1      51.534   4.438  19.023  0.00  0.00    +0.000 Cl
ATOM     20  N   UNL     1      51.087   6.122  17.115  0.00  0.00    +0.000 NA
ATOM     21  C   UNL     1      50.327   6.666  16.142  0.00  0.00    +0.000 A 
ENDBRANCH  14  15
ENDBRANCH  12  14
ENDBRANCH   1  12
TORSDOF 4
ENDMDL
MODEL 9
REMARK VINA RESULT:    -5.328      4.648      6.995
REMARK INTER + INTRA:          -7.180
REMARK INTER:                  -6.702
REMARK INTRA:                  -0.478
REMARK UNBOUND:                -0.606
REMARK  Name = 
REMARK  5 active torsions:
REMARK  status: ('A' for Active; 'I' for Inactive)
REMARK    1  A    between atoms: C_1  and  C_2
REMARK    2  A    between atoms: C_2  and  O_3
REMARK    3  A    between atoms: C_2  and  C_13
REMARK    4  A    between atoms: O_3  and  C_4
REMARK    5  A    between atoms: C_7  and  C_8
REMARK                            x       y       z     vdW  Elec       q    Type
REMARK                         _______ _______ _______ _____ _____    ______ ____
ROOT
ATOM      1  C   UNL     1      47.515   5.566  14.452  0.00  0.00    +0.000 A 
ATOM      2  C   UNL     1      47.206   6.551  13.520  0.00  0.00    +0.000 A 
ATOM      3  C   UNL     1      46.116   6.387  12.666  0.00  0.00    +0.000 A 
ATOM      4  C   UNL     1      45.349   5.238  12.784  0.00  0.00    +0.000 A 
ATOM      5  N   UNL     1      45.611   4.246  13.677  0.00  0.00    +0.000 NA
ATOM      6  C   UNL     1      46.695   4.437  14.479  0.00  0.00    +0.000 A 
ENDROOT
BRANCH   4   7
ATOM      7  C   UNL     1      44.161   5.074  11.883  0.00  0.00    +0.000 C 
ATOM      8  N   UNL     1      43.228   6.074  11.947  0.00  0.00    +0.000 N 
ATOM      9  O   UNL     1      44.036   4.122  11.129  0.00  0.00    +0.000 OA
ATOM     10  H   UNL     1      43.366   6.856  12.578  0.00  0.00    +0.000 HD
ATOM     11  H   UNL     1      42.411   6.017  11.353  0.00  0.00    +0.000 HD
ENDBRANCH   4   7
BRANCH   1  12
ATOM     12  O   UNL     1      48.570   5.591  15.324  0.00  0.00    +0.000 OA
BRANCH  12  14
ATOM     13  C   UNL     1      48.467   6.360  17.656  0.00  0.00    +0.000 C 
ATOM     14  C   UNL     1      48.328   5.182  16.682  0.00  0.00    +0.000 C 
BRANCH  14  15
ATOM     15  C   UNL     1      49.346   4.134  17.101  0.00  0.00    +0.000 A 
ATOM     16  C   UNL     1      49.146   2.760  16.927  0.00  0.00    +0.000 A 
ATOM     17  C   UNL     1      50.191   1.873  17.181  0.00  0.00    +0.000 A 
ATOM     18  C   UNL     1      51.401   2.396  17.602  0.00  0.00    +0.000 A 
ATOM     19 CL   UNL     1      52.759   1.382  17.864  0.00  0.00    +0.000 Cl
ATOM     20  N   UNL     1      51.634   3.707  17.804  0.00  0.00    +0.000 NA
ATOM     21  C   UNL     1      50.603   4.541  17.550  0.00  0.00    +0.000 A 
ENDBRANCH  14  15
ENDBRANCH  12  14
ENDBRANCH   1  12
TORSDOF 4
ENDMDL
