MODEL 1
REMARK VINA RESULT:    -8.509      0.000      0.000
REMARK INTER + INTRA:         -11.613
REMARK INTER:                 -10.997
REMARK INTRA:                  -0.616
REMARK UNBOUND:                -0.616
REMARK  Name = 
REMARK  8 active torsions:
REMARK  status: ('A' for Active; 'I' for Inactive)
REMARK    1  A    between atoms: C_1  and  C_2
REMARK    2  A    between atoms: C_2  and  C_3
REMARK    3  A    between atoms: C_2  and  C_4
REMARK    4  A    between atoms: C_2  and  C_5
REMARK    5  A    between atoms: N_7  and  C_8
REMARK    6  A    between atoms: C_8  and  C_9
REMARK    7  A    between atoms: C_12  and  C_13
REMARK    8  A    between atoms: C_21  and  C_22
REMARK                            x       y       z     vdW  Elec       q    Type
REMARK                         _______ _______ _______ _____ _____    ______ ____
ROOT
ATOM      1  C   UNL     1      46.255   7.243  12.141  0.00  0.00    +0.000 A 
ATOM      2  C   UNL     1      45.405   6.846  11.117  0.00  0.00    +0.000 A 
ATOM      3  N   UNL     1      45.072   5.524  11.295  0.00  0.00    +0.000 N 
ATOM      4  C   UNL     1      45.705   5.034  12.408  0.00  0.00    +0.000 A 
ATOM      5  N   UNL     1      45.598   3.773  12.878  0.00  0.00    +0.000 NA
ATOM      6  C   UNL     1      46.294   3.567  14.026  0.00  0.00    +0.000 A 
ATOM      7  C   UNL     1      47.057   4.519  14.693  0.00  0.00    +0.000 A 
ATOM      8  C   UNL     1      47.166   5.793  14.138  0.00  0.00    +0.000 A 
ATOM      9  C   UNL     1      46.447   6.076  12.961  0.00  0.00    +0.000 A 
ENDROOT
BRANCH   7  10
ATOM     10  C   UNL     1      47.725   4.155  15.959  0.00  0.00    +0.000 C 
ATOM     11  N   UNL     1      47.110   3.216  16.745  0.00  0.00    +0.000 N 
ATOM     12  O   UNL     1      48.799   4.643  16.278  0.00  0.00    +0.000 OA
ATOM     13  H   UNL     1      46.361   2.625  16.414  0.00  0.00    +0.000 HD
ATOM     14  H   UNL     1      47.624   2.903  17.559  0.00  0.00    +0.000 HD
ENDBRANCH   7  10
BRANCH   1  16
ATOM     15  C   UNL     1      46.995   8.951  13.881  0.00  0.00    +0.000 C 
ATOM     16  C   UNL     1      46.839   8.636  12.376  0.00  0.00    +0.000 C 
ATOM     17  C   UNL     1      45.923   9.721  11.774  0.00  0.00    +0.000 C 
ATOM     18  C   UNL     1      48.243   8.736  11.740  0.00  0.00    +0.000 C 
ENDBRANCH   1  16
BRANCH   3  19
ATOM     19  C   UNL     1      44.188   4.759  10.421  0.00  0.00    +0.000 C 
BRANCH  19  20
ATOM     20  C   UNL     1      44.965   3.903   9.457  0.00  0.00    +0.000 A 
ATOM     21  C   UNL     1      45.700   4.472   8.411  0.00  0.00    +0.000 A 
ATOM     22  C   UNL     1      46.458   3.663   7.571  0.00  0.00    +0.000 A 
ATOM     23  C   UNL     1      46.446   2.294   7.794  0.00  0.00    +0.000 A 
ATOM     24  N   UNL     1      45.714   1.692   8.776  0.00  0.00    +0.000 NA
ATOM     25  C   UNL     1      44.996   2.515   9.576  0.00  0.00    +0.000 A 
BRANCH  23  26
ATOM     26  C   UNL     1      47.304   1.406   6.946  0.00  0.00    +0.000 C 
ATOM     27  N   UNL     1      48.324   2.028   6.281  0.00  0.00    +0.000 N 
ATOM     28  O   UNL     1      47.105   0.202   6.836  0.00  0.00    +0.000 OA
ATOM     29  H   UNL     1      48.438   3.032   6.366  0.00  0.00    +0.000 HD
ATOM     30  H   UNL     1      48.910   1.492   5.657  0.00  0.00    +0.000 HD
ENDBRANCH  23  26
ENDBRANCH  19  20
ENDBRANCH   3  19
TORSDOF 5
ENDMDL
MODEL 2
REMARK VINA RESULT:    -7.688      2.836      7.051
REMARK INTER + INTRA:         -10.552
REMARK INTER:                  -9.855
REMARK INTRA:                  -0.697
REMARK UNBOUND:                -0.616
REMARK  Name = 
REMARK  8 active torsions:
REMARK  status: ('A' for Active; 'I' for Inactive)
REMARK    1  A    between atoms: C_1  and  C_2
REMARK    2  A    between atoms: C_2  and  C_3
REMARK    3  A    between atoms: C_2  and  C_4
REMARK    4  A    between atoms: C_2  and  C_5
REMARK    5  A    between atoms: N_7  and  C_8
REMARK    6  A    between atoms: C_8  and  C_9
REMARK    7  A    between atoms: C_12  and  C_13
REMARK    8  A    between atoms: C_21  and  C_22
REMARK                            x       y       z     vdW  Elec       q    Type
REMARK                         _______ _______ _______ _____ _____    ______ ____
ROOT
ATOM      1  C   UNL     1      48.007   6.745  13.621  0.00  0.00    +0.000 A 
ATOM      2  C   UNL     1      48.147   6.230  14.903  0.00  0.00    +0.000 A 
ATOM      3  N   UNL     1      47.288   5.168  15.059  0.00  0.00    +0.000 N 
ATOM      4  C   UNL     1      46.566   4.986  13.908  0.00  0.00    +0.000 A 
ATOM      5  N   UNL     1      45.634   4.029  13.711  0.00  0.00    +0.000 NA
ATOM      6  C   UNL     1      45.104   4.044  12.459  0.00  0.00    +0.000 A 
ATOM      7  C   UNL     1      45.447   4.931  11.445  0.00  0.00    +0.000 A 
ATOM      8  C   UNL     1      46.386   5.926  11.719  0.00  0.00    +0.000 A 
ATOM      9  C   UNL     1      46.989   5.947  12.991  0.00  0.00    +0.000 A 
ENDROOT
BRANCH   7  10
ATOM     10  C   UNL     1      44.813   4.794  10.119  0.00  0.00    +0.000 C 
ATOM     11  N   UNL     1      45.554   5.167   9.028  0.00  0.00    +0.000 N 
ATOM     12  O   UNL     1      43.687   4.335   9.993  0.00  0.00    +0.000 OA
ATOM     13  H   UNL     1      46.552   5.323   9.066  0.00  0.00    +0.000 HD
ATOM     14  H   UNL     1      45.148   4.977   8.120  0.00  0.00    +0.000 HD
ENDBRANCH   7  10
BRANCH   1  16
ATOM     15  C   UNL     1      47.866   9.037  12.516  0.00  0.00    +0.000 C 
ATOM     16  C   UNL     1      48.793   7.895  12.991  0.00  0.00    +0.000 C 
ATOM     17  C   UNL     1      49.584   7.406  11.760  0.00  0.00    +0.000 C 
ATOM     18  C   UNL     1      49.769   8.498  14.024  0.00  0.00    +0.000 C 
ENDBRANCH   1  16
BRANCH   3  19
ATOM     19  C   UNL     1      47.158   4.367  16.272  0.00  0.00    +0.000 C 
BRANCH  19  20
ATOM     20  C   UNL     1      48.443   3.659  16.610  0.00  0.00    +0.000 A 
ATOM     21  C   UNL     1      49.409   4.258  17.426  0.00  0.00    +0.000 A 
ATOM     22  C   UNL     1      50.561   3.559  17.771  0.00  0.00    +0.000 A 
ATOM     23  C   UNL     1      50.721   2.274  17.273  0.00  0.00    +0.000 A 
ATOM     24  N   UNL     1      49.825   1.665  16.443  0.00  0.00    +0.000 NA
ATOM     25  C   UNL     1      48.715   2.377  16.136  0.00  0.00    +0.000 A 
BRANCH  23  26
ATOM     26  C   UNL     1      51.920   1.474  17.681  0.00  0.00    +0.000 C 
ATOM     27  N   UNL     1      51.666   0.190  18.079  0.00  0.00    +0.000 N 
ATOM     28  O   UNL     1      53.055   1.933  17.677  0.00  0.00    +0.000 OA
ATOM     29  H   UNL     1      50.710  -0.146  18.104  0.00  0.00    +0.000 HD
ATOM     30  H   UNL     1      52.426  -0.387  18.410  0.00  0.00    +0.000 HD
ENDBRANCH  23  26
ENDBRANCH  19  20
ENDBRANCH   3  19
TORSDOF 5
ENDMDL
MODEL 3
REMARK VINA RESULT:    -6.672      3.082      7.205
REMARK INTER + INTRA:          -9.238
REMARK INTER:                  -8.383
REMARK INTRA:                  -0.855
REMARK UNBOUND:                -0.616
REMARK  Name = 
REMARK  8 active torsions:
REMARK  status: ('A' for Active; 'I' for Inactive)
REMARK    1  A    between atoms: C_1  and  C_2
REMARK    2  A    between atoms: C_2  and  C_3
REMARK    3  A    between atoms: C_2  and  C_4
REMARK    4  A    between atoms: C_2  and  C_5
REMARK    5  A    between atoms: N_7  and  C_8
REMARK    6  A    between atoms: C_8  and  C_9
REMARK    7  A    between atoms: C_12  and  C_13
REMARK    8  A    between atoms: C_21  and  C_22
REMARK                            x       y       z     vdW  Elec       q    Type
REMARK                         _______ _______ _______ _____ _____    ______ ____
ROOT
ATOM      1  C   UNL     1      48.843   7.225  13.779  0.00  0.00    +0.000 A 
ATOM      2  C   UNL     1      49.092   7.003  15.127  0.00  0.00    +0.000 A 
ATOM      3  N   UNL     1      48.229   6.038  15.591  0.00  0.00    +0.000 N 
ATOM      4  C   UNL     1      47.400   5.634  14.577  0.00  0.00    +0.000 A 
ATOM      5  N   UNL     1      46.434   4.695  14.682  0.00  0.00    +0.000 NA
ATOM      6  C   UNL     1      45.791   4.453  13.509  0.00  0.00    +0.000 A 
ATOM      7  C   UNL     1      46.056   5.078  12.296  0.00  0.00    +0.000 A 
ATOM      8  C   UNL     1      47.036   6.070  12.257  0.00  0.00    +0.000 A 
ATOM      9  C   UNL     1      47.755   6.349  13.435  0.00  0.00    +0.000 A 
ENDROOT
BRANCH   7  10
ATOM     10  C   UNL     1      45.299   4.676  11.094  0.00  0.00    +0.000 C 
ATOM     11  N   UNL     1      45.177   5.601  10.090  0.00  0.00    +0.000 N 
ATOM     12  O   UNL     1      44.829   3.553  10.980  0.00  0.00    +0.000 OA
ATOM     13  H   UNL     1      45.740   6.439  10.041  0.00  0.00    +0.000 HD
ATOM     14  H   UNL     1      44.743   5.283   9.233  0.00  0.00    +0.000 HD
ENDBRANCH   7  10
BRANCH   1  16
ATOM     15  C   UNL     1      50.774   8.873  13.548  0.00  0.00    +0.000 C 
ATOM     16  C   UNL     1      49.590   8.174  12.841  0.00  0.00    +0.000 C 
ATOM     17  C   UNL     1      48.649   9.281  12.322  0.00  0.00    +0.000 C 
ATOM     18  C   UNL     1      50.171   7.389  11.645  0.00  0.00    +0.000 C 
ENDBRANCH   1  16
BRANCH   3  19
ATOM     19  C   UNL     1      48.197   5.533  16.960  0.00  0.00    +0.000 C 
BRANCH  19  20
ATOM     20  C   UNL     1      49.184   4.414  17.161  0.00  0.00    +0.000 A 
ATOM     21  C   UNL     1      48.822   3.079  16.946  0.00  0.00    +0.000 A 
ATOM     22  C   UNL     1      49.769   2.070  17.081  0.00  0.00    +0.000 A 
ATOM     23  C   UNL     1      51.059   2.427  17.446  0.00  0.00    +0.000 A 
ATOM     24  N   UNL     1      51.447   3.709  17.703  0.00  0.00    +0.000 NA
ATOM     25  C   UNL     1      50.498   4.663  17.554  0.00  0.00    +0.000 A 
BRANCH  23  26
ATOM     26  C   UNL     1      52.116   1.368  17.535  0.00  0.00    +0.000 C 
ATOM     27  N   UNL     1      51.710   0.170  18.057  0.00  0.00    +0.000 N 
ATOM     28  O   UNL     1      53.273   1.555  17.180  0.00  0.00    +0.000 OA
ATOM     29  H   UNL     1      50.754   0.061  18.374  0.00  0.00    +0.000 HD
ATOM     30  H   UNL     1      52.386  -0.569  18.186  0.00  0.00    +0.000 HD
ENDBRANCH  23  26
ENDBRANCH  19  20
ENDBRANCH   3  19
TORSDOF 5
ENDMDL
MODEL 4
REMARK VINA RESULT:    -6.407      3.739      5.419
REMARK INTER + INTRA:          -8.896
REMARK INTER:                  -8.079
REMARK INTRA:                  -0.817
REMARK UNBOUND:                -0.616
REMARK  Name = 
REMARK  8 active torsions:
REMARK  status: ('A' for Active; 'I' for Inactive)
REMARK    1  A    between atoms: C_1  and  C_2
REMARK    2  A    between atoms: C_2  and  C_3
REMARK    3  A    between atoms: C_2  and  C_4
REMARK    4  A    between atoms: C_2  and  C_5
REMARK    5  A    between atoms: N_7  and  C_8
REMARK    6  A    between atoms: C_8  and  C_9
REMARK    7  A    between atoms: C_12  and  C_13
REMARK    8  A    between atoms: C_21  and  C_22
REMARK                            x       y       z     vdW  Elec       q    Type
REMARK                         _______ _______ _______ _____ _____    ______ ____
ROOT
ATOM      1  C   UNL     1      48.791   8.476  16.334  0.00  0.00    +0.000 A 
ATOM      2  C   UNL     1      48.689   8.328  14.957  0.00  0.00    +0.000 A 
ATOM      3  N   UNL     1      48.587   6.991  14.654  0.00  0.00    +0.000 N 
ATOM      4  C   UNL     1      48.641   6.250  15.807  0.00  0.00    +0.000 A 
ATOM      5  N   UNL     1      48.565   4.904  15.878  0.00  0.00    +0.000 NA
ATOM      6  C   UNL     1      48.597   4.430  17.151  0.00  0.00    +0.000 A 
ATOM      7  C   UNL     1      48.699   5.205  18.301  0.00  0.00    +0.000 A 
ATOM      8  C   UNL     1      48.817   6.588  18.165  0.00  0.00    +0.000 A 
ATOM      9  C   UNL     1      48.765   7.141  16.872  0.00  0.00    +0.000 A 
ENDROOT
BRANCH   7  10
ATOM     10  C   UNL     1      48.678   4.546  19.622  0.00  0.00    +0.000 C 
ATOM     11  N   UNL     1      48.386   3.207  19.652  0.00  0.00    +0.000 N 
ATOM     12  O   UNL     1      48.945   5.158  20.646  0.00  0.00    +0.000 OA
ATOM     13  H   UNL     1      48.394   2.623  18.827  0.00  0.00    +0.000 HD
ATOM     14  H   UNL     1      48.472   2.746  20.548  0.00  0.00    +0.000 HD
ENDBRANCH   7  10
BRANCH   1  16
ATOM     15  C   UNL     1      48.904  11.018  16.196  0.00  0.00    +0.000 C 
ATOM     16  C   UNL     1      48.875   9.782  17.124  0.00  0.00    +0.000 C 
ATOM     17  C   UNL     1      50.160   9.822  17.978  0.00  0.00    +0.000 C 
ATOM     18  C   UNL     1      47.642   9.928  18.042  0.00  0.00    +0.000 C 
ENDBRANCH   1  16
BRANCH   3  19
ATOM     19  C   UNL     1      48.453   6.445  13.307  0.00  0.00    +0.000 C 
BRANCH  19  20
ATOM     20  C   UNL     1      47.013   6.179  12.956  0.00  0.00    +0.000 A 
ATOM     21  C   UNL     1      46.183   7.198  12.476  0.00  0.00    +0.000 A 
ATOM     22  C   UNL     1      44.874   6.912  12.103  0.00  0.00    +0.000 A 
ATOM     23  C   UNL     1      44.425   5.607  12.237  0.00  0.00    +0.000 A 
ATOM     24  N   UNL     1      45.186   4.590  12.736  0.00  0.00    +0.000 NA
ATOM     25  C   UNL     1      46.456   4.908  13.082  0.00  0.00    +0.000 A 
BRANCH  23  26
ATOM     26  C   UNL     1      43.041   5.257  11.781  0.00  0.00    +0.000 C 
ATOM     27  N   UNL     1      42.131   6.278  11.815  0.00  0.00    +0.000 N 
ATOM     28  O   UNL     1      42.729   4.131  11.414  0.00  0.00    +0.000 OA
ATOM     29  H   UNL     1      42.415   7.189  12.159  0.00  0.00    +0.000 HD
ATOM     30  H   UNL     1      41.170   6.096  11.565  0.00  0.00    +0.000 HD
ENDBRANCH  23  26
ENDBRANCH  19  20
ENDBRANCH   3  19
TORSDOF 5
ENDMDL
MODEL 5
REMARK VINA RESULT:    -5.972      3.856      6.063
REMARK INTER + INTRA:          -8.334
REMARK INTER:                  -7.666
REMARK INTRA:                  -0.668
REMARK UNBOUND:                -0.616
REMARK  Name = 
REMARK  8 active torsions:
REMARK  status: ('A' for Active; 'I' for Inactive)
REMARK    1  A    between atoms: C_1  and  C_2
REMARK    2  A    between atoms: C_2  and  C_3
REMARK    3  A    between atoms: C_2  and  C_4
REMARK    4  A    between atoms: C_2  and  C_5
REMARK    5  A    between atoms: N_7  and  C_8
REMARK    6  A    between atoms: C_8  and  C_9
REMARK    7  A    between atoms: C_12  and  C_13
REMARK    8  A    between atoms: C_21  and  C_22
REMARK                            x       y       z     vdW  Elec       q    Type
REMARK                         _______ _______ _______ _____ _____    ______ ____
ROOT
ATOM      1  C   UNL     1      46.044   5.683  12.643  0.00  0.00    +0.000 A 
ATOM      2  C   UNL     1      46.540   6.890  12.168  0.00  0.00    +0.000 A 
ATOM      3  N   UNL     1      47.491   7.363  13.041  0.00  0.00    +0.000 N 
ATOM      4  C   UNL     1      47.617   6.498  14.098  0.00  0.00    +0.000 A 
ATOM      5  N   UNL     1      48.464   6.651  15.138  0.00  0.00    +0.000 NA
ATOM      6  C   UNL     1      48.419   5.622  16.024  0.00  0.00    +0.000 A 
ATOM      7  C   UNL     1      47.603   4.501  15.922  0.00  0.00    +0.000 A 
ATOM      8  C   UNL     1      46.717   4.417  14.848  0.00  0.00    +0.000 A 
ATOM      9  C   UNL     1      46.734   5.441  13.883  0.00  0.00    +0.000 A 
ENDROOT
BRANCH   7  10
ATOM     10  C   UNL     1      47.697   3.440  16.945  0.00  0.00    +0.000 C 
ATOM     11  N   UNL     1      48.952   3.086  17.368  0.00  0.00    +0.000 N 
ATOM     12  O   UNL     1      46.699   2.922  17.423  0.00  0.00    +0.000 OA
ATOM     13  H   UNL     1      49.774   3.642  17.180  0.00  0.00    +0.000 HD
ATOM     14  H   UNL     1      49.001   2.431  18.138  0.00  0.00    +0.000 HD
ENDBRANCH   7  10
BRANCH   1  16
ATOM     15  C   UNL     1      45.376   3.282  12.112  0.00  0.00    +0.000 C 
ATOM     16  C   UNL     1      45.009   4.778  11.977  0.00  0.00    +0.000 C 
ATOM     17  C   UNL     1      44.901   5.088  10.470  0.00  0.00    +0.000 C 
ATOM     18  C   UNL     1      43.629   4.971  12.642  0.00  0.00    +0.000 C 
ENDBRANCH   1  16
BRANCH   3  19
ATOM     19  C   UNL     1      48.241   8.603  12.871  0.00  0.00    +0.000 C 
BRANCH  19  20
ATOM     20  C   UNL     1      49.648   8.340  12.403  0.00  0.00    +0.000 A 
ATOM     21  C   UNL     1      49.901   7.729  11.170  0.00  0.00    +0.000 A 
ATOM     22  C   UNL     1      51.210   7.553  10.735  0.00  0.00    +0.000 A 
ATOM     23  C   UNL     1      52.238   7.983  11.560  0.00  0.00    +0.000 A 
ATOM     24  N   UNL     1      52.041   8.548  12.786  0.00  0.00    +0.000 NA
ATOM     25  C   UNL     1      50.752   8.708  13.171  0.00  0.00    +0.000 A 
BRANCH  23  26
ATOM     26  C   UNL     1      53.655   7.865  11.088  0.00  0.00    +0.000 C 
ATOM     27  N   UNL     1      54.321   6.740  11.491  0.00  0.00    +0.000 N 
ATOM     28  O   UNL     1      54.197   8.721  10.399  0.00  0.00    +0.000 OA
ATOM     29  H   UNL     1      53.854   6.070  12.091  0.00  0.00    +0.000 HD
ATOM     30  H   UNL     1      55.293   6.624  11.245  0.00  0.00    +0.000 HD
ENDBRANCH  23  26
ENDBRANCH  19  20
ENDBRANCH   3  19
TORSDOF 5
ENDMDL
