MODEL 1
REMARK VINA RESULT:    -7.786      0.000      0.000
REMARK INTER + INTRA:         -11.073
REMARK INTER:                 -10.745
REMARK INTRA:                  -0.329
REMARK UNBOUND:                -0.329
REMARK  Name = 
REMARK  12 active torsions:
REMARK  status: ('A' for Active; 'I' for Inactive)
REMARK    1  A    between atoms: C_1  and  C_2
REMARK    2  A    between atoms: C_2  and  C_3
REMARK    3  A    between atoms: C_2  and  O_4
REMARK    4  A    between atoms: C_2  and  C_5
REMARK    5  A    between atoms: C_5  and  C_6
REMARK    6  A    between atoms: N_8  and  C_9
REMARK    7  A    between atoms: C_9  and  C_10
REMARK    8  A    between atoms: C_15  and  C_16
REMARK    9  A    between atoms: C_24  and  C_25
REMARK   10  A    between atoms: C_25  and  C_26
REMARK   11  A    between atoms: C_25  and  C_27
REMARK   12  A    between atoms: C_25  and  C_28
REMARK                            x       y       z     vdW  Elec       q    Type
REMARK                         _______ _______ _______ _____ _____    ______ ____
ROOT
ATOM      1  C   UNL     1      47.409   4.621  16.570  0.00  0.00    +0.000 C 
ENDROOT
BRANCH   1   2
ATOM      2  C   UNL     1      48.601   3.721  16.733  0.00  0.00    +0.000 A 
ATOM      3  C   UNL     1      48.608   2.429  16.232  0.00  0.00    +0.000 A 
ATOM      4  N   UNL     1      49.631   1.552  16.384  0.00  0.00    +0.000 NA
ATOM      5  C   UNL     1      50.714   1.920  17.069  0.00  0.00    +0.000 A 
ATOM      6  N   UNL     1      51.679   1.024  17.230  0.00  0.00    +0.000 NA
ATOM      7  C   UNL     1      52.765   1.417  17.928  0.00  0.00    +0.000 A 
ATOM      8  N   UNL     1      52.968   2.635  18.456  0.00  0.00    +0.000 NA
ATOM      9  C   UNL     1      51.973   3.513  18.274  0.00  0.00    +0.000 A 
ATOM     10  C   UNL     1      50.807   3.213  17.590  0.00  0.00    +0.000 A 
ATOM     11  C   UNL     1      49.745   4.122  17.419  0.00  0.00    +0.000 A 
BRANCH   7  12
ATOM     12  C   UNL     1      53.844   0.378  18.138  0.00  0.00    +0.000 C 
ATOM     13  N   UNL     1      53.414  -0.875  18.512  0.00  0.00    +0.000 N 
ATOM     14  O   UNL     1      55.041   0.602  17.997  0.00  0.00    +0.000 OA
ATOM     15  H   UNL     1      52.422  -1.056  18.645  0.00  0.00    +0.000 HD
ATOM     16  H   UNL     1      54.093  -1.596  18.680  0.00  0.00    +0.000 HD
ENDBRANCH   7  12
ENDBRANCH   1   2
BRANCH   1  19
ATOM     17  C   UNL     1      46.168   4.330  13.293  0.00  0.00    +0.000 A 
ATOM     18  N   UNL     1      46.449   3.807  14.496  0.00  0.00    +0.000 NA
ATOM     19  N   UNL     1      47.045   4.800  15.170  0.00  0.00    +0.000 N 
ATOM     20  C   UNL     1      47.178   5.937  14.432  0.00  0.00    +0.000 A 
ATOM     21  C   UNL     1      46.630   5.691  13.181  0.00  0.00    +0.000 A 
BRANCH  21  22
ATOM     22  C   UNL     1      46.567   6.676  12.009  0.00  0.00    +0.000 C 
ATOM     23  C   UNL     1      47.929   7.395  11.819  0.00  0.00    +0.000 C 
ATOM     24  C   UNL     1      46.249   5.966  10.679  0.00  0.00    +0.000 C 
ATOM     25  C   UNL     1      45.506   7.768  12.248  0.00  0.00    +0.000 C 
ENDBRANCH  21  22
BRANCH  17  26
ATOM     26  C   UNL     1      45.495   3.451  12.275  0.00  0.00    +0.000 C 
BRANCH  26  28
ATOM     27  C   UNL     1      43.437   3.829  10.829  0.00  0.00    +0.000 C 
ATOM     28  C   UNL     1      43.949   3.493  12.232  0.00  0.00    +0.000 C 
ATOM     29  C   UNL     1      43.315   4.439  13.258  0.00  0.00    +0.000 C 
BRANCH  28  30
ATOM     30  O   UNL     1      43.499   2.157  12.544  0.00  0.00    +0.000 OA
ATOM     31  H   UNL     1      44.035   1.525  12.033  0.00  0.00    +0.000 HD
ENDBRANCH  28  30
ENDBRANCH  26  28
ENDBRANCH  17  26
ENDBRANCH   1  19
TORSDOF 7
ENDMDL
MODEL 2
REMARK VINA RESULT:    -7.526      6.326      8.476
REMARK INTER + INTRA:         -10.714
REMARK INTER:                  -9.861
REMARK INTRA:                  -0.854
REMARK UNBOUND:                -0.329
REMARK  Name = 
REMARK  12 active torsions:
REMARK  status: ('A' for Active; 'I' for Inactive)
REMARK    1  A    between atoms: C_1  and  C_2
REMARK    2  A    between atoms: C_2  and  C_3
REMARK    3  A    between atoms: C_2  and  O_4
REMARK    4  A    between atoms: C_2  and  C_5
REMARK    5  A    between atoms: C_5  and  C_6
REMARK    6  A    between atoms: N_8  and  C_9
REMARK    7  A    between atoms: C_9  and  C_10
REMARK    8  A    between atoms: C_15  and  C_16
REMARK    9  A    between atoms: C_24  and  C_25
REMARK   10  A    between atoms: C_25  and  C_26
REMARK   11  A    between atoms: C_25  and  C_27
REMARK   12  A    between atoms: C_25  and  C_28
REMARK                            x       y       z     vdW  Elec       q    Type
REMARK                         _______ _______ _______ _____ _____    ______ ____
ROOT
ATOM      1  C   UNL     1      42.883   5.843  11.669  0.00  0.00    +0.000 C 
ENDROOT
BRANCH   1   2
ATOM      2  C   UNL     1      43.572   4.794  10.843  0.00  0.00    +0.000 A 
ATOM      3  C   UNL     1      43.417   3.443  11.111  0.00  0.00    +0.000 A 
ATOM      4  N   UNL     1      44.046   2.450  10.435  0.00  0.00    +0.000 NA
ATOM      5  C   UNL     1      44.888   2.758   9.448  0.00  0.00    +0.000 A 
ATOM      6  N   UNL     1      45.513   1.762   8.834  0.00  0.00    +0.000 NA
ATOM      7  C   UNL     1      46.362   2.097   7.840  0.00  0.00    +0.000 A 
ATOM      8  N   UNL     1      46.616   3.341   7.402  0.00  0.00    +0.000 NA
ATOM      9  C   UNL     1      45.967   4.320   8.046  0.00  0.00    +0.000 A 
ATOM     10  C   UNL     1      45.087   4.094   9.090  0.00  0.00    +0.000 A 
ATOM     11  C   UNL     1      44.424   5.120   9.790  0.00  0.00    +0.000 A 
BRANCH   7  12
ATOM     12  C   UNL     1      47.099   0.959   7.170  0.00  0.00    +0.000 C 
ATOM     13  N   UNL     1      46.787  -0.307   7.611  0.00  0.00    +0.000 N 
ATOM     14  O   UNL     1      47.933   1.116   6.285  0.00  0.00    +0.000 OA
ATOM     15  H   UNL     1      46.107  -0.436   8.356  0.00  0.00    +0.000 HD
ATOM     16  H   UNL     1      47.261  -1.096   7.208  0.00  0.00    +0.000 HD
ENDBRANCH   7  12
ENDBRANCH   1   2
BRANCH   1  19
ATOM     17  C   UNL     1      45.268   8.378  12.175  0.00  0.00    +0.000 A 
ATOM     18  N   UNL     1      44.786   7.149  12.416  0.00  0.00    +0.000 NA
ATOM     19  N   UNL     1      43.643   7.087  11.721  0.00  0.00    +0.000 N 
ATOM     20  C   UNL     1      43.361   8.243  11.059  0.00  0.00    +0.000 A 
ATOM     21  C   UNL     1      44.387   9.138  11.324  0.00  0.00    +0.000 A 
BRANCH  21  22
ATOM     22  C   UNL     1      44.491  10.577  10.806  0.00  0.00    +0.000 C 
ATOM     23  C   UNL     1      43.522  11.512  11.575  0.00  0.00    +0.000 C 
ATOM     24  C   UNL     1      45.909  11.152  10.995  0.00  0.00    +0.000 C 
ATOM     25  C   UNL     1      44.121  10.665   9.313  0.00  0.00    +0.000 C 
ENDBRANCH  21  22
BRANCH  17  26
ATOM     26  C   UNL     1      46.561   8.777  12.831  0.00  0.00    +0.000 C 
BRANCH  26  28
ATOM     27  C   UNL     1      48.435   7.225  13.571  0.00  0.00    +0.000 C 
ATOM     28  C   UNL     1      47.830   8.004  12.401  0.00  0.00    +0.000 C 
ATOM     29  C   UNL     1      48.906   8.876  11.743  0.00  0.00    +0.000 C 
BRANCH  28  30
ATOM     30  O   UNL     1      47.401   7.037  11.417  0.00  0.00    +0.000 OA
ATOM     31  H   UNL     1      47.188   6.206  11.877  0.00  0.00    +0.000 HD
ENDBRANCH  28  30
ENDBRANCH  26  28
ENDBRANCH  17  26
ENDBRANCH   1  19
TORSDOF 7
ENDMDL
MODEL 3
REMARK VINA RESULT:    -7.040      3.183      8.244
REMARK INTER + INTRA:         -10.044
REMARK INTER:                  -9.391
REMARK INTRA:                  -0.653
REMARK UNBOUND:                -0.329
REMARK  Name = 
REMARK  12 active torsions:
REMARK  status: ('A' for Active; 'I' for Inactive)
REMARK    1  A    between atoms: C_1  and  C_2
REMARK    2  A    between atoms: C_2  and  C_3
REMARK    3  A    between atoms: C_2  and  O_4
REMARK    4  A    between atoms: C_2  and  C_5
REMARK    5  A    between atoms: C_5  and  C_6
REMARK    6  A    between atoms: N_8  and  C_9
REMARK    7  A    between atoms: C_9  and  C_10
REMARK    8  A    between atoms: C_15  and  C_16
REMARK    9  A    between atoms: C_24  and  C_25
REMARK   10  A    between atoms: C_25  and  C_26
REMARK   11  A    between atoms: C_25  and  C_27
REMARK   12  A    between atoms: C_25  and  C_28
REMARK                            x       y       z     vdW  Elec       q    Type
REMARK                         _______ _______ _______ _____ _____    ______ ____
ROOT
ATOM      1  C   UNL     1      49.293   7.713  14.724  0.00  0.00    +0.000 C 
ENDROOT
BRANCH   1   2
ATOM      2  C   UNL     1      48.338   7.039  13.780  0.00  0.00    +0.000 A 
ATOM      3  C   UNL     1      47.976   7.622  12.577  0.00  0.00    +0.000 A 
ATOM      4  N   UNL     1      47.085   7.090  11.703  0.00  0.00    +0.000 NA
ATOM      5  C   UNL     1      46.491   5.933  11.996  0.00  0.00    +0.000 A 
ATOM      6  N   UNL     1      45.598   5.461  11.135  0.00  0.00    +0.000 NA
ATOM      7  C   UNL     1      45.007   4.291  11.452  0.00  0.00    +0.000 A 
ATOM      8  N   UNL     1      45.251   3.551  12.546  0.00  0.00    +0.000 NA
ATOM      9  C   UNL     1      46.158   4.059  13.391  0.00  0.00    +0.000 A 
ATOM     10  C   UNL     1      46.814   5.259  13.176  0.00  0.00    +0.000 A 
ATOM     11  C   UNL     1      47.746   5.813  14.075  0.00  0.00    +0.000 A 
BRANCH   7  12
ATOM     12  C   UNL     1      43.963   3.778  10.484  0.00  0.00    +0.000 C 
ATOM     13  N   UNL     1      43.931   4.387   9.251  0.00  0.00    +0.000 N 
ATOM     14  O   UNL     1      43.174   2.878  10.748  0.00  0.00    +0.000 OA
ATOM     15  H   UNL     1      44.575   5.145   9.037  0.00  0.00    +0.000 HD
ATOM     16  H   UNL     1      43.245   4.093   8.577  0.00  0.00    +0.000 HD
ENDBRANCH   7  12
ENDBRANCH   1   2
BRANCH   1  19
ATOM     17  C   UNL     1      49.339   5.931  17.756  0.00  0.00    +0.000 A 
ATOM     18  N   UNL     1      49.532   6.005  16.430  0.00  0.00    +0.000 NA
ATOM     19  N   UNL     1      49.135   7.240  16.095  0.00  0.00    +0.000 N 
ATOM     20  C   UNL     1      48.672   7.955  17.156  0.00  0.00    +0.000 A 
ATOM     21  C   UNL     1      48.770   7.148  18.280  0.00  0.00    +0.000 A 
BRANCH  21  22
ATOM     22  C   UNL     1      48.351   7.523  19.706  0.00  0.00    +0.000 C 
ATOM     23  C   UNL     1      47.596   8.878  19.721  0.00  0.00    +0.000 C 
ATOM     24  C   UNL     1      47.399   6.476  20.318  0.00  0.00    +0.000 C 
ATOM     25  C   UNL     1      49.574   7.673  20.631  0.00  0.00    +0.000 C 
ENDBRANCH  21  22
BRANCH  17  26
ATOM     26  C   UNL     1      49.681   4.644  18.454  0.00  0.00    +0.000 C 
BRANCH  26  28
ATOM     27  C   UNL     1      49.528   2.365  17.336  0.00  0.00    +0.000 C 
ATOM     28  C   UNL     1      48.780   3.424  18.150  0.00  0.00    +0.000 C 
ATOM     29  C   UNL     1      47.457   3.775  17.459  0.00  0.00    +0.000 C 
BRANCH  28  30
ATOM     30  O   UNL     1      48.454   2.834  19.427  0.00  0.00    +0.000 OA
ATOM     31  H   UNL     1      48.352   3.549  20.079  0.00  0.00    +0.000 HD
ENDBRANCH  28  30
ENDBRANCH  26  28
ENDBRANCH  17  26
ENDBRANCH   1  19
TORSDOF 7
ENDMDL
MODEL 4
REMARK VINA RESULT:    -6.880      5.044      8.284
REMARK INTER + INTRA:          -9.824
REMARK INTER:                  -8.611
REMARK INTRA:                  -1.213
REMARK UNBOUND:                -0.329
REMARK  Name = 
REMARK  12 active torsions:
REMARK  status: ('A' for Active; 'I' for Inactive)
REMARK    1  A    between atoms: C_1  and  C_2
REMARK    2  A    between atoms: C_2  and  C_3
REMARK    3  A    between atoms: C_2  and  O_4
REMARK    4  A    between atoms: C_2  and  C_5
REMARK    5  A    between atoms: C_5  and  C_6
REMARK    6  A    between atoms: N_8  and  C_9
REMARK    7  A    between atoms: C_9  and  C_10
REMARK    8  A    between atoms: C_15  and  C_16
REMARK    9  A    between atoms: C_24  and  C_25
REMARK   10  A    between atoms: C_25  and  C_26
REMARK   11  A    between atoms: C_25  and  C_27
REMARK   12  A    between atoms: C_25  and  C_28
REMARK                            x       y       z     vdW  Elec       q    Type
REMARK                         _______ _______ _______ _____ _____    ______ ____
ROOT
ATOM      1  C   UNL     1      44.561   6.414  12.241  0.00  0.00    +0.000 C 
ENDROOT
BRANCH   1   2
ATOM      2  C   UNL     1      44.860   5.259  11.327  0.00  0.00    +0.000 A 
ATOM      3  C   UNL     1      44.623   3.949  11.712  0.00  0.00    +0.000 A 
ATOM      4  N   UNL     1      44.913   2.862  10.955  0.00  0.00    +0.000 NA
ATOM      5  C   UNL     1      45.476   3.028   9.758  0.00  0.00    +0.000 A 
ATOM      6  N   UNL     1      45.780   1.940   9.061  0.00  0.00    +0.000 NA
ATOM      7  C   UNL     1      46.350   2.131   7.854  0.00  0.00    +0.000 A 
ATOM      8  N   UNL     1      46.621   3.317   7.284  0.00  0.00    +0.000 NA
ATOM      9  C   UNL     1      46.301   4.391   8.017  0.00  0.00    +0.000 A 
ATOM     10  C   UNL     1      45.728   4.314   9.275  0.00  0.00    +0.000 A 
ATOM     11  C   UNL     1      45.416   5.439  10.063  0.00  0.00    +0.000 A 
BRANCH   7  12
ATOM     12  C   UNL     1      46.727   0.885   7.082  0.00  0.00    +0.000 C 
ATOM     13  N   UNL     1      46.622  -0.305   7.764  0.00  0.00    +0.000 N 
ATOM     14  O   UNL     1      47.110   0.897   5.917  0.00  0.00    +0.000 OA
ATOM     15  H   UNL     1      46.320  -0.313   8.735  0.00  0.00    +0.000 HD
ATOM     16  H   UNL     1      46.876  -1.159   7.300  0.00  0.00    +0.000 HD
ENDBRANCH   7  12
ENDBRANCH   1   2
BRANCH   1  19
ATOM     17  C   UNL     1      47.720   7.638  13.185  0.00  0.00    +0.000 A 
ATOM     18  N   UNL     1      46.776   6.685  13.194  0.00  0.00    +0.000 NA
ATOM     19  N   UNL     1      45.748   7.215  12.518  0.00  0.00    +0.000 N 
ATOM     20  C   UNL     1      45.991   8.486  12.093  0.00  0.00    +0.000 A 
ATOM     21  C   UNL     1      47.269   8.829  12.508  0.00  0.00    +0.000 A 
BRANCH  21  22
ATOM     22  C   UNL     1      47.969  10.171  12.273  0.00  0.00    +0.000 C 
ATOM     23  C   UNL     1      46.993  11.200  11.645  0.00  0.00    +0.000 C 
ATOM     24  C   UNL     1      48.482  10.790  13.588  0.00  0.00    +0.000 C 
ATOM     25  C   UNL     1      49.159  10.023  11.304  0.00  0.00    +0.000 C 
ENDBRANCH  21  22
BRANCH  17  26
ATOM     26  C   UNL     1      49.021   7.358  13.885  0.00  0.00    +0.000 C 
BRANCH  26  28
ATOM     27  C   UNL     1      48.439   8.399  16.131  0.00  0.00    +0.000 C 
ATOM     28  C   UNL     1      48.959   7.149  15.416  0.00  0.00    +0.000 C 
ATOM     29  C   UNL     1      50.284   6.701  16.045  0.00  0.00    +0.000 C 
BRANCH  28  30
ATOM     30  O   UNL     1      47.998   6.095  15.642  0.00  0.00    +0.000 OA
ATOM     31  H   UNL     1      47.612   5.843  14.785  0.00  0.00    +0.000 HD
ENDBRANCH  28  30
ENDBRANCH  26  28
ENDBRANCH  17  26
ENDBRANCH   1  19
TORSDOF 7
ENDMDL
MODEL 5
REMARK VINA RESULT:    -6.797      1.266      1.863
REMARK INTER + INTRA:          -9.708
REMARK INTER:                  -8.908
REMARK INTRA:                  -0.800
REMARK UNBOUND:                -0.329
REMARK  Name = 
REMARK  12 active torsions:
REMARK  status: ('A' for Active; 'I' for Inactive)
REMARK    1  A    between atoms: C_1  and  C_2
REMARK    2  A    between atoms: C_2  and  C_3
REMARK    3  A    between atoms: C_2  and  O_4
REMARK    4  A    between atoms: C_2  and  C_5
REMARK    5  A    between atoms: C_5  and  C_6
REMARK    6  A    between atoms: N_8  and  C_9
REMARK    7  A    between atoms: C_9  and  C_10
REMARK    8  A    between atoms: C_15  and  C_16
REMARK    9  A    between atoms: C_24  and  C_25
REMARK   10  A    between atoms: C_25  and  C_26
REMARK   11  A    between atoms: C_25  and  C_27
REMARK   12  A    between atoms: C_25  and  C_28
REMARK                            x       y       z     vdW  Elec       q    Type
REMARK                         _______ _______ _______ _____ _____    ______ ____
ROOT
ATOM      1  C   UNL     1      47.270   3.582  16.574  0.00  0.00    +0.000 C 
ENDROOT
BRANCH   1   2
ATOM      2  C   UNL     1      48.711   3.517  16.993  0.00  0.00    +0.000 A 
ATOM      3  C   UNL     1      49.407   4.654  17.371  0.00  0.00    +0.000 A 
ATOM      4  N   UNL     1      50.720   4.672  17.715  0.00  0.00    +0.000 NA
ATOM      5  C   UNL     1      51.420   3.538  17.686  0.00  0.00    +0.000 A 
ATOM      6  N   UNL     1      52.710   3.600  17.993  0.00  0.00    +0.000 NA
ATOM      7  C   UNL     1      53.400   2.442  17.955  0.00  0.00    +0.000 A 
ATOM      8  N   UNL     1      52.901   1.231  17.656  0.00  0.00    +0.000 NA
ATOM      9  C   UNL     1      51.596   1.208  17.352  0.00  0.00    +0.000 A 
ATOM     10  C   UNL     1      50.795   2.337  17.342  0.00  0.00    +0.000 A 
ATOM     11  C   UNL     1      49.430   2.324  16.995  0.00  0.00    +0.000 A 
BRANCH   7  12
ATOM     12  C   UNL     1      54.878   2.526  18.270  0.00  0.00    +0.000 C 
ATOM     13  N   UNL     1      55.315   3.715  18.808  0.00  0.00    +0.000 N 
ATOM     14  O   UNL     1      55.670   1.612  18.068  0.00  0.00    +0.000 OA
ATOM     15  H   UNL     1      54.660   4.478  18.960  0.00  0.00    +0.000 HD
ATOM     16  H   UNL     1      56.290   3.827  19.020  0.00  0.00    +0.000 HD
ENDBRANCH   7  12
ENDBRANCH   1   2
BRANCH   1  19
ATOM     17  C   UNL     1      46.385   4.712  13.363  0.00  0.00    +0.000 A 
ATOM     18  N   UNL     1      46.457   3.748  14.294  0.00  0.00    +0.000 NA
ATOM     19  N   UNL     1      47.095   4.316  15.326  0.00  0.00    +0.000 N 
ATOM     20  C   UNL     1      47.457   5.606  15.081  0.00  0.00    +0.000 A 
ATOM     21  C   UNL     1      47.028   5.926  13.801  0.00  0.00    +0.000 A 
BRANCH  21  22
ATOM     22  C   UNL     1      47.227   7.266  13.086  0.00  0.00    +0.000 C 
ATOM     23  C   UNL     1      47.940   8.285  14.013  0.00  0.00    +0.000 C 
ATOM     24  C   UNL     1      48.104   7.120  11.827  0.00  0.00    +0.000 C 
ATOM     25  C   UNL     1      45.880   7.891  12.676  0.00  0.00    +0.000 C 
ENDBRANCH  21  22
BRANCH  17  26
ATOM     26  C   UNL     1      45.725   4.387  12.052  0.00  0.00    +0.000 C 
BRANCH  26  28
ATOM     27  C   UNL     1      43.624   3.892  10.707  0.00  0.00    +0.000 C 
ATOM     28  C   UNL     1      44.241   3.952  12.106  0.00  0.00    +0.000 C 
ATOM     29  C   UNL     1      43.366   4.812  13.026  0.00  0.00    +0.000 C 
BRANCH  28  30
ATOM     30  O   UNL     1      44.232   2.609  12.638  0.00  0.00    +0.000 OA
ATOM     31  H   UNL     1      43.627   2.070  12.099  0.00  0.00    +0.000 HD
ENDBRANCH  28  30
ENDBRANCH  26  28
ENDBRANCH  17  26
ENDBRANCH   1  19
TORSDOF 7
ENDMDL
MODEL 6
REMARK VINA RESULT:    -6.624      4.087      8.305
REMARK INTER + INTRA:          -9.469
REMARK INTER:                  -8.627
REMARK INTRA:                  -0.842
REMARK UNBOUND:                -0.329
REMARK  Name = 
REMARK  12 active torsions:
REMARK  status: ('A' for Active; 'I' for Inactive)
REMARK    1  A    between atoms: C_1  and  C_2
REMARK    2  A    between atoms: C_2  and  C_3
REMARK    3  A    between atoms: C_2  and  O_4
REMARK    4  A    between atoms: C_2  and  C_5
REMARK    5  A    between atoms: C_5  and  C_6
REMARK    6  A    between atoms: N_8  and  C_9
REMARK    7  A    between atoms: C_9  and  C_10
REMARK    8  A    between atoms: C_15  and  C_16
REMARK    9  A    between atoms: C_24  and  C_25
REMARK   10  A    between atoms: C_25  and  C_26
REMARK   11  A    between atoms: C_25  and  C_27
REMARK   12  A    between atoms: C_25  and  C_28
REMARK                            x       y       z     vdW  Elec       q    Type
REMARK                         _______ _______ _______ _____ _____    ______ ____
ROOT
ATOM      1  C   UNL     1      44.633   5.194  13.084  0.00  0.00    +0.000 C 
ENDROOT
BRANCH   1   2
ATOM      2  C   UNL     1      44.928   4.512  11.778  0.00  0.00    +0.000 A 
ATOM      3  C   UNL     1      44.719   3.154  11.606  0.00  0.00    +0.000 A 
ATOM      4  N   UNL     1      45.008   2.470  10.470  0.00  0.00    +0.000 NA
ATOM      5  C   UNL     1      45.542   3.116   9.434  0.00  0.00    +0.000 A 
ATOM      6  N   UNL     1      45.846   2.408   8.353  0.00  0.00    +0.000 NA
ATOM      7  C   UNL     1      46.387   3.082   7.318  0.00  0.00    +0.000 A 
ATOM      8  N   UNL     1      46.628   4.403   7.270  0.00  0.00    +0.000 NA
ATOM      9  C   UNL     1      46.309   5.083   8.379  0.00  0.00    +0.000 A 
ATOM     10  C   UNL     1      45.764   4.493   9.507  0.00  0.00    +0.000 A 
ATOM     11  C   UNL     1      45.454   5.199  10.686  0.00  0.00    +0.000 A 
BRANCH   7  12
ATOM     12  C   UNL     1      46.765   2.262   6.103  0.00  0.00    +0.000 C 
ATOM     13  N   UNL     1      46.979   2.965   4.940  0.00  0.00    +0.000 N 
ATOM     14  O   UNL     1      46.879   1.041   6.116  0.00  0.00    +0.000 OA
ATOM     15  H   UNL     1      46.868   3.976   4.927  0.00  0.00    +0.000 HD
ATOM     16  H   UNL     1      47.216   2.465   4.102  0.00  0.00    +0.000 HD
ENDBRANCH   7  12
ENDBRANCH   1   2
BRANCH   1  19
ATOM     17  C   UNL     1      47.443   4.961  15.187  0.00  0.00    +0.000 A 
ATOM     18  N   UNL     1      46.283   4.481  14.714  0.00  0.00    +0.000 NA
ATOM     19  N   UNL     1      45.842   5.421  13.869  0.00  0.00    +0.000 N 
ATOM     20  C   UNL     1      46.667   6.502  13.799  0.00  0.00    +0.000 A 
ATOM     21  C   UNL     1      47.737   6.267  14.651  0.00  0.00    +0.000 A 
BRANCH  21  22
ATOM     22  C   UNL     1      48.912   7.215  14.914  0.00  0.00    +0.000 C 
ATOM     23  C   UNL     1      49.883   6.613  15.963  0.00  0.00    +0.000 C 
ATOM     24  C   UNL     1      49.738   7.471  13.638  0.00  0.00    +0.000 C 
ATOM     25  C   UNL     1      48.429   8.570  15.466  0.00  0.00    +0.000 C 
ENDBRANCH  21  22
BRANCH  17  26
ATOM     26  C   UNL     1      48.200   4.134  16.189  0.00  0.00    +0.000 C 
BRANCH  26  28
ATOM     27  C   UNL     1      47.108   5.296  18.170  0.00  0.00    +0.000 C 
ATOM     28  C   UNL     1      47.549   3.954  17.580  0.00  0.00    +0.000 C 
ATOM     29  C   UNL     1      48.422   3.202  18.592  0.00  0.00    +0.000 C 
BRANCH  28  30
ATOM     30  O   UNL     1      46.358   3.165  17.370  0.00  0.00    +0.000 OA
ATOM     31  H   UNL     1      46.430   2.724  16.506  0.00  0.00    +0.000 HD
ENDBRANCH  28  30
ENDBRANCH  26  28
ENDBRANCH  17  26
ENDBRANCH   1  19
TORSDOF 7
ENDMDL
MODEL 7
REMARK VINA RESULT:    -6.618      2.770      8.873
REMARK INTER + INTRA:          -9.462
REMARK INTER:                  -8.468
REMARK INTRA:                  -0.994
REMARK UNBOUND:                -0.329
REMARK  Name = 
REMARK  12 active torsions:
REMARK  status: ('A' for Active; 'I' for Inactive)
REMARK    1  A    between atoms: C_1  and  C_2
REMARK    2  A    between atoms: C_2  and  C_3
REMARK    3  A    between atoms: C_2  and  O_4
REMARK    4  A    between atoms: C_2  and  C_5
REMARK    5  A    between atoms: C_5  and  C_6
REMARK    6  A    between atoms: N_8  and  C_9
REMARK    7  A    between atoms: C_9  and  C_10
REMARK    8  A    between atoms: C_15  and  C_16
REMARK    9  A    between atoms: C_24  and  C_25
REMARK   10  A    between atoms: C_25  and  C_26
REMARK   11  A    between atoms: C_25  and  C_27
REMARK   12  A    between atoms: C_25  and  C_28
REMARK                            x       y       z     vdW  Elec       q    Type
REMARK                         _______ _______ _______ _____ _____    ______ ____
ROOT
ATOM      1  C   UNL     1      49.043   6.871  15.410  0.00  0.00    +0.000 C 
ENDROOT
BRANCH   1   2
ATOM      2  C   UNL     1      48.021   6.048  14.678  0.00  0.00    +0.000 A 
ATOM      3  C   UNL     1      47.537   4.860  15.203  0.00  0.00    +0.000 A 
ATOM      4  N   UNL     1      46.651   4.047  14.575  0.00  0.00    +0.000 NA
ATOM      5  C   UNL     1      46.205   4.377  13.363  0.00  0.00    +0.000 A 
ATOM      6  N   UNL     1      45.369   3.540  12.762  0.00  0.00    +0.000 NA
ATOM      7  C   UNL     1      44.932   3.892  11.536  0.00  0.00    +0.000 A 
ATOM      8  N   UNL     1      45.247   5.018  10.875  0.00  0.00    +0.000 NA
ATOM      9  C   UNL     1      46.094   5.838  11.512  0.00  0.00    +0.000 A 
ATOM     10  C   UNL     1      46.619   5.570  12.765  0.00  0.00    +0.000 A 
ATOM     11  C   UNL     1      47.531   6.414  13.427  0.00  0.00    +0.000 A 
BRANCH   7  12
ATOM     12  C   UNL     1      44.007   2.914  10.843  0.00  0.00    +0.000 C 
ATOM     13  N   UNL     1      43.307   2.059  11.662  0.00  0.00    +0.000 N 
ATOM     14  O   UNL     1      43.867   2.856   9.626  0.00  0.00    +0.000 OA
ATOM     15  H   UNL     1      43.435   2.097  12.670  0.00  0.00    +0.000 HD
ATOM     16  H   UNL     1      42.692   1.380  11.249  0.00  0.00    +0.000 HD
ENDBRANCH   7  12
ENDBRANCH   1   2
BRANCH   1  19
ATOM     17  C   UNL     1      50.424   5.117  18.127  0.00  0.00    +0.000 A 
ATOM     18  N   UNL     1      50.293   5.334  16.809  0.00  0.00    +0.000 NA
ATOM     19  N   UNL     1      49.374   6.303  16.712  0.00  0.00    +0.000 N 
ATOM     20  C   UNL     1      48.892   6.701  17.921  0.00  0.00    +0.000 A 
ATOM     21  C   UNL     1      49.534   5.951  18.896  0.00  0.00    +0.000 A 
BRANCH  21  22
ATOM     22  C   UNL     1      49.303   6.040  20.408  0.00  0.00    +0.000 C 
ATOM     23  C   UNL     1      50.564   6.585  21.128  0.00  0.00    +0.000 C 
ATOM     24  C   UNL     1      48.143   6.994  20.756  0.00  0.00    +0.000 C 
ATOM     25  C   UNL     1      48.997   4.656  21.012  0.00  0.00    +0.000 C 
ENDBRANCH  21  22
BRANCH  17  26
ATOM     26  C   UNL     1      51.390   4.058  18.581  0.00  0.00    +0.000 C 
BRANCH  26  28
ATOM     27  C   UNL     1      53.791   3.691  17.829  0.00  0.00    +0.000 C 
ATOM     28  C   UNL     1      52.866   4.487  18.752  0.00  0.00    +0.000 C 
ATOM     29  C   UNL     1      53.381   4.413  20.195  0.00  0.00    +0.000 C 
BRANCH  28  30
ATOM     30  O   UNL     1      52.936   5.869  18.342  0.00  0.00    +0.000 OA
ATOM     31  H   UNL     1      52.759   6.429  19.118  0.00  0.00    +0.000 HD
ENDBRANCH  28  30
ENDBRANCH  26  28
ENDBRANCH  17  26
ENDBRANCH   1  19
TORSDOF 7
ENDMDL
MODEL 8
REMARK VINA RESULT:    -6.504      1.874      3.093
REMARK INTER + INTRA:          -9.304
REMARK INTER:                  -8.095
REMARK INTRA:                  -1.209
REMARK UNBOUND:                -0.329
REMARK  Name = 
REMARK  12 active torsions:
REMARK  status: ('A' for Active; 'I' for Inactive)
REMARK    1  A    between atoms: C_1  and  C_2
REMARK    2  A    between atoms: C_2  and  C_3
REMARK    3  A    between atoms: C_2  and  O_4
REMARK    4  A    between atoms: C_2  and  C_5
REMARK    5  A    between atoms: C_5  and  C_6
REMARK    6  A    between atoms: N_8  and  C_9
REMARK    7  A    between atoms: C_9  and  C_10
REMARK    8  A    between atoms: C_15  and  C_16
REMARK    9  A    between atoms: C_24  and  C_25
REMARK   10  A    between atoms: C_25  and  C_26
REMARK   11  A    between atoms: C_25  and  C_27
REMARK   12  A    between atoms: C_25  and  C_28
REMARK                            x       y       z     vdW  Elec       q    Type
REMARK                         _______ _______ _______ _____ _____    ______ ____
ROOT
ATOM      1  C   UNL     1      48.946   6.489  16.957  0.00  0.00    +0.000 C 
ENDROOT
BRANCH   1   2
ATOM      2  C   UNL     1      49.945   5.419  17.298  0.00  0.00    +0.000 A 
ATOM      3  C   UNL     1      51.206   5.733  17.778  0.00  0.00    +0.000 A 
ATOM      4  N   UNL     1      52.170   4.820  18.059  0.00  0.00    +0.000 NA
ATOM      5  C   UNL     1      51.924   3.525  17.860  0.00  0.00    +0.000 A 
ATOM      6  N   UNL     1      52.902   2.664  18.111  0.00  0.00    +0.000 NA
ATOM      7  C   UNL     1      52.632   1.359  17.900  0.00  0.00    +0.000 A 
ATOM      8  N   UNL     1      51.462   0.849  17.480  0.00  0.00    +0.000 NA
ATOM      9  C   UNL     1      50.499   1.749  17.238  0.00  0.00    +0.000 A 
ATOM     10  C   UNL     1      50.670   3.113  17.402  0.00  0.00    +0.000 A 
ATOM     11  C   UNL     1      49.671   4.065  17.121  0.00  0.00    +0.000 A 
BRANCH   7  12
ATOM     12  C   UNL     1      53.764   0.387  18.153  0.00  0.00    +0.000 C 
ATOM     13  N   UNL     1      53.398  -0.872  18.570  0.00  0.00    +0.000 N 
ATOM     14  O   UNL     1      54.948   0.670  18.010  0.00  0.00    +0.000 OA
ATOM     15  H   UNL     1      52.417  -1.101  18.704  0.00  0.00    +0.000 HD
ATOM     16  H   UNL     1      54.114  -1.550  18.766  0.00  0.00    +0.000 HD
ENDBRANCH   7  12
ENDBRANCH   1   2
BRANCH   1  19
ATOM     17  C   UNL     1      48.221   6.699  13.522  0.00  0.00    +0.000 A 
ATOM     18  N   UNL     1      48.055   6.136  14.729  0.00  0.00    +0.000 NA
ATOM     19  N   UNL     1      48.917   6.777  15.528  0.00  0.00    +0.000 N 
ATOM     20  C   UNL     1      49.650   7.719  14.872  0.00  0.00    +0.000 A 
ATOM     21  C   UNL     1      49.248   7.712  13.544  0.00  0.00    +0.000 A 
BRANCH  21  22
ATOM     22  C   UNL     1      49.806   8.594  12.422  0.00  0.00    +0.000 C 
ATOM     23  C   UNL     1      48.677   9.427  11.761  0.00  0.00    +0.000 C 
ATOM     24  C   UNL     1      50.851   9.598  12.949  0.00  0.00    +0.000 C 
ATOM     25  C   UNL     1      50.457   7.747  11.311  0.00  0.00    +0.000 C 
ENDBRANCH  21  22
BRANCH  17  26
ATOM     26  C   UNL     1      47.393   6.187  12.377  0.00  0.00    +0.000 C 
BRANCH  26  28
ATOM     27  C   UNL     1      45.145   5.855  11.234  0.00  0.00    +0.000 C 
ATOM     28  C   UNL     1      45.865   6.413  12.464  0.00  0.00    +0.000 C 
ATOM     29  C   UNL     1      45.456   7.874  12.689  0.00  0.00    +0.000 C 
BRANCH  28  30
ATOM     30  O   UNL     1      45.409   5.659  13.608  0.00  0.00    +0.000 OA
ATOM     31  H   UNL     1      45.707   6.115  14.415  0.00  0.00    +0.000 HD
ENDBRANCH  28  30
ENDBRANCH  26  28
ENDBRANCH  17  26
ENDBRANCH   1  19
TORSDOF 7
ENDMDL
MODEL 9
REMARK VINA RESULT:    -6.314      3.946      8.376
REMARK INTER + INTRA:          -9.042
REMARK INTER:                  -8.245
REMARK INTRA:                  -0.797
REMARK UNBOUND:                -0.329
REMARK  Name = 
REMARK  12 active torsions:
REMARK  status: ('A' for Active; 'I' for Inactive)
REMARK    1  A    between atoms: C_1  and  C_2
REMARK    2  A    between atoms: C_2  and  C_3
REMARK    3  A    between atoms: C_2  and  O_4
REMARK    4  A    between atoms: C_2  and  C_5
REMARK    5  A    between atoms: C_5  and  C_6
REMARK    6  A    between atoms: N_8  and  C_9
REMARK    7  A    between atoms: C_9  and  C_10
REMARK    8  A    between atoms: C_15  and  C_16
REMARK    9  A    between atoms: C_24  and  C_25
REMARK   10  A    between atoms: C_25  and  C_26
REMARK   11  A    between atoms: C_25  and  C_27
REMARK   12  A    between atoms: C_25  and  C_28
REMARK                            x       y       z     vdW  Elec       q    Type
REMARK                         _______ _______ _______ _____ _____    ______ ____
ROOT
ATOM      1  C   UNL     1      48.970   8.198  14.458  0.00  0.00    +0.000 C 
ENDROOT
BRANCH   1   2
ATOM      2  C   UNL     1      48.059   7.311  13.657  0.00  0.00    +0.000 A 
ATOM      3  C   UNL     1      47.365   7.790  12.557  0.00  0.00    +0.000 A 
ATOM      4  N   UNL     1      46.492   7.057  11.821  0.00  0.00    +0.000 NA
ATOM      5  C   UNL     1      46.254   5.789  12.159  0.00  0.00    +0.000 A 
ATOM      6  N   UNL     1      45.366   5.114  11.439  0.00  0.00    +0.000 NA
ATOM      7  C   UNL     1      45.138   3.834  11.799  0.00  0.00    +0.000 A 
ATOM      8  N   UNL     1      45.739   3.175  12.804  0.00  0.00    +0.000 NA
ATOM      9  C   UNL     1      46.627   3.889  13.508  0.00  0.00    +0.000 A 
ATOM     10  C   UNL     1      46.928   5.213  13.239  0.00  0.00    +0.000 A 
ATOM     11  C   UNL     1      47.839   5.977  13.993  0.00  0.00    +0.000 A 
BRANCH   7  12
ATOM     12  C   UNL     1      44.099   3.083  10.997  0.00  0.00    +0.000 C 
ATOM     13  N   UNL     1      43.153   2.397  11.723  0.00  0.00    +0.000 N 
ATOM     14  O   UNL     1      44.072   3.061   9.771  0.00  0.00    +0.000 OA
ATOM     15  H   UNL     1      43.186   2.402  12.739  0.00  0.00    +0.000 HD
ATOM     16  H   UNL     1      42.450   1.869  11.236  0.00  0.00    +0.000 HD
ENDBRANCH   7  12
ENDBRANCH   1   2
BRANCH   1  19
ATOM     17  C   UNL     1      49.514   6.494  17.486  0.00  0.00    +0.000 A 
ATOM     18  N   UNL     1      48.727   7.189  16.651  0.00  0.00    +0.000 NA
ATOM     19  N   UNL     1      49.521   7.511  15.621  0.00  0.00    +0.000 N 
ATOM     20  C   UNL     1      50.798   7.066  15.776  0.00  0.00    +0.000 A 
ATOM     21  C   UNL     1      50.864   6.396  16.989  0.00  0.00    +0.000 A 
BRANCH  21  22
ATOM     22  C   UNL     1      52.108   5.738  17.595  0.00  0.00    +0.000 C 
ATOM     23  C   UNL     1      51.901   4.209  17.754  0.00  0.00    +0.000 C 
ATOM     24  C   UNL     1      53.350   5.930  16.703  0.00  0.00    +0.000 C 
ATOM     25  C   UNL     1      52.418   6.303  18.995  0.00  0.00    +0.000 C 
ENDBRANCH  21  22
BRANCH  17  26
ATOM     26  C   UNL     1      48.918   5.989  18.771  0.00  0.00    +0.000 C 
BRANCH  26  28
ATOM     27  C   UNL     1      49.039   8.209  20.005  0.00  0.00    +0.000 C 
ATOM     28  C   UNL     1      48.153   7.017  19.637  0.00  0.00    +0.000 C 
ATOM     29  C   UNL     1      47.519   6.427  20.903  0.00  0.00    +0.000 C 
BRANCH  28  30
ATOM     30  O   UNL     1      47.078   7.520  18.814  0.00  0.00    +0.000 OA
ATOM     31  H   UNL     1      47.260   8.454  18.609  0.00  0.00    +0.000 HD
ENDBRANCH  28  30
ENDBRANCH  26  28
ENDBRANCH  17  26
ENDBRANCH   1  19
TORSDOF 7
ENDMDL
