MODEL 1
REMARK VINA RESULT:    -8.394      0.000      0.000
REMARK INTER + INTRA:          -9.987
REMARK INTER:                 -10.357
REMARK INTRA:                   0.370
REMARK UNBOUND:                 0.370
REMARK  Name = 
REMARK  4 active torsions:
REMARK  status: ('A' for Active; 'I' for Inactive)
REMARK    1  A    between atoms: C_2  and  C_4
REMARK    2  A    between atoms: C_7  and  N_8
REMARK    3  A    between atoms: N_8  and  C_9
REMARK    4  A    between atoms: C_9  and  C_10
REMARK                            x       y       z     vdW  Elec       q    Type
REMARK                         _______ _______ _______ _____ _____    ______ ____
ROOT
ATOM      1  C   UNL     1      46.213   2.224   7.859  0.00  0.00    +0.000 A 
ATOM      2  C   UNL     1      46.217   3.571   7.536  0.00  0.00    +0.000 A 
ATOM      3  N   UNL     1      45.397   4.468   8.152  0.00  0.00    +0.000 NA
ATOM      4  C   UNL     1      44.521   3.972   9.052  0.00  0.00    +0.000 A 
ATOM      5  C   UNL     1      44.493   2.596   9.310  0.00  0.00    +0.000 A 
ATOM      6  N   UNL     1      45.337   1.692   8.748  0.00  0.00    +0.000 NA
ENDROOT
BRANCH   1   8
ATOM      7  N   UNL     1      48.327   1.920   6.720  0.00  0.00    +0.000 N 
ATOM      8  C   UNL     1      47.248   1.319   7.311  0.00  0.00    +0.000 C 
ATOM      9  O   UNL     1      47.114   0.097   7.309  0.00  0.00    +0.000 OA
ATOM     10  H   UNL     1      48.999   1.355   6.219  0.00  0.00    +0.000 HD
ATOM     11  H   UNL     1      48.365   2.932   6.674  0.00  0.00    +0.000 HD
ENDBRANCH   1   8
BRANCH   4  12
ATOM     12  N   UNL     1      43.782   4.907   9.801  0.00  0.00    +0.000 N 
ATOM     13  H   UNL     1      43.816   5.781   9.283  0.00  0.00    +0.000 HD
BRANCH  12  14
ATOM     14  C   UNL     1      43.907   4.998  11.265  0.00  0.00    +0.000 C 
ATOM     15  C   UNL     1      43.218   3.977  12.170  0.00  0.00    +0.000 C 
ATOM     16  C   UNL     1      42.672   5.359  12.070  0.00  0.00    +0.000 C 
BRANCH  14  17
ATOM     17  C   UNL     1      45.321   5.292  11.756  0.00  0.00    +0.000 A 
ATOM     18  C   UNL     1      46.074   6.374  11.280  0.00  0.00    +0.000 A 
ATOM     19  C   UNL     1      47.237   6.785  11.933  0.00  0.00    +0.000 A 
ATOM     20  C   UNL     1      47.687   6.097  13.056  0.00  0.00    +0.000 A 
ATOM     21  C   UNL     1      47.018   4.956  13.483  0.00  0.00    +0.000 A 
ATOM     22  C   UNL     1      45.856   4.552  12.828  0.00  0.00    +0.000 A 
ENDBRANCH  14  17
ENDBRANCH  12  14
ENDBRANCH   4  12
TORSDOF 4
ENDMDL
MODEL 2
REMARK VINA RESULT:    -7.635      3.801      6.018
REMARK INTER + INTRA:          -9.051
REMARK INTER:                  -8.783
REMARK INTRA:                  -0.268
REMARK UNBOUND:                 0.370
REMARK  Name = 
REMARK  4 active torsions:
REMARK  status: ('A' for Active; 'I' for Inactive)
REMARK    1  A    between atoms: C_2  and  C_4
REMARK    2  A    between atoms: C_7  and  N_8
REMARK    3  A    between atoms: N_8  and  C_9
REMARK    4  A    between atoms: C_9  and  C_10
REMARK                            x       y       z     vdW  Elec       q    Type
REMARK                         _______ _______ _______ _____ _____    ______ ____
ROOT
ATOM      1  C   UNL     1      47.509   3.969  15.215  0.00  0.00    +0.000 A 
ATOM      2  C   UNL     1      47.377   5.337  15.041  0.00  0.00    +0.000 A 
ATOM      3  N   UNL     1      46.818   5.875  13.921  0.00  0.00    +0.000 NA
ATOM      4  C   UNL     1      46.458   5.011  12.946  0.00  0.00    +0.000 A 
ATOM      5  C   UNL     1      46.666   3.637  13.122  0.00  0.00    +0.000 A 
ATOM      6  N   UNL     1      47.170   3.076  14.252  0.00  0.00    +0.000 NA
ENDROOT
BRANCH   1   8
ATOM      7  N   UNL     1      46.939   3.071  17.390  0.00  0.00    +0.000 N 
ATOM      8  C   UNL     1      47.938   3.418  16.521  0.00  0.00    +0.000 C 
ATOM      9  O   UNL     1      49.122   3.352  16.846  0.00  0.00    +0.000 OA
ATOM     10  H   UNL     1      47.172   2.811  18.338  0.00  0.00    +0.000 HD
ATOM     11  H   UNL     1      45.973   3.212  17.115  0.00  0.00    +0.000 HD
ENDBRANCH   1   8
BRANCH   4  12
ATOM     12  N   UNL     1      45.743   5.544  11.857  0.00  0.00    +0.000 N 
ATOM     13  H   UNL     1      45.626   6.536  12.049  0.00  0.00    +0.000 HD
BRANCH  12  14
ATOM     14  C   UNL     1      44.590   4.841  11.270  0.00  0.00    +0.000 C 
ATOM     15  C   UNL     1      43.230   5.531  11.166  0.00  0.00    +0.000 C 
ATOM     16  C   UNL     1      43.439   4.465  12.185  0.00  0.00    +0.000 C 
BRANCH  14  17
ATOM     17  C   UNL     1      44.908   4.072   9.993  0.00  0.00    +0.000 A 
ATOM     18  C   UNL     1      45.536   4.669   8.891  0.00  0.00    +0.000 A 
ATOM     19  C   UNL     1      46.064   3.895   7.856  0.00  0.00    +0.000 A 
ATOM     20  C   UNL     1      45.939   2.508   7.888  0.00  0.00    +0.000 A 
ATOM     21  C   UNL     1      45.225   1.902   8.915  0.00  0.00    +0.000 A 
ATOM     22  C   UNL     1      44.703   2.679   9.946  0.00  0.00    +0.000 A 
ENDBRANCH  14  17
ENDBRANCH  12  14
ENDBRANCH   4  12
TORSDOF 4
ENDMDL
MODEL 3
REMARK VINA RESULT:    -7.105      3.564      6.145
REMARK INTER + INTRA:          -8.397
REMARK INTER:                  -8.642
REMARK INTRA:                   0.245
REMARK UNBOUND:                 0.370
REMARK  Name = 
REMARK  4 active torsions:
REMARK  status: ('A' for Active; 'I' for Inactive)
REMARK    1  A    between atoms: C_2  and  C_4
REMARK    2  A    between atoms: C_7  and  N_8
REMARK    3  A    between atoms: N_8  and  C_9
REMARK    4  A    between atoms: C_9  and  C_10
REMARK                            x       y       z     vdW  Elec       q    Type
REMARK                         _______ _______ _______ _____ _____    ______ ____
ROOT
ATOM      1  C   UNL     1      46.640   8.167  12.500  0.00  0.00    +0.000 A 
ATOM      2  C   UNL     1      45.306   8.450  12.259  0.00  0.00    +0.000 A 
ATOM      3  N   UNL     1      44.494   7.596  11.575  0.00  0.00    +0.000 NA
ATOM      4  C   UNL     1      45.070   6.480  11.075  0.00  0.00    +0.000 A 
ATOM      5  C   UNL     1      46.437   6.253  11.277  0.00  0.00    +0.000 A 
ATOM      6  N   UNL     1      47.252   7.063  12.001  0.00  0.00    +0.000 NA
ENDROOT
BRANCH   1   8
ATOM      7  N   UNL     1      47.184   8.880  14.748  0.00  0.00    +0.000 N 
ATOM      8  C   UNL     1      47.435   9.023  13.410  0.00  0.00    +0.000 C 
ATOM      9  O   UNL     1      48.218   9.874  12.991  0.00  0.00    +0.000 OA
ATOM     10  H   UNL     1      47.603   9.525  15.404  0.00  0.00    +0.000 HD
ATOM     11  H   UNL     1      46.476   8.221  15.051  0.00  0.00    +0.000 HD
ENDBRANCH   1   8
BRANCH   4  12
ATOM     12  N   UNL     1      44.210   5.524  10.504  0.00  0.00    +0.000 N 
ATOM     13  H   UNL     1      43.263   5.826  10.716  0.00  0.00    +0.000 HD
BRANCH  12  14
ATOM     14  C   UNL     1      44.484   4.080  10.604  0.00  0.00    +0.000 C 
ATOM     15  C   UNL     1      43.471   3.141  11.259  0.00  0.00    +0.000 C 
ATOM     16  C   UNL     1      44.726   3.490  11.981  0.00  0.00    +0.000 C 
BRANCH  14  17
ATOM     17  C   UNL     1      45.057   3.461   9.334  0.00  0.00    +0.000 A 
ATOM     18  C   UNL     1      45.511   4.234   8.258  0.00  0.00    +0.000 A 
ATOM     19  C   UNL     1      46.278   3.669   7.237  0.00  0.00    +0.000 A 
ATOM     20  C   UNL     1      46.573   2.309   7.257  0.00  0.00    +0.000 A 
ATOM     21  C   UNL     1      46.042   1.501   8.256  0.00  0.00    +0.000 A 
ATOM     22  C   UNL     1      45.279   2.071   9.273  0.00  0.00    +0.000 A 
ENDBRANCH  14  17
ENDBRANCH  12  14
ENDBRANCH   4  12
TORSDOF 4
ENDMDL
MODEL 4
REMARK VINA RESULT:    -6.943      3.866      6.260
REMARK INTER + INTRA:          -8.197
REMARK INTER:                  -8.146
REMARK INTRA:                  -0.051
REMARK UNBOUND:                 0.370
REMARK  Name = 
REMARK  4 active torsions:
REMARK  status: ('A' for Active; 'I' for Inactive)
REMARK    1  A    between atoms: C_2  and  C_4
REMARK    2  A    between atoms: C_7  and  N_8
REMARK    3  A    between atoms: N_8  and  C_9
REMARK    4  A    between atoms: C_9  and  C_10
REMARK                            x       y       z     vdW  Elec       q    Type
REMARK                         _______ _______ _______ _____ _____    ______ ____
ROOT
ATOM      1  C   UNL     1      47.637   5.055  15.246  0.00  0.00    +0.000 A 
ATOM      2  C   UNL     1      47.860   6.247  14.576  0.00  0.00    +0.000 A 
ATOM      3  N   UNL     1      47.152   6.598  13.466  0.00  0.00    +0.000 NA
ATOM      4  C   UNL     1      46.262   5.694  13.001  0.00  0.00    +0.000 A 
ATOM      5  C   UNL     1      46.107   4.468  13.661  0.00  0.00    +0.000 A 
ATOM      6  N   UNL     1      46.762   4.120  14.799  0.00  0.00    +0.000 NA
ENDROOT
BRANCH   1   8
ATOM      7  N   UNL     1      47.914   5.619  17.584  0.00  0.00    +0.000 N 
ATOM      8  C   UNL     1      48.285   4.798  16.553  0.00  0.00    +0.000 C 
ATOM      9  O   UNL     1      49.167   3.953  16.691  0.00  0.00    +0.000 OA
ATOM     10  H   UNL     1      48.414   5.573  18.461  0.00  0.00    +0.000 HD
ATOM     11  H   UNL     1      47.239   6.355  17.412  0.00  0.00    +0.000 HD
ENDBRANCH   1   8
BRANCH   4  12
ATOM     12  N   UNL     1      45.423   6.111  11.952  0.00  0.00    +0.000 N 
ATOM     13  H   UNL     1      45.148   7.067  12.166  0.00  0.00    +0.000 HD
BRANCH  12  14
ATOM     14  C   UNL     1      44.380   5.230  11.398  0.00  0.00    +0.000 C 
ATOM     15  C   UNL     1      42.992   5.779  11.070  0.00  0.00    +0.000 C 
ATOM     16  C   UNL     1      43.177   4.910  12.265  0.00  0.00    +0.000 C 
BRANCH  14  17
ATOM     17  C   UNL     1      44.869   4.297  10.296  0.00  0.00    +0.000 A 
ATOM     18  C   UNL     1      44.566   2.929  10.279  0.00  0.00    +0.000 A 
ATOM     19  C   UNL     1      44.782   2.157   9.135  0.00  0.00    +0.000 A 
ATOM     20  C   UNL     1      45.340   2.736   7.998  0.00  0.00    +0.000 A 
ATOM     21  C   UNL     1      45.749   4.064   8.027  0.00  0.00    +0.000 A 
ATOM     22  C   UNL     1      45.529   4.829   9.171  0.00  0.00    +0.000 A 
ENDBRANCH  14  17
ENDBRANCH  12  14
ENDBRANCH   4  12
TORSDOF 4
ENDMDL
MODEL 5
REMARK VINA RESULT:    -6.874      4.343      6.591
REMARK INTER + INTRA:          -8.112
REMARK INTER:                  -7.714
REMARK INTRA:                  -0.398
REMARK UNBOUND:                 0.370
REMARK  Name = 
REMARK  4 active torsions:
REMARK  status: ('A' for Active; 'I' for Inactive)
REMARK    1  A    between atoms: C_2  and  C_4
REMARK    2  A    between atoms: C_7  and  N_8
REMARK    3  A    between atoms: N_8  and  C_9
REMARK    4  A    between atoms: C_9  and  C_10
REMARK                            x       y       z     vdW  Elec       q    Type
REMARK                         _______ _______ _______ _____ _____    ______ ____
ROOT
ATOM      1  C   UNL     1      47.438   4.317  16.044  0.00  0.00    +0.000 A 
ATOM      2  C   UNL     1      48.180   5.476  15.883  0.00  0.00    +0.000 A 
ATOM      3  N   UNL     1      48.224   6.150  14.700  0.00  0.00    +0.000 NA
ATOM      4  C   UNL     1      47.564   5.597  13.659  0.00  0.00    +0.000 A 
ATOM      5  C   UNL     1      46.878   4.389  13.834  0.00  0.00    +0.000 A 
ATOM      6  N   UNL     1      46.775   3.728  15.017  0.00  0.00    +0.000 NA
ENDROOT
BRANCH   1   8
ATOM      7  N   UNL     1      47.926   4.336  18.415  0.00  0.00    +0.000 N 
ATOM      8  C   UNL     1      47.258   3.724  17.388  0.00  0.00    +0.000 C 
ATOM      9  O   UNL     1      46.614   2.691  17.567  0.00  0.00    +0.000 OA
ATOM     10  H   UNL     1      47.942   3.901  19.327  0.00  0.00    +0.000 HD
ATOM     11  H   UNL     1      48.509   5.141  18.215  0.00  0.00    +0.000 HD
ENDBRANCH   1   8
BRANCH   4  12
ATOM     12  N   UNL     1      47.478   6.363  12.482  0.00  0.00    +0.000 N 
ATOM     13  H   UNL     1      48.286   6.981  12.482  0.00  0.00    +0.000 HD
BRANCH  12  14
ATOM     14  C   UNL     1      46.202   6.940  12.026  0.00  0.00    +0.000 C 
ATOM     15  C   UNL     1      46.108   8.420  11.651  0.00  0.00    +0.000 C 
ATOM     16  C   UNL     1      45.506   7.943  12.928  0.00  0.00    +0.000 C 
BRANCH  14  17
ATOM     17  C   UNL     1      45.446   6.077  11.022  0.00  0.00    +0.000 A 
ATOM     18  C   UNL     1      46.003   5.684   9.798  0.00  0.00    +0.000 A 
ATOM     19  C   UNL     1      45.414   4.678   9.028  0.00  0.00    +0.000 A 
ATOM     20  C   UNL     1      44.234   4.073   9.455  0.00  0.00    +0.000 A 
ATOM     21  C   UNL     1      43.606   4.522  10.610  0.00  0.00    +0.000 A 
ATOM     22  C   UNL     1      44.200   5.524  11.375  0.00  0.00    +0.000 A 
ENDBRANCH  14  17
ENDBRANCH  12  14
ENDBRANCH   4  12
TORSDOF 4
ENDMDL
MODEL 6
REMARK VINA RESULT:    -6.624      4.189      6.496
REMARK INTER + INTRA:          -7.803
REMARK INTER:                  -8.038
REMARK INTRA:                   0.235
REMARK UNBOUND:                 0.370
REMARK  Name = 
REMARK  4 active torsions:
REMARK  status: ('A' for Active; 'I' for Inactive)
REMARK    1  A    between atoms: C_2  and  C_4
REMARK    2  A    between atoms: C_7  and  N_8
REMARK    3  A    between atoms: N_8  and  C_9
REMARK    4  A    between atoms: C_9  and  C_10
REMARK                            x       y       z     vdW  Elec       q    Type
REMARK                         _______ _______ _______ _____ _____    ______ ____
ROOT
ATOM      1  C   UNL     1      48.150   5.764  15.244  0.00  0.00    +0.000 A 
ATOM      2  C   UNL     1      47.419   4.716  15.779  0.00  0.00    +0.000 A 
ATOM      3  N   UNL     1      46.661   3.890  15.005  0.00  0.00    +0.000 NA
ATOM      4  C   UNL     1      46.596   4.182  13.687  0.00  0.00    +0.000 A 
ATOM      5  C   UNL     1      47.293   5.288  13.185  0.00  0.00    +0.000 A 
ATOM      6  N   UNL     1      48.097   6.092  13.929  0.00  0.00    +0.000 NA
ENDROOT
BRANCH   1   8
ATOM      7  N   UNL     1      48.569   7.355  17.020  0.00  0.00    +0.000 N 
ATOM      8  C   UNL     1      49.111   6.513  16.085  0.00  0.00    +0.000 C 
ATOM      9  O   UNL     1      50.325   6.453  15.905  0.00  0.00    +0.000 OA
ATOM     10  H   UNL     1      49.172   7.984  17.532  0.00  0.00    +0.000 HD
ATOM     11  H   UNL     1      47.561   7.435  17.087  0.00  0.00    +0.000 HD
ENDBRANCH   1   8
BRANCH   4  12
ATOM     12  N   UNL     1      45.943   3.248  12.861  0.00  0.00    +0.000 N 
ATOM     13  H   UNL     1      46.671   2.776  12.330  0.00  0.00    +0.000 HD
BRANCH  12  14
ATOM     14  C   UNL     1      44.707   3.588  12.136  0.00  0.00    +0.000 C 
ATOM     15  C   UNL     1      43.739   4.629  12.697  0.00  0.00    +0.000 C 
ATOM     16  C   UNL     1      43.381   3.185  12.753  0.00  0.00    +0.000 C 
BRANCH  14  17
ATOM     17  C   UNL     1      44.892   3.771  10.634  0.00  0.00    +0.000 A 
ATOM     18  C   UNL     1      45.434   4.938  10.078  0.00  0.00    +0.000 A 
ATOM     19  C   UNL     1      45.849   4.976   8.746  0.00  0.00    +0.000 A 
ATOM     20  C   UNL     1      45.693   3.856   7.934  0.00  0.00    +0.000 A 
ATOM     21  C   UNL     1      45.057   2.724   8.432  0.00  0.00    +0.000 A 
ATOM     22  C   UNL     1      44.649   2.691   9.763  0.00  0.00    +0.000 A 
ENDBRANCH  14  17
ENDBRANCH  12  14
ENDBRANCH   4  12
TORSDOF 4
ENDMDL
MODEL 7
REMARK VINA RESULT:    -6.267      3.092      5.052
REMARK INTER + INTRA:          -7.363
REMARK INTER:                  -7.062
REMARK INTRA:                  -0.300
REMARK UNBOUND:                 0.370
REMARK  Name = 
REMARK  4 active torsions:
REMARK  status: ('A' for Active; 'I' for Inactive)
REMARK    1  A    between atoms: C_2  and  C_4
REMARK    2  A    between atoms: C_7  and  N_8
REMARK    3  A    between atoms: N_8  and  C_9
REMARK    4  A    between atoms: C_9  and  C_10
REMARK                            x       y       z     vdW  Elec       q    Type
REMARK                         _______ _______ _______ _____ _____    ______ ____
ROOT
ATOM      1  C   UNL     1      44.339   4.139  11.848  0.00  0.00    +0.000 A 
ATOM      2  C   UNL     1      44.047   5.348  11.238  0.00  0.00    +0.000 A 
ATOM      3  N   UNL     1      44.557   6.529  11.687  0.00  0.00    +0.000 NA
ATOM      4  C   UNL     1      45.311   6.479  12.806  0.00  0.00    +0.000 A 
ATOM      5  C   UNL     1      45.534   5.251  13.440  0.00  0.00    +0.000 A 
ATOM      6  N   UNL     1      45.082   4.056  12.980  0.00  0.00    +0.000 NA
ENDROOT
BRANCH   1   8
ATOM      7  N   UNL     1      44.663   2.458  10.137  0.00  0.00    +0.000 N 
ATOM      8  C   UNL     1      43.928   2.864  11.219  0.00  0.00    +0.000 C 
ATOM      9  O   UNL     1      42.933   2.242  11.588  0.00  0.00    +0.000 OA
ATOM     10  H   UNL     1      44.351   1.665   9.593  0.00  0.00    +0.000 HD
ATOM     11  H   UNL     1      45.429   3.037   9.815  0.00  0.00    +0.000 HD
ENDBRANCH   1   8
BRANCH   4  12
ATOM     12  N   UNL     1      45.964   7.667  13.185  0.00  0.00    +0.000 N 
ATOM     13  H   UNL     1      45.407   8.433  12.813  0.00  0.00    +0.000 HD
BRANCH  12  14
ATOM     14  C   UNL     1      47.427   7.808  13.096  0.00  0.00    +0.000 C 
ATOM     15  C   UNL     1      48.056   8.784  12.102  0.00  0.00    +0.000 C 
ATOM     16  C   UNL     1      48.119   7.320  11.837  0.00  0.00    +0.000 C 
BRANCH  14  17
ATOM     17  C   UNL     1      48.134   7.877  14.446  0.00  0.00    +0.000 A 
ATOM     18  C   UNL     1      48.069   9.007  15.272  0.00  0.00    +0.000 A 
ATOM     19  C   UNL     1      48.482   8.949  16.605  0.00  0.00    +0.000 A 
ATOM     20  C   UNL     1      49.001   7.766  17.124  0.00  0.00    +0.000 A 
ATOM     21  C   UNL     1      49.176   6.665  16.294  0.00  0.00    +0.000 A 
ATOM     22  C   UNL     1      48.761   6.728  14.966  0.00  0.00    +0.000 A 
ENDBRANCH  14  17
ENDBRANCH  12  14
ENDBRANCH   4  12
TORSDOF 4
ENDMDL
MODEL 8
REMARK VINA RESULT:    -6.135      4.920      7.062
REMARK INTER + INTRA:          -7.200
REMARK INTER:                  -7.153
REMARK INTRA:                  -0.046
REMARK UNBOUND:                 0.370
REMARK  Name = 
REMARK  4 active torsions:
REMARK  status: ('A' for Active; 'I' for Inactive)
REMARK    1  A    between atoms: C_2  and  C_4
REMARK    2  A    between atoms: C_7  and  N_8
REMARK    3  A    between atoms: N_8  and  C_9
REMARK    4  A    between atoms: C_9  and  C_10
REMARK                            x       y       z     vdW  Elec       q    Type
REMARK                         _______ _______ _______ _____ _____    ______ ____
ROOT
ATOM      1  C   UNL     1      45.836   5.940  12.947  0.00  0.00    +0.000 A 
ATOM      2  C   UNL     1      45.391   4.628  12.924  0.00  0.00    +0.000 A 
ATOM      3  N   UNL     1      45.996   3.644  13.646  0.00  0.00    +0.000 NA
ATOM      4  C   UNL     1      47.103   3.991  14.338  0.00  0.00    +0.000 A 
ATOM      5  C   UNL     1      47.569   5.310  14.290  0.00  0.00    +0.000 A 
ATOM      6  N   UNL     1      46.951   6.319  13.621  0.00  0.00    +0.000 NA
ENDROOT
BRANCH   1   8
ATOM      7  N   UNL     1      45.161   8.263  12.854  0.00  0.00    +0.000 N 
ATOM      8  C   UNL     1      45.041   7.013  12.308  0.00  0.00    +0.000 C 
ATOM      9  O   UNL     1      44.251   6.786  11.394  0.00  0.00    +0.000 OA
ATOM     10  H   UNL     1      44.548   9.003  12.542  0.00  0.00    +0.000 HD
ATOM     11  H   UNL     1      45.765   8.395  13.657  0.00  0.00    +0.000 HD
ENDBRANCH   1   8
BRANCH   4  12
ATOM     12  N   UNL     1      47.640   3.020  15.204  0.00  0.00    +0.000 N 
ATOM     13  H   UNL     1      47.103   2.170  15.052  0.00  0.00    +0.000 HD
BRANCH  12  14
ATOM     14  C   UNL     1      47.996   3.338  16.597  0.00  0.00    +0.000 C 
ATOM     15  C   UNL     1      47.144   2.817  17.755  0.00  0.00    +0.000 C 
ATOM     16  C   UNL     1      47.076   4.257  17.380  0.00  0.00    +0.000 C 
BRANCH  14  17
ATOM     17  C   UNL     1      49.481   3.203  16.912  0.00  0.00    +0.000 A 
ATOM     18  C   UNL     1      50.241   4.260  17.431  0.00  0.00    +0.000 A 
ATOM     19  C   UNL     1      51.511   4.039  17.967  0.00  0.00    +0.000 A 
ATOM     20  C   UNL     1      52.060   2.760  17.959  0.00  0.00    +0.000 A 
ATOM     21  C   UNL     1      51.371   1.716  17.351  0.00  0.00    +0.000 A 
ATOM     22  C   UNL     1      50.103   1.942  16.820  0.00  0.00    +0.000 A 
ENDBRANCH  14  17
ENDBRANCH  12  14
ENDBRANCH   4  12
TORSDOF 4
ENDMDL
MODEL 9
REMARK VINA RESULT:    -5.991      1.376      2.706
REMARK INTER + INTRA:          -7.022
REMARK INTER:                  -7.163
REMARK INTRA:                   0.140
REMARK UNBOUND:                 0.370
REMARK  Name = 
REMARK  4 active torsions:
REMARK  status: ('A' for Active; 'I' for Inactive)
REMARK    1  A    between atoms: C_2  and  C_4
REMARK    2  A    between atoms: C_7  and  N_8
REMARK    3  A    between atoms: N_8  and  C_9
REMARK    4  A    between atoms: C_9  and  C_10
REMARK                            x       y       z     vdW  Elec       q    Type
REMARK                         _______ _______ _______ _____ _____    ______ ____
ROOT
ATOM      1  C   UNL     1      46.543   2.536   7.567  0.00  0.00    +0.000 A 
ATOM      2  C   UNL     1      47.154   3.756   7.327  0.00  0.00    +0.000 A 
ATOM      3  N   UNL     1      46.750   4.903   7.941  0.00  0.00    +0.000 NA
ATOM      4  C   UNL     1      45.670   4.813   8.748  0.00  0.00    +0.000 A 
ATOM      5  C   UNL     1      45.031   3.579   8.919  0.00  0.00    +0.000 A 
ATOM      6  N   UNL     1      45.450   2.413   8.361  0.00  0.00    +0.000 NA
ENDROOT
BRANCH   1   8
ATOM      7  N   UNL     1      46.751   0.127   7.657  0.00  0.00    +0.000 N 
ATOM      8  C   UNL     1      47.132   1.286   7.036  0.00  0.00    +0.000 C 
ATOM      9  O   UNL     1      47.978   1.288   6.144  0.00  0.00    +0.000 OA
ATOM     10  H   UNL     1      47.216  -0.740   7.421  0.00  0.00    +0.000 HD
ATOM     11  H   UNL     1      46.109   0.172   8.439  0.00  0.00    +0.000 HD
ENDBRANCH   1   8
BRANCH   4  12
ATOM     12  N   UNL     1      45.343   5.956   9.500  0.00  0.00    +0.000 N 
ATOM     13  H   UNL     1      45.493   6.755   8.889  0.00  0.00    +0.000 HD
BRANCH  12  14
ATOM     14  C   UNL     1      45.766   6.106  10.903  0.00  0.00    +0.000 C 
ATOM     15  C   UNL     1      46.085   7.487  11.476  0.00  0.00    +0.000 C 
ATOM     16  C   UNL     1      47.194   6.538  11.179  0.00  0.00    +0.000 C 
BRANCH  14  17
ATOM     17  C   UNL     1      44.952   5.282  11.895  0.00  0.00    +0.000 A 
ATOM     18  C   UNL     1      43.761   5.751  12.465  0.00  0.00    +0.000 A 
ATOM     19  C   UNL     1      42.897   4.888  13.142  0.00  0.00    +0.000 A 
ATOM     20  C   UNL     1      43.229   3.544  13.292  0.00  0.00    +0.000 A 
ATOM     21  C   UNL     1      44.456   3.079  12.831  0.00  0.00    +0.000 A 
ATOM     22  C   UNL     1      45.312   3.945  12.154  0.00  0.00    +0.000 A 
ENDBRANCH  14  17
ENDBRANCH  12  14
ENDBRANCH   4  12
TORSDOF 4
ENDMDL
