MODEL 1
REMARK VINA RESULT:    -7.917      0.000      0.000
REMARK INTER + INTRA:         -12.762
REMARK INTER:                 -11.850
REMARK INTRA:                  -0.912
REMARK UNBOUND:                -0.912
REMARK  Name = 
REMARK  9 active torsions:
REMARK  status: ('A' for Active; 'I' for Inactive)
REMARK    1  A    between atoms: N_1  and  C_2
REMARK    2  A    between atoms: C_2  and  C_3
REMARK    3  A    between atoms: C_2  and  C_17
REMARK    4  A    between atoms: C_3  and  N_4
REMARK    5  A    between atoms: C_5  and  C_7
REMARK    6  A    between atoms: C_20  and  C_21
REMARK    7  A    between atoms: C_21  and  O_22
REMARK    8  A    between atoms: O_22  and  C_23
REMARK    9  A    between atoms: C_23  and  C_24
REMARK                            x       y       z     vdW  Elec       q    Type
REMARK                         _______ _______ _______ _____ _____    ______ ____
ROOT
ATOM      1  C   UNL     1      48.703   7.498  14.021  0.00  0.00    +0.000 C 
ENDROOT
BRANCH   1   2
ATOM      2  C   UNL     1      47.476   6.654  13.656  0.00  0.00    +0.000 A 
ATOM      3  C   UNL     1      47.302   5.376  14.214  0.00  0.00    +0.000 A 
ATOM      4  C   UNL     1      46.145   4.627  13.973  0.00  0.00    +0.000 A 
ATOM      5  C   UNL     1      45.104   5.133  13.189  0.00  0.00    +0.000 A 
ATOM      6  C   UNL     1      45.273   6.392  12.610  0.00  0.00    +0.000 A 
ATOM      7  C   UNL     1      46.435   7.146  12.853  0.00  0.00    +0.000 A 
BRANCH   5   8
ATOM      8  C   UNL     1      43.852   4.319  12.953  0.00  0.00    +0.000 C 
BRANCH   8   9
ATOM      9  O   UNL     1      44.215   3.046  12.420  0.00  0.00    +0.000 OA
BRANCH   9  10
ATOM     10  C   UNL     1      45.091   3.129  11.295  0.00  0.00    +0.000 C 
BRANCH  10  11
ATOM     11  C   UNL     1      44.234   3.011  10.024  0.00  0.00    +0.000 C 
ATOM     12  C   UNL     1      44.735   1.897   9.085  0.00  0.00    +0.000 C 
ATOM     13  C   UNL     1      45.969   2.325   8.293  0.00  0.00    +0.000 C 
ATOM     14  C   UNL     1      45.738   3.664   7.599  0.00  0.00    +0.000 C 
ATOM     15  N   UNL     1      45.370   4.700   8.568  0.00  0.00    +0.000 NA
ATOM     16  C   UNL     1      44.134   4.343   9.269  0.00  0.00    +0.000 C 
ATOM     17  H   UNL     1      45.227   5.578   8.067  0.00  0.00    +0.000 HD
ENDBRANCH  10  11
ENDBRANCH   9  10
ENDBRANCH   8   9
ENDBRANCH   5   8
ENDBRANCH   1   2
BRANCH   1  18
ATOM     18  N   UNL     1      49.945   7.033  13.376  0.00  0.00    +0.000 NA
ATOM     19  H   UNL     1      50.699   7.680  13.591  0.00  0.00    +0.000 HD
ATOM     20  H   UNL     1      49.813   7.038  12.367  0.00  0.00    +0.000 HD
ENDBRANCH   1  18
BRANCH   1  21
ATOM     21  C   UNL     1      48.980   7.659  15.545  0.00  0.00    +0.000 C 
BRANCH  21  22
ATOM     22  N   UNL     1      49.963   6.723  16.077  0.00  0.00    +0.000 N 
ATOM     23  C   UNL     1      49.648   5.856  17.093  0.00  0.00    +0.000 C 
ATOM     24  O   UNL     1      48.503   5.759  17.530  0.00  0.00    +0.000 OA
ATOM     25  H   UNL     1      50.937   6.904  15.854  0.00  0.00    +0.000 HD
BRANCH  23  26
ATOM     26  C   UNL     1      50.725   5.016  17.631  0.00  0.00    +0.000 A 
ATOM     27  C   UNL     1      51.795   5.620  18.278  0.00  0.00    +0.000 A 
ATOM     28  S   UNL     1      53.006   4.526  18.772  0.00  0.00    +0.000 S 
ATOM     29  C   UNL     1      52.165   3.213  18.093  0.00  0.00    +0.000 A 
ATOM     30  N   UNL     1      52.710   1.967  18.086  0.00  0.00    +0.000 NA
ATOM     31  C   UNL     1      51.992   1.077  17.483  0.00  0.00    +0.000 A 
ATOM     32  N   UNL     1      50.761   1.313  16.927  0.00  0.00    +0.000 N 
ATOM     33  C   UNL     1      50.124   2.530  17.014  0.00  0.00    +0.000 A 
ATOM     34  O   UNL     1      48.952   2.668  16.678  0.00  0.00    +0.000 OA
ATOM     35  C   UNL     1      50.939   3.591  17.573  0.00  0.00    +0.000 A 
ATOM     36  H   UNL     1      50.228   0.557  16.524  0.00  0.00    +0.000 HD
ENDBRANCH  23  26
ENDBRANCH  21  22
ENDBRANCH   1  21
TORSDOF 9
ENDMDL
MODEL 2
REMARK VINA RESULT:    -7.799      1.912      2.503
REMARK INTER + INTRA:         -12.587
REMARK INTER:                 -11.467
REMARK INTRA:                  -1.120
REMARK UNBOUND:                -0.912
REMARK  Name = 
REMARK  9 active torsions:
REMARK  status: ('A' for Active; 'I' for Inactive)
REMARK    1  A    between atoms: N_1  and  C_2
REMARK    2  A    between atoms: C_2  and  C_3
REMARK    3  A    between atoms: C_2  and  C_17
REMARK    4  A    between atoms: C_3  and  N_4
REMARK    5  A    between atoms: C_5  and  C_7
REMARK    6  A    between atoms: C_20  and  C_21
REMARK    7  A    between atoms: C_21  and  O_22
REMARK    8  A    between atoms: O_22  and  C_23
REMARK    9  A    between atoms: C_23  and  C_24
REMARK                            x       y       z     vdW  Elec       q    Type
REMARK                         _______ _______ _______ _____ _____    ______ ____
ROOT
ATOM      1  C   UNL     1      47.546   4.128  15.881  0.00  0.00    +0.000 C 
ENDROOT
BRANCH   1   2
ATOM      2  C   UNL     1      47.076   4.633  14.511  0.00  0.00    +0.000 A 
ATOM      3  C   UNL     1      46.169   3.877  13.749  0.00  0.00    +0.000 A 
ATOM      4  C   UNL     1      45.651   4.361  12.543  0.00  0.00    +0.000 A 
ATOM      5  C   UNL     1      45.993   5.628  12.063  0.00  0.00    +0.000 A 
ATOM      6  C   UNL     1      46.910   6.381  12.799  0.00  0.00    +0.000 A 
ATOM      7  C   UNL     1      47.431   5.896  14.012  0.00  0.00    +0.000 A 
BRANCH   5   8
ATOM      8  C   UNL     1      45.410   6.145  10.767  0.00  0.00    +0.000 C 
BRANCH   8   9
ATOM      9  O   UNL     1      45.143   5.042   9.902  0.00  0.00    +0.000 OA
BRANCH   9  10
ATOM     10  C   UNL     1      46.070   4.929   8.821  0.00  0.00    +0.000 C 
BRANCH  10  11
ATOM     11  C   UNL     1      45.435   4.024   7.752  0.00  0.00    +0.000 C 
ATOM     12  C   UNL     1      44.707   2.815   8.370  0.00  0.00    +0.000 C 
ATOM     13  C   UNL     1      45.680   1.723   8.811  0.00  0.00    +0.000 C 
ATOM     14  C   UNL     1      46.643   1.359   7.685  0.00  0.00    +0.000 C 
ATOM     15  N   UNL     1      47.378   2.539   7.222  0.00  0.00    +0.000 NA
ATOM     16  C   UNL     1      46.459   3.557   6.709  0.00  0.00    +0.000 C 
ATOM     17  H   UNL     1      48.011   2.255   6.473  0.00  0.00    +0.000 HD
ENDBRANCH  10  11
ENDBRANCH   9  10
ENDBRANCH   8   9
ENDBRANCH   5   8
ENDBRANCH   1   2
BRANCH   1  18
ATOM     18  N   UNL     1      46.442   3.663  16.741  0.00  0.00    +0.000 NA
ATOM     19  H   UNL     1      46.511   2.655  16.862  0.00  0.00    +0.000 HD
ATOM     20  H   UNL     1      45.559   3.856  16.276  0.00  0.00    +0.000 HD
ENDBRANCH   1  18
BRANCH   1  21
ATOM     21  C   UNL     1      48.415   5.124  16.704  0.00  0.00    +0.000 C 
BRANCH  21  22
ATOM     22  N   UNL     1      49.492   4.495  17.460  0.00  0.00    +0.000 N 
ATOM     23  C   UNL     1      50.804   4.842  17.258  0.00  0.00    +0.000 C 
ATOM     24  O   UNL     1      51.123   5.762  16.508  0.00  0.00    +0.000 OA
ATOM     25  H   UNL     1      49.269   3.632  17.945  0.00  0.00    +0.000 HD
BRANCH  23  26
ATOM     26  C   UNL     1      51.829   4.091  17.993  0.00  0.00    +0.000 A 
ATOM     27  C   UNL     1      52.691   4.775  18.842  0.00  0.00    +0.000 A 
ATOM     28  S   UNL     1      53.877   3.784  19.560  0.00  0.00    +0.000 S 
ATOM     29  C   UNL     1      53.313   2.416  18.723  0.00  0.00    +0.000 A 
ATOM     30  N   UNL     1      53.961   1.224  18.816  0.00  0.00    +0.000 NA
ATOM     31  C   UNL     1      53.462   0.288  18.080  0.00  0.00    +0.000 A 
ATOM     32  N   UNL     1      52.347   0.424  17.293  0.00  0.00    +0.000 N 
ATOM     33  C   UNL     1      51.595   1.576  17.258  0.00  0.00    +0.000 A 
ATOM     34  O   UNL     1      50.504   1.615  16.699  0.00  0.00    +0.000 OA
ATOM     35  C   UNL     1      52.182   2.693  17.973  0.00  0.00    +0.000 A 
ATOM     36  H   UNL     1      51.976  -0.367  16.789  0.00  0.00    +0.000 HD
ENDBRANCH  23  26
ENDBRANCH  21  22
ENDBRANCH   1  21
TORSDOF 9
ENDMDL
MODEL 3
REMARK VINA RESULT:    -7.638      2.354      3.440
REMARK INTER + INTRA:         -12.346
REMARK INTER:                 -10.767
REMARK INTRA:                  -1.579
REMARK UNBOUND:                -0.912
REMARK  Name = 
REMARK  9 active torsions:
REMARK  status: ('A' for Active; 'I' for Inactive)
REMARK    1  A    between atoms: N_1  and  C_2
REMARK    2  A    between atoms: C_2  and  C_3
REMARK    3  A    between atoms: C_2  and  C_17
REMARK    4  A    between atoms: C_3  and  N_4
REMARK    5  A    between atoms: C_5  and  C_7
REMARK    6  A    between atoms: C_20  and  C_21
REMARK    7  A    between atoms: C_21  and  O_22
REMARK    8  A    between atoms: O_22  and  C_23
REMARK    9  A    between atoms: C_23  and  C_24
REMARK                            x       y       z     vdW  Elec       q    Type
REMARK                         _______ _______ _______ _____ _____    ______ ____
ROOT
ATOM      1  C   UNL     1      47.931   3.528  17.109  0.00  0.00    +0.000 C 
ENDROOT
BRANCH   1   2
ATOM      2  C   UNL     1      47.608   4.268  15.805  0.00  0.00    +0.000 A 
ATOM      3  C   UNL     1      48.017   5.600  15.625  0.00  0.00    +0.000 A 
ATOM      4  C   UNL     1      47.820   6.265  14.410  0.00  0.00    +0.000 A 
ATOM      5  C   UNL     1      47.235   5.620  13.317  0.00  0.00    +0.000 A 
ATOM      6  C   UNL     1      46.803   4.303  13.488  0.00  0.00    +0.000 A 
ATOM      7  C   UNL     1      47.002   3.634  14.709  0.00  0.00    +0.000 A 
BRANCH   5   8
ATOM      8  C   UNL     1      47.046   6.346  12.004  0.00  0.00    +0.000 C 
BRANCH   8   9
ATOM      9  O   UNL     1      45.895   5.822  11.342  0.00  0.00    +0.000 OA
BRANCH   9  10
ATOM     10  C   UNL     1      44.723   6.618  11.523  0.00  0.00    +0.000 C 
BRANCH  10  11
ATOM     11  C   UNL     1      43.516   5.786  11.059  0.00  0.00    +0.000 C 
ATOM     12  C   UNL     1      42.604   5.379  12.233  0.00  0.00    +0.000 C 
ATOM     13  C   UNL     1      43.184   4.214  13.033  0.00  0.00    +0.000 C 
ATOM     14  C   UNL     1      43.569   3.057  12.117  0.00  0.00    +0.000 C 
ATOM     15  N   UNL     1      44.522   3.494  11.092  0.00  0.00    +0.000 NA
ATOM     16  C   UNL     1      43.941   4.548  10.257  0.00  0.00    +0.000 C 
ATOM     17  H   UNL     1      44.755   2.694  10.503  0.00  0.00    +0.000 HD
ENDBRANCH  10  11
ENDBRANCH   9  10
ENDBRANCH   8   9
ENDBRANCH   5   8
ENDBRANCH   1   2
BRANCH   1  18
ATOM     18  N   UNL     1      46.751   2.900  17.731  0.00  0.00    +0.000 NA
ATOM     19  H   UNL     1      46.985   2.606  18.676  0.00  0.00    +0.000 HD
ATOM     20  H   UNL     1      46.506   2.066  17.202  0.00  0.00    +0.000 HD
ENDBRANCH   1  18
BRANCH   1  21
ATOM     21  C   UNL     1      48.663   4.368  18.197  0.00  0.00    +0.000 C 
BRANCH  21  22
ATOM     22  N   UNL     1      49.982   3.860  18.558  0.00  0.00    +0.000 N 
ATOM     23  C   UNL     1      51.106   4.238  17.868  0.00  0.00    +0.000 C 
ATOM     24  O   UNL     1      51.068   5.092  16.984  0.00  0.00    +0.000 OA
ATOM     25  H   UNL     1      50.010   3.041  19.157  0.00  0.00    +0.000 HD
BRANCH  23  26
ATOM     26  C   UNL     1      52.378   3.605  18.238  0.00  0.00    +0.000 A 
ATOM     27  C   UNL     1      53.380   4.382  18.807  0.00  0.00    +0.000 A 
ATOM     28  S   UNL     1      54.825   3.528  19.104  0.00  0.00    +0.000 S 
ATOM     29  C   UNL     1      54.179   2.103  18.438  0.00  0.00    +0.000 A 
ATOM     30  N   UNL     1      54.946   0.989  18.299  0.00  0.00    +0.000 NA
ATOM     31  C   UNL     1      54.347   0.000  17.721  0.00  0.00    +0.000 A 
ATOM     32  N   UNL     1      53.039   0.012  17.311  0.00  0.00    +0.000 N 
ATOM     33  C   UNL     1      52.196   1.076  17.538  0.00  0.00    +0.000 A 
ATOM     34  O   UNL     1      50.988   0.994  17.335  0.00  0.00    +0.000 OA
ATOM     35  C   UNL     1      52.852   2.253  18.073  0.00  0.00    +0.000 A 
ATOM     36  H   UNL     1      52.617  -0.817  16.921  0.00  0.00    +0.000 HD
ENDBRANCH  23  26
ENDBRANCH  21  22
ENDBRANCH   1  21
TORSDOF 9
ENDMDL
MODEL 4
REMARK VINA RESULT:    -7.420      3.632      9.856
REMARK INTER + INTRA:         -12.020
REMARK INTER:                 -10.701
REMARK INTRA:                  -1.319
REMARK UNBOUND:                -0.912
REMARK  Name = 
REMARK  9 active torsions:
REMARK  status: ('A' for Active; 'I' for Inactive)
REMARK    1  A    between atoms: N_1  and  C_2
REMARK    2  A    between atoms: C_2  and  C_3
REMARK    3  A    between atoms: C_2  and  C_17
REMARK    4  A    between atoms: C_3  and  N_4
REMARK    5  A    between atoms: C_5  and  C_7
REMARK    6  A    between atoms: C_20  and  C_21
REMARK    7  A    between atoms: C_21  and  O_22
REMARK    8  A    between atoms: O_22  and  C_23
REMARK    9  A    between atoms: C_23  and  C_24
REMARK                            x       y       z     vdW  Elec       q    Type
REMARK                         _______ _______ _______ _____ _____    ______ ____
ROOT
ATOM      1  C   UNL     1      48.346   4.059  17.108  0.00  0.00    +0.000 C 
ENDROOT
BRANCH   1   2
ATOM      2  C   UNL     1      49.746   3.464  17.298  0.00  0.00    +0.000 A 
ATOM      3  C   UNL     1      50.792   4.257  17.799  0.00  0.00    +0.000 A 
ATOM      4  C   UNL     1      52.052   3.714  18.073  0.00  0.00    +0.000 A 
ATOM      5  C   UNL     1      52.311   2.353  17.886  0.00  0.00    +0.000 A 
ATOM      6  C   UNL     1      51.287   1.557  17.368  0.00  0.00    +0.000 A 
ATOM      7  C   UNL     1      50.021   2.103  17.094  0.00  0.00    +0.000 A 
BRANCH   5   8
ATOM      8  C   UNL     1      53.672   1.777  18.205  0.00  0.00    +0.000 C 
BRANCH   8   9
ATOM      9  O   UNL     1      53.538   0.381  18.471  0.00  0.00    +0.000 OA
BRANCH   9  10
ATOM     10  C   UNL     1      54.261  -0.444  17.558  0.00  0.00    +0.000 C 
BRANCH  10  11
ATOM     11  C   UNL     1      55.307  -1.231  18.365  0.00  0.00    +0.000 C 
ATOM     12  C   UNL     1      55.437  -2.689  17.884  0.00  0.00    +0.000 C 
ATOM     13  C   UNL     1      54.292  -3.565  18.388  0.00  0.00    +0.000 C 
ATOM     14  C   UNL     1      54.116  -3.423  19.897  0.00  0.00    +0.000 C 
ATOM     15  N   UNL     1      53.889  -2.024  20.268  0.00  0.00    +0.000 NA
ATOM     16  C   UNL     1      55.025  -1.188  19.873  0.00  0.00    +0.000 C 
ATOM     17  H   UNL     1      53.775  -1.971  21.282  0.00  0.00    +0.000 HD
ENDBRANCH  10  11
ENDBRANCH   9  10
ENDBRANCH   8   9
ENDBRANCH   5   8
ENDBRANCH   1   2
BRANCH   1  18
ATOM     18  N   UNL     1      47.385   3.111  16.516  0.00  0.00    +0.000 NA
ATOM     19  H   UNL     1      47.343   3.257  15.510  0.00  0.00    +0.000 HD
ATOM     20  H   UNL     1      46.459   3.301  16.892  0.00  0.00    +0.000 HD
ENDBRANCH   1  18
BRANCH   1  21
ATOM     21  C   UNL     1      48.282   5.385  16.294  0.00  0.00    +0.000 C 
BRANCH  21  22
ATOM     22  N   UNL     1      47.283   5.388  15.232  0.00  0.00    +0.000 N 
ATOM     23  C   UNL     1      47.555   5.921  13.997  0.00  0.00    +0.000 C 
ATOM     24  O   UNL     1      48.676   6.327  13.699  0.00  0.00    +0.000 OA
ATOM     25  H   UNL     1      46.321   5.220  15.508  0.00  0.00    +0.000 HD
BRANCH  23  26
ATOM     26  C   UNL     1      46.461   5.968  13.019  0.00  0.00    +0.000 A 
ATOM     27  C   UNL     1      46.112   7.186  12.451  0.00  0.00    +0.000 A 
ATOM     28  S   UNL     1      44.772   7.097  11.402  0.00  0.00    +0.000 S 
ATOM     29  C   UNL     1      44.580   5.436  11.709  0.00  0.00    +0.000 A 
ATOM     30  N   UNL     1      43.532   4.747  11.182  0.00  0.00    +0.000 NA
ATOM     31  C   UNL     1      43.473   3.509  11.547  0.00  0.00    +0.000 A 
ATOM     32  N   UNL     1      44.391   2.889  12.355  0.00  0.00    +0.000 N 
ATOM     33  C   UNL     1      45.525   3.518  12.815  0.00  0.00    +0.000 A 
ATOM     34  O   UNL     1      46.423   2.896  13.376  0.00  0.00    +0.000 OA
ATOM     35  C   UNL     1      45.575   4.939  12.533  0.00  0.00    +0.000 A 
ATOM     36  H   UNL     1      44.316   1.902  12.552  0.00  0.00    +0.000 HD
ENDBRANCH  23  26
ENDBRANCH  21  22
ENDBRANCH   1  21
TORSDOF 9
ENDMDL
MODEL 5
REMARK VINA RESULT:    -7.402      2.272      2.945
REMARK INTER + INTRA:         -11.991
REMARK INTER:                 -10.975
REMARK INTRA:                  -1.016
REMARK UNBOUND:                -0.912
REMARK  Name = 
REMARK  9 active torsions:
REMARK  status: ('A' for Active; 'I' for Inactive)
REMARK    1  A    between atoms: N_1  and  C_2
REMARK    2  A    between atoms: C_2  and  C_3
REMARK    3  A    between atoms: C_2  and  C_17
REMARK    4  A    between atoms: C_3  and  N_4
REMARK    5  A    between atoms: C_5  and  C_7
REMARK    6  A    between atoms: C_20  and  C_21
REMARK    7  A    between atoms: C_21  and  O_22
REMARK    8  A    between atoms: O_22  and  C_23
REMARK    9  A    between atoms: C_23  and  C_24
REMARK                            x       y       z     vdW  Elec       q    Type
REMARK                         _______ _______ _______ _____ _____    ______ ____
ROOT
ATOM      1  C   UNL     1      48.333   7.612  12.775  0.00  0.00    +0.000 C 
ENDROOT
BRANCH   1   2
ATOM      2  C   UNL     1      47.082   6.736  12.915  0.00  0.00    +0.000 A 
ATOM      3  C   UNL     1      45.894   7.082  12.249  0.00  0.00    +0.000 A 
ATOM      4  C   UNL     1      44.771   6.249  12.283  0.00  0.00    +0.000 A 
ATOM      5  C   UNL     1      44.795   5.025  12.957  0.00  0.00    +0.000 A 
ATOM      6  C   UNL     1      45.961   4.678  13.642  0.00  0.00    +0.000 A 
ATOM      7  C   UNL     1      47.091   5.514  13.608  0.00  0.00    +0.000 A 
BRANCH   5   8
ATOM      8  C   UNL     1      43.579   4.127  12.968  0.00  0.00    +0.000 C 
BRANCH   8   9
ATOM      9  O   UNL     1      43.880   2.923  12.263  0.00  0.00    +0.000 OA
BRANCH   9  10
ATOM     10  C   UNL     1      44.861   3.093  11.240  0.00  0.00    +0.000 C 
BRANCH  10  11
ATOM     11  C   UNL     1      44.140   3.033   9.884  0.00  0.00    +0.000 C 
ATOM     12  C   UNL     1      44.698   1.921   8.975  0.00  0.00    +0.000 C 
ATOM     13  C   UNL     1      46.023   2.320   8.327  0.00  0.00    +0.000 C 
ATOM     14  C   UNL     1      45.912   3.681   7.646  0.00  0.00    +0.000 C 
ATOM     15  N   UNL     1      45.480   4.709   8.596  0.00  0.00    +0.000 NA
ATOM     16  C   UNL     1      44.166   4.384   9.155  0.00  0.00    +0.000 C 
ATOM     17  H   UNL     1      45.420   5.602   8.105  0.00  0.00    +0.000 HD
ENDBRANCH  10  11
ENDBRANCH   9  10
ENDBRANCH   8   9
ENDBRANCH   5   8
ENDBRANCH   1   2
BRANCH   1  18
ATOM     18  N   UNL     1      49.592   6.852  12.882  0.00  0.00    +0.000 NA
ATOM     19  H   UNL     1      50.358   7.419  12.529  0.00  0.00    +0.000 HD
ATOM     20  H   UNL     1      49.527   6.023  12.295  0.00  0.00    +0.000 HD
ENDBRANCH   1  18
BRANCH   1  21
ATOM     21  C   UNL     1      48.416   8.827  13.745  0.00  0.00    +0.000 C 
BRANCH  21  22
ATOM     22  N   UNL     1      48.081   8.512  15.129  0.00  0.00    +0.000 N 
ATOM     23  C   UNL     1      49.038   8.094  16.019  0.00  0.00    +0.000 C 
ATOM     24  O   UNL     1      50.230   8.062  15.721  0.00  0.00    +0.000 OA
ATOM     25  H   UNL     1      47.098   8.369  15.341  0.00  0.00    +0.000 HD
BRANCH  23  26
ATOM     26  C   UNL     1      48.595   7.708  17.364  0.00  0.00    +0.000 A 
ATOM     27  C   UNL     1      48.115   8.686  18.226  0.00  0.00    +0.000 A 
ATOM     28  S   UNL     1      47.720   8.101  19.777  0.00  0.00    +0.000 S 
ATOM     29  C   UNL     1      48.223   6.530  19.367  0.00  0.00    +0.000 A 
ATOM     30  N   UNL     1      48.235   5.537  20.297  0.00  0.00    +0.000 NA
ATOM     31  C   UNL     1      48.700   4.411  19.866  0.00  0.00    +0.000 A 
ATOM     32  N   UNL     1      49.112   4.178  18.580  0.00  0.00    +0.000 N 
ATOM     33  C   UNL     1      49.008   5.119  17.581  0.00  0.00    +0.000 A 
ATOM     34  O   UNL     1      49.204   4.832  16.404  0.00  0.00    +0.000 OA
ATOM     35  C   UNL     1      48.607   6.434  18.040  0.00  0.00    +0.000 A 
ATOM     36  H   UNL     1      49.408   3.256  18.296  0.00  0.00    +0.000 HD
ENDBRANCH  23  26
ENDBRANCH  21  22
ENDBRANCH   1  21
TORSDOF 9
ENDMDL
MODEL 6
REMARK VINA RESULT:    -7.190      3.420      9.332
REMARK INTER + INTRA:         -11.675
REMARK INTER:                  -9.797
REMARK INTRA:                  -1.878
REMARK UNBOUND:                -0.912
REMARK  Name = 
REMARK  9 active torsions:
REMARK  status: ('A' for Active; 'I' for Inactive)
REMARK    1  A    between atoms: N_1  and  C_2
REMARK    2  A    between atoms: C_2  and  C_3
REMARK    3  A    between atoms: C_2  and  C_17
REMARK    4  A    between atoms: C_3  and  N_4
REMARK    5  A    between atoms: C_5  and  C_7
REMARK    6  A    between atoms: C_20  and  C_21
REMARK    7  A    between atoms: C_21  and  O_22
REMARK    8  A    between atoms: O_22  and  C_23
REMARK    9  A    between atoms: C_23  and  C_24
REMARK                            x       y       z     vdW  Elec       q    Type
REMARK                         _______ _______ _______ _____ _____    ______ ____
ROOT
ATOM      1  C   UNL     1      47.111   4.203  17.389  0.00  0.00    +0.000 C 
ENDROOT
BRANCH   1   2
ATOM      2  C   UNL     1      48.052   4.920  18.366  0.00  0.00    +0.000 A 
ATOM      3  C   UNL     1      48.593   4.231  19.465  0.00  0.00    +0.000 A 
ATOM      4  C   UNL     1      49.528   4.833  20.313  0.00  0.00    +0.000 A 
ATOM      5  C   UNL     1      49.983   6.135  20.085  0.00  0.00    +0.000 A 
ATOM      6  C   UNL     1      49.438   6.839  19.009  0.00  0.00    +0.000 A 
ATOM      7  C   UNL     1      48.499   6.234  18.155  0.00  0.00    +0.000 A 
BRANCH   5   8
ATOM      8  C   UNL     1      51.008   6.765  21.000  0.00  0.00    +0.000 C 
BRANCH   8   9
ATOM      9  O   UNL     1      52.304   6.276  20.657  0.00  0.00    +0.000 OA
BRANCH   9  10
ATOM     10  C   UNL     1      52.844   6.874  19.477  0.00  0.00    +0.000 C 
BRANCH  10  11
ATOM     11  C   UNL     1      53.712   5.818  18.772  0.00  0.00    +0.000 C 
ATOM     12  C   UNL     1      53.173   5.462  17.373  0.00  0.00    +0.000 C 
ATOM     13  C   UNL     1      51.970   4.523  17.443  0.00  0.00    +0.000 C 
ATOM     14  C   UNL     1      52.270   3.311  18.319  0.00  0.00    +0.000 C 
ATOM     15  N   UNL     1      52.672   3.725  19.666  0.00  0.00    +0.000 NA
ATOM     16  C   UNL     1      53.881   4.550  19.619  0.00  0.00    +0.000 C 
ATOM     17  H   UNL     1      52.862   2.888  20.220  0.00  0.00    +0.000 HD
ENDBRANCH  10  11
ENDBRANCH   9  10
ENDBRANCH   8   9
ENDBRANCH   5   8
ENDBRANCH   1   2
BRANCH   1  18
ATOM     18  N   UNL     1      46.726   2.852  17.836  0.00  0.00    +0.000 NA
ATOM     19  H   UNL     1      45.792   2.884  18.237  0.00  0.00    +0.000 HD
ATOM     20  H   UNL     1      47.365   2.553  18.569  0.00  0.00    +0.000 HD
ENDBRANCH   1  18
BRANCH   1  21
ATOM     21  C   UNL     1      47.617   4.103  15.919  0.00  0.00    +0.000 C 
BRANCH  21  22
ATOM     22  N   UNL     1      46.697   4.655  14.931  0.00  0.00    +0.000 N 
ATOM     23  C   UNL     1      47.148   5.426  13.889  0.00  0.00    +0.000 C 
ATOM     24  O   UNL     1      48.346   5.604  13.685  0.00  0.00    +0.000 OA
ATOM     25  H   UNL     1      45.712   4.664  15.176  0.00  0.00    +0.000 HD
BRANCH  23  26
ATOM     26  C   UNL     1      46.143   6.019  12.998  0.00  0.00    +0.000 A 
ATOM     27  C   UNL     1      46.283   7.346  12.609  0.00  0.00    +0.000 A 
ATOM     28  S   UNL     1      44.998   7.917  11.644  0.00  0.00    +0.000 S 
ATOM     29  C   UNL     1      44.187   6.427  11.754  0.00  0.00    +0.000 A 
ATOM     30  N   UNL     1      42.949   6.266  11.215  0.00  0.00    +0.000 NA
ATOM     31  C   UNL     1      42.424   5.105  11.426  0.00  0.00    +0.000 A 
ATOM     32  N   UNL     1      43.043   4.077  12.090  0.00  0.00    +0.000 N 
ATOM     33  C   UNL     1      44.338   4.160  12.551  0.00  0.00    +0.000 A 
ATOM     34  O   UNL     1      44.935   3.173  12.971  0.00  0.00    +0.000 OA
ATOM     35  C   UNL     1      44.926   5.481  12.445  0.00  0.00    +0.000 A 
ATOM     36  H   UNL     1      42.598   3.175  12.167  0.00  0.00    +0.000 HD
ENDBRANCH  23  26
ENDBRANCH  21  22
ENDBRANCH   1  21
TORSDOF 9
ENDMDL
MODEL 7
REMARK VINA RESULT:    -7.153      3.293      9.468
REMARK INTER + INTRA:         -11.619
REMARK INTER:                  -9.816
REMARK INTRA:                  -1.804
REMARK UNBOUND:                -0.912
REMARK  Name = 
REMARK  9 active torsions:
REMARK  status: ('A' for Active; 'I' for Inactive)
REMARK    1  A    between atoms: N_1  and  C_2
REMARK    2  A    between atoms: C_2  and  C_3
REMARK    3  A    between atoms: C_2  and  C_17
REMARK    4  A    between atoms: C_3  and  N_4
REMARK    5  A    between atoms: C_5  and  C_7
REMARK    6  A    between atoms: C_20  and  C_21
REMARK    7  A    between atoms: C_21  and  O_22
REMARK    8  A    between atoms: O_22  and  C_23
REMARK    9  A    between atoms: C_23  and  C_24
REMARK                            x       y       z     vdW  Elec       q    Type
REMARK                         _______ _______ _______ _____ _____    ______ ____
ROOT
ATOM      1  C   UNL     1      48.240   3.407  16.682  0.00  0.00    +0.000 C 
ENDROOT
BRANCH   1   2
ATOM      2  C   UNL     1      49.635   3.134  17.257  0.00  0.00    +0.000 A 
ATOM      3  C   UNL     1      50.276   1.908  17.014  0.00  0.00    +0.000 A 
ATOM      4  C   UNL     1      51.586   1.672  17.444  0.00  0.00    +0.000 A 
ATOM      5  C   UNL     1      52.319   2.658  18.110  0.00  0.00    +0.000 A 
ATOM      6  C   UNL     1      51.687   3.874  18.378  0.00  0.00    +0.000 A 
ATOM      7  C   UNL     1      50.371   4.112  17.945  0.00  0.00    +0.000 A 
BRANCH   5   8
ATOM      8  C   UNL     1      53.741   2.394  18.552  0.00  0.00    +0.000 C 
BRANCH   8   9
ATOM      9  O   UNL     1      54.593   3.404  18.013  0.00  0.00    +0.000 OA
BRANCH   9  10
ATOM     10  C   UNL     1      55.229   4.204  19.010  0.00  0.00    +0.000 C 
BRANCH  10  11
ATOM     11  C   UNL     1      55.713   5.498  18.335  0.00  0.00    +0.000 C 
ATOM     12  C   UNL     1      55.168   6.759  19.032  0.00  0.00    +0.000 C 
ATOM     13  C   UNL     1      53.711   7.034  18.664  0.00  0.00    +0.000 C 
ATOM     14  C   UNL     1      53.517   7.029  17.151  0.00  0.00    +0.000 C 
ATOM     15  N   UNL     1      53.958   5.758  16.570  0.00  0.00    +0.000 NA
ATOM     16  C   UNL     1      55.379   5.528  16.837  0.00  0.00    +0.000 C 
ATOM     17  H   UNL     1      53.811   5.793  15.561  0.00  0.00    +0.000 HD
ENDBRANCH  10  11
ENDBRANCH   9  10
ENDBRANCH   8   9
ENDBRANCH   5   8
ENDBRANCH   1   2
BRANCH   1  18
ATOM     18  N   UNL     1      47.916   2.568  15.514  0.00  0.00    +0.000 NA
ATOM     19  H   UNL     1      48.233   3.034  14.667  0.00  0.00    +0.000 HD
ATOM     20  H   UNL     1      46.906   2.468  15.450  0.00  0.00    +0.000 HD
ENDBRANCH   1  18
BRANCH   1  21
ATOM     21  C   UNL     1      47.943   4.890  16.311  0.00  0.00    +0.000 C 
BRANCH  21  22
ATOM     22  N   UNL     1      47.037   5.055  15.180  0.00  0.00    +0.000 N 
ATOM     23  C   UNL     1      47.399   5.781  14.074  0.00  0.00    +0.000 C 
ATOM     24  O   UNL     1      48.532   6.240  13.943  0.00  0.00    +0.000 OA
ATOM     25  H   UNL     1      46.059   4.835  15.341  0.00  0.00    +0.000 HD
BRANCH  23  26
ATOM     26  C   UNL     1      46.390   5.974  13.025  0.00  0.00    +0.000 A 
ATOM     27  C   UNL     1      46.155   7.254  12.539  0.00  0.00    +0.000 A 
ATOM     28  S   UNL     1      44.900   7.332  11.389  0.00  0.00    +0.000 S 
ATOM     29  C   UNL     1      44.593   5.666  11.537  0.00  0.00    +0.000 A 
ATOM     30  N   UNL     1      43.555   5.087  10.876  0.00  0.00    +0.000 NA
ATOM     31  C   UNL     1      43.400   3.829  11.128  0.00  0.00    +0.000 A 
ATOM     32  N   UNL     1      44.215   3.091  11.946  0.00  0.00    +0.000 N 
ATOM     33  C   UNL     1      45.342   3.610  12.542  0.00  0.00    +0.000 A 
ATOM     34  O   UNL     1      46.157   2.891  13.112  0.00  0.00    +0.000 OA
ATOM     35  C   UNL     1      45.492   5.044  12.387  0.00  0.00    +0.000 A 
ATOM     36  H   UNL     1      44.071   2.098  12.052  0.00  0.00    +0.000 HD
ENDBRANCH  23  26
ENDBRANCH  21  22
ENDBRANCH   1  21
TORSDOF 9
ENDMDL
MODEL 8
REMARK VINA RESULT:    -6.997      3.396      7.869
REMARK INTER + INTRA:         -11.386
REMARK INTER:                  -9.648
REMARK INTRA:                  -1.737
REMARK UNBOUND:                -0.912
REMARK  Name = 
REMARK  9 active torsions:
REMARK  status: ('A' for Active; 'I' for Inactive)
REMARK    1  A    between atoms: N_1  and  C_2
REMARK    2  A    between atoms: C_2  and  C_3
REMARK    3  A    between atoms: C_2  and  C_17
REMARK    4  A    between atoms: C_3  and  N_4
REMARK    5  A    between atoms: C_5  and  C_7
REMARK    6  A    between atoms: C_20  and  C_21
REMARK    7  A    between atoms: C_21  and  O_22
REMARK    8  A    between atoms: O_22  and  C_23
REMARK    9  A    between atoms: C_23  and  C_24
REMARK                            x       y       z     vdW  Elec       q    Type
REMARK                         _______ _______ _______ _____ _____    ______ ____
ROOT
ATOM      1  C   UNL     1      48.231   4.432  17.821  0.00  0.00    +0.000 C 
ENDROOT
BRANCH   1   2
ATOM      2  C   UNL     1      48.843   5.771  17.391  0.00  0.00    +0.000 A 
ATOM      3  C   UNL     1      48.308   6.980  17.865  0.00  0.00    +0.000 A 
ATOM      4  C   UNL     1      48.908   8.209  17.566  0.00  0.00    +0.000 A 
ATOM      5  C   UNL     1      50.079   8.278  16.807  0.00  0.00    +0.000 A 
ATOM      6  C   UNL     1      50.609   7.086  16.311  0.00  0.00    +0.000 A 
ATOM      7  C   UNL     1      50.008   5.851  16.611  0.00  0.00    +0.000 A 
BRANCH   5   8
ATOM      8  C   UNL     1      50.726   9.612  16.508  0.00  0.00    +0.000 C 
BRANCH   8   9
ATOM      9  O   UNL     1      51.245   9.592  15.179  0.00  0.00    +0.000 OA
BRANCH   9  10
ATOM     10  C   UNL     1      50.494  10.389  14.263  0.00  0.00    +0.000 C 
BRANCH  10  11
ATOM     11  C   UNL     1      51.045  10.126  12.852  0.00  0.00    +0.000 C 
ATOM     12  C   UNL     1      49.945  10.191  11.775  0.00  0.00    +0.000 C 
ATOM     13  C   UNL     1      49.091   8.925  11.749  0.00  0.00    +0.000 C 
ATOM     14  C   UNL     1      49.963   7.676  11.670  0.00  0.00    +0.000 C 
ATOM     15  N   UNL     1      50.912   7.628  12.786  0.00  0.00    +0.000 NA
ATOM     16  C   UNL     1      51.800   8.792  12.766  0.00  0.00    +0.000 C 
ATOM     17  H   UNL     1      51.474   6.780  12.698  0.00  0.00    +0.000 HD
ENDBRANCH  10  11
ENDBRANCH   9  10
ENDBRANCH   8   9
ENDBRANCH   5   8
ENDBRANCH   1   2
BRANCH   1  18
ATOM     18  N   UNL     1      49.203   3.524  18.457  0.00  0.00    +0.000 NA
ATOM     19  H   UNL     1      48.706   2.847  19.030  0.00  0.00    +0.000 HD
ATOM     20  H   UNL     1      49.804   4.065  19.074  0.00  0.00    +0.000 HD
ENDBRANCH   1  18
BRANCH   1  21
ATOM     21  C   UNL     1      47.488   3.641  16.703  0.00  0.00    +0.000 C 
BRANCH  21  22
ATOM     22  N   UNL     1      46.773   4.482  15.750  0.00  0.00    +0.000 N 
ATOM     23  C   UNL     1      46.791   4.211  14.405  0.00  0.00    +0.000 C 
ATOM     24  O   UNL     1      47.323   3.199  13.955  0.00  0.00    +0.000 OA
ATOM     25  H   UNL     1      46.480   5.398  16.076  0.00  0.00    +0.000 HD
BRANCH  23  26
ATOM     26  C   UNL     1      46.123   5.164  13.510  0.00  0.00    +0.000 A 
ATOM     27  C   UNL     1      46.679   6.423  13.325  0.00  0.00    +0.000 A 
ATOM     28  S   UNL     1      45.748   7.445  12.327  0.00  0.00    +0.000 S 
ATOM     29  C   UNL     1      44.545   6.258  12.148  0.00  0.00    +0.000 A 
ATOM     30  N   UNL     1      43.396   6.526  11.472  0.00  0.00    +0.000 NA
ATOM     31  C   UNL     1      42.543   5.556  11.467  0.00  0.00    +0.000 A 
ATOM     32  N   UNL     1      42.754   4.328  12.039  0.00  0.00    +0.000 N 
ATOM     33  C   UNL     1      43.945   3.977  12.632  0.00  0.00    +0.000 A 
ATOM     34  O   UNL     1      44.179   2.819  12.968  0.00  0.00    +0.000 OA
ATOM     35  C   UNL     1      44.889   5.069  12.770  0.00  0.00    +0.000 A 
ATOM     36  H   UNL     1      42.068   3.595  11.946  0.00  0.00    +0.000 HD
ENDBRANCH  23  26
ENDBRANCH  21  22
ENDBRANCH   1  21
TORSDOF 9
ENDMDL
MODEL 9
REMARK VINA RESULT:    -6.935      3.508      8.569
REMARK INTER + INTRA:         -11.293
REMARK INTER:                  -9.435
REMARK INTRA:                  -1.858
REMARK UNBOUND:                -0.912
REMARK  Name = 
REMARK  9 active torsions:
REMARK  status: ('A' for Active; 'I' for Inactive)
REMARK    1  A    between atoms: N_1  and  C_2
REMARK    2  A    between atoms: C_2  and  C_3
REMARK    3  A    between atoms: C_2  and  C_17
REMARK    4  A    between atoms: C_3  and  N_4
REMARK    5  A    between atoms: C_5  and  C_7
REMARK    6  A    between atoms: C_20  and  C_21
REMARK    7  A    between atoms: C_21  and  O_22
REMARK    8  A    between atoms: O_22  and  C_23
REMARK    9  A    between atoms: C_23  and  C_24
REMARK                            x       y       z     vdW  Elec       q    Type
REMARK                         _______ _______ _______ _____ _____    ______ ____
ROOT
ATOM      1  C   UNL     1      49.286   7.194  12.790  0.00  0.00    +0.000 C 
ENDROOT
BRANCH   1   2
ATOM      2  C   UNL     1      49.382   7.724  14.226  0.00  0.00    +0.000 A 
ATOM      3  C   UNL     1      48.332   8.478  14.777  0.00  0.00    +0.000 A 
ATOM      4  C   UNL     1      48.354   8.889  16.114  0.00  0.00    +0.000 A 
ATOM      5  C   UNL     1      49.408   8.541  16.963  0.00  0.00    +0.000 A 
ATOM      6  C   UNL     1      50.469   7.811  16.423  0.00  0.00    +0.000 A 
ATOM      7  C   UNL     1      50.448   7.397  15.080  0.00  0.00    +0.000 A 
BRANCH   5   8
ATOM      8  C   UNL     1      49.408   8.977  18.411  0.00  0.00    +0.000 C 
BRANCH   8   9
ATOM      9  O   UNL     1      48.789   7.964  19.204  0.00  0.00    +0.000 OA
BRANCH   9  10
ATOM     10  C   UNL     1      49.706   6.983  19.691  0.00  0.00    +0.000 C 
BRANCH  10  11
ATOM     11  C   UNL     1      48.931   5.668  19.873  0.00  0.00    +0.000 C 
ATOM     12  C   UNL     1      49.537   4.516  19.048  0.00  0.00    +0.000 C 
ATOM     13  C   UNL     1      49.162   4.609  17.570  0.00  0.00    +0.000 C 
ATOM     14  C   UNL     1      47.655   4.771  17.396  0.00  0.00    +0.000 C 
ATOM     15  N   UNL     1      47.168   5.948  18.120  0.00  0.00    +0.000 NA
ATOM     16  C   UNL     1      47.438   5.827  19.554  0.00  0.00    +0.000 C 
ATOM     17  H   UNL     1      46.159   6.023  17.978  0.00  0.00    +0.000 HD
ENDBRANCH  10  11
ENDBRANCH   9  10
ENDBRANCH   8   9
ENDBRANCH   5   8
ENDBRANCH   1   2
BRANCH   1  18
ATOM     18  N   UNL     1      50.438   7.570  11.951  0.00  0.00    +0.000 NA
ATOM     19  H   UNL     1      50.108   7.854  11.033  0.00  0.00    +0.000 HD
ATOM     20  H   UNL     1      51.033   6.754  11.824  0.00  0.00    +0.000 HD
ENDBRANCH   1  18
BRANCH   1  21
ATOM     21  C   UNL     1      47.984   7.567  12.021  0.00  0.00    +0.000 C 
BRANCH  21  22
ATOM     22  N   UNL     1      47.129   6.429  11.705  0.00  0.00    +0.000 N 
ATOM     23  C   UNL     1      45.776   6.468  11.930  0.00  0.00    +0.000 C 
ATOM     24  O   UNL     1      45.211   7.491  12.312  0.00  0.00    +0.000 OA
ATOM     25  H   UNL     1      47.589   5.537  11.556  0.00  0.00    +0.000 HD
BRANCH  23  26
ATOM     26  C   UNL     1      45.007   5.244  11.672  0.00  0.00    +0.000 A 
ATOM     27  C   UNL     1      44.234   4.703  12.691  0.00  0.00    +0.000 A 
ATOM     28  S   UNL     1      43.468   3.240  12.269  0.00  0.00    +0.000 S 
ATOM     29  C   UNL     1      44.182   3.253  10.726  0.00  0.00    +0.000 A 
ATOM     30  N   UNL     1      44.010   2.211   9.869  0.00  0.00    +0.000 NA
ATOM     31  C   UNL     1      44.659   2.324   8.758  0.00  0.00    +0.000 A 
ATOM     32  N   UNL     1      45.428   3.404   8.409  0.00  0.00    +0.000 N 
ATOM     33  C   UNL     1      45.536   4.528   9.196  0.00  0.00    +0.000 A 
ATOM     34  O   UNL     1      46.072   5.553   8.784  0.00  0.00    +0.000 OA
ATOM     35  C   UNL     1      44.925   4.400  10.505  0.00  0.00    +0.000 A 
ATOM     36  H   UNL     1      45.859   3.453   7.498  0.00  0.00    +0.000 HD
ENDBRANCH  23  26
ENDBRANCH  21  22
ENDBRANCH   1  21
TORSDOF 9
ENDMDL
