MODEL 1
REMARK VINA RESULT:    -8.046      0.000      0.000
REMARK INTER + INTRA:         -11.778
REMARK INTER:                 -10.869
REMARK INTRA:                  -0.909
REMARK UNBOUND:                -0.909
REMARK  Name = 
REMARK  6 active torsions:
REMARK  status: ('A' for Active; 'I' for Inactive)
REMARK    1  A    between atoms: C_2  and  C_4
REMARK    2  A    between atoms: C_2  and  C_13
REMARK    3  A    between atoms: C_4  and  N_5
REMARK    4  A    between atoms: N_5  and  C_6
REMARK    5  A    between atoms: C_17  and  O_18
REMARK    6  A    between atoms: O_18  and  C_19
REMARK                            x       y       z     vdW  Elec       q    Type
REMARK                         _______ _______ _______ _____ _____    ______ ____
ROOT
ATOM      1  F   UNL     1      42.835   4.853  12.746  0.00  0.00    +0.000 F 
ATOM      2  C   UNL     1      43.907   4.158  12.254  0.00  0.00    +0.000 C 
ATOM      3  F   UNL     1      43.889   2.959  12.907  0.00  0.00    +0.000 F 
ENDROOT
BRANCH   2   4
ATOM      4  C   UNL     1      45.224   4.885  12.474  0.00  0.00    +0.000 A 
ATOM      5  C   UNL     1      45.700   5.825  11.545  0.00  0.00    +0.000 A 
ATOM      6  C   UNL     1      46.888   6.521  11.783  0.00  0.00    +0.000 A 
ATOM      7  C   UNL     1      47.634   6.266  12.934  0.00  0.00    +0.000 A 
ATOM      8  C   UNL     1      47.192   5.309  13.844  0.00  0.00    +0.000 A 
ATOM      9  C   UNL     1      45.990   4.634  13.618  0.00  0.00    +0.000 A 
BRANCH   8  10
ATOM     10  O   UNL     1      47.833   4.977  15.010  0.00  0.00    +0.000 OA
BRANCH  10  11
ATOM     11  C   UNL     1      47.201   4.046  15.915  0.00  0.00    +0.000 C 
ATOM     12  C   UNL     1      47.138   4.407  17.407  0.00  0.00    +0.000 C 
ATOM     13  O   UNL     1      47.875   3.220  17.781  0.00  0.00    +0.000 OA
ATOM     14  C   UNL     1      48.102   2.898  16.391  0.00  0.00    +0.000 C 
ENDBRANCH  10  11
ENDBRANCH   8  10
ENDBRANCH   2   4
BRANCH   2  15
ATOM     15  C   UNL     1      43.663   3.919  10.743  0.00  0.00    +0.000 C 
BRANCH  15  16
ATOM     16  N   UNL     1      44.154   2.614  10.251  0.00  0.00    +0.000 N 
ATOM     17  H   UNL     1      43.411   1.915  10.208  0.00  0.00    +0.000 HD
BRANCH  16  18
ATOM     18  C   UNL     1      44.978   2.606   9.119  0.00  0.00    +0.000 A 
ATOM     19  C   UNL     1      45.312   3.770   8.411  0.00  0.00    +0.000 A 
ATOM     20  C   UNL     1      46.201   3.739   7.333  0.00  0.00    +0.000 A 
ATOM     21  C   UNL     1      46.792   2.539   6.962  0.00  0.00    +0.000 A 
ATOM     22 CL   UNL     1      47.890   2.501   5.639  0.00  0.00    +0.000 Cl
ATOM     23  C   UNL     1      46.510   1.374   7.669  0.00  0.00    +0.000 A 
ATOM     24  C   UNL     1      45.622   1.415   8.752  0.00  0.00    +0.000 A 
ENDBRANCH  16  18
ENDBRANCH  15  16
ENDBRANCH   2  15
TORSDOF 6
ENDMDL
MODEL 2
REMARK VINA RESULT:    -8.011      1.097      1.291
REMARK INTER + INTRA:         -11.730
REMARK INTER:                 -10.928
REMARK INTRA:                  -0.802
REMARK UNBOUND:                -0.909
REMARK  Name = 
REMARK  6 active torsions:
REMARK  status: ('A' for Active; 'I' for Inactive)
REMARK    1  A    between atoms: C_2  and  C_4
REMARK    2  A    between atoms: C_2  and  C_13
REMARK    3  A    between atoms: C_4  and  N_5
REMARK    4  A    between atoms: N_5  and  C_6
REMARK    5  A    between atoms: C_17  and  O_18
REMARK    6  A    between atoms: O_18  and  C_19
REMARK                            x       y       z     vdW  Elec       q    Type
REMARK                         _______ _______ _______ _____ _____    ______ ____
ROOT
ATOM      1  F   UNL     1      42.928   6.627  11.791  0.00  0.00    +0.000 F 
ATOM      2  C   UNL     1      43.503   5.461  12.223  0.00  0.00    +0.000 C 
ATOM      3  F   UNL     1      42.817   5.119  13.352  0.00  0.00    +0.000 F 
ENDROOT
BRANCH   2   4
ATOM      4  C   UNL     1      44.989   5.613  12.505  0.00  0.00    +0.000 A 
ATOM      5  C   UNL     1      45.765   6.570  11.829  0.00  0.00    +0.000 A 
ATOM      6  C   UNL     1      47.119   6.731  12.132  0.00  0.00    +0.000 A 
ATOM      7  C   UNL     1      47.726   5.920  13.091  0.00  0.00    +0.000 A 
ATOM      8  C   UNL     1      46.977   4.942  13.742  0.00  0.00    +0.000 A 
ATOM      9  C   UNL     1      45.617   4.801  13.456  0.00  0.00    +0.000 A 
BRANCH   8  10
ATOM     10  O   UNL     1      47.460   4.092  14.703  0.00  0.00    +0.000 OA
BRANCH  10  11
ATOM     11  C   UNL     1      47.231   4.407  16.094  0.00  0.00    +0.000 C 
ATOM     12  C   UNL     1      48.353   5.102  16.879  0.00  0.00    +0.000 C 
ATOM     13  O   UNL     1      48.425   4.022  17.838  0.00  0.00    +0.000 OA
ATOM     14  C   UNL     1      47.482   3.246  17.067  0.00  0.00    +0.000 C 
ENDBRANCH  10  11
ENDBRANCH   8  10
ENDBRANCH   2   4
BRANCH   2  15
ATOM     15  C   UNL     1      43.263   4.385  11.134  0.00  0.00    +0.000 C 
BRANCH  15  16
ATOM     16  N   UNL     1      43.702   4.788   9.781  0.00  0.00    +0.000 N 
ATOM     17  H   UNL     1      44.003   5.763   9.748  0.00  0.00    +0.000 HD
BRANCH  16  18
ATOM     18  C   UNL     1      44.561   3.928   9.086  0.00  0.00    +0.000 A 
ATOM     19  C   UNL     1      45.534   4.384   8.185  0.00  0.00    +0.000 A 
ATOM     20  C   UNL     1      46.428   3.505   7.568  0.00  0.00    +0.000 A 
ATOM     21  C   UNL     1      46.378   2.150   7.866  0.00  0.00    +0.000 A 
ATOM     22 CL   UNL     1      47.482   1.069   7.111  0.00  0.00    +0.000 Cl
ATOM     23  C   UNL     1      45.449   1.672   8.784  0.00  0.00    +0.000 A 
ATOM     24  C   UNL     1      44.560   2.561   9.402  0.00  0.00    +0.000 A 
ENDBRANCH  16  18
ENDBRANCH  15  16
ENDBRANCH   2  15
TORSDOF 6
ENDMDL
MODEL 3
REMARK VINA RESULT:    -7.361      1.783      2.040
REMARK INTER + INTRA:         -10.852
REMARK INTER:                  -9.962
REMARK INTRA:                  -0.890
REMARK UNBOUND:                -0.909
REMARK  Name = 
REMARK  6 active torsions:
REMARK  status: ('A' for Active; 'I' for Inactive)
REMARK    1  A    between atoms: C_2  and  C_4
REMARK    2  A    between atoms: C_2  and  C_13
REMARK    3  A    between atoms: C_4  and  N_5
REMARK    4  A    between atoms: N_5  and  C_6
REMARK    5  A    between atoms: C_17  and  O_18
REMARK    6  A    between atoms: O_18  and  C_19
REMARK                            x       y       z     vdW  Elec       q    Type
REMARK                         _______ _______ _______ _____ _____    ______ ____
ROOT
ATOM      1  F   UNL     1      44.049   4.118  13.348  0.00  0.00    +0.000 F 
ATOM      2  C   UNL     1      44.926   4.135  12.296  0.00  0.00    +0.000 C 
ATOM      3  F   UNL     1      45.418   2.864  12.217  0.00  0.00    +0.000 F 
ENDROOT
BRANCH   2   4
ATOM      4  C   UNL     1      46.043   5.148  12.485  0.00  0.00    +0.000 A 
ATOM      5  C   UNL     1      46.295   6.142  11.524  0.00  0.00    +0.000 A 
ATOM      6  C   UNL     1      47.294   7.096  11.733  0.00  0.00    +0.000 A 
ATOM      7  C   UNL     1      48.076   7.054  12.888  0.00  0.00    +0.000 A 
ATOM      8  C   UNL     1      47.862   6.052  13.830  0.00  0.00    +0.000 A 
ATOM      9  C   UNL     1      46.844   5.115  13.632  0.00  0.00    +0.000 A 
BRANCH   8  10
ATOM     10  O   UNL     1      48.560   5.911  15.001  0.00  0.00    +0.000 OA
BRANCH  10  11
ATOM     11  C   UNL     1      49.451   6.970  15.416  0.00  0.00    +0.000 C 
ATOM     12  C   UNL     1      50.483   6.668  16.512  0.00  0.00    +0.000 C 
ATOM     13  O   UNL     1      49.952   7.701  17.373  0.00  0.00    +0.000 OA
ATOM     14  C   UNL     1      48.864   7.937  16.453  0.00  0.00    +0.000 C 
ENDBRANCH  10  11
ENDBRANCH   8  10
ENDBRANCH   2   4
BRANCH   2  15
ATOM     15  C   UNL     1      44.117   4.450  11.012  0.00  0.00    +0.000 C 
BRANCH  15  16
ATOM     16  N   UNL     1      43.902   3.280  10.134  0.00  0.00    +0.000 N 
ATOM     17  H   UNL     1      42.934   3.209   9.818  0.00  0.00    +0.000 HD
BRANCH  16  18
ATOM     18  C   UNL     1      44.829   3.047   9.111  0.00  0.00    +0.000 A 
ATOM     19  C   UNL     1      45.362   4.073   8.316  0.00  0.00    +0.000 A 
ATOM     20  C   UNL     1      46.345   3.818   7.357  0.00  0.00    +0.000 A 
ATOM     21  C   UNL     1      46.831   2.528   7.194  0.00  0.00    +0.000 A 
ATOM     22 CL   UNL     1      48.045   2.215   6.018  0.00  0.00    +0.000 Cl
ATOM     23  C   UNL     1      46.349   1.496   7.994  0.00  0.00    +0.000 A 
ATOM     24  C   UNL     1      45.368   1.761   8.957  0.00  0.00    +0.000 A 
ENDBRANCH  16  18
ENDBRANCH  15  16
ENDBRANCH   2  15
TORSDOF 6
ENDMDL
MODEL 4
REMARK VINA RESULT:    -7.003      3.115      4.711
REMARK INTER + INTRA:         -10.368
REMARK INTER:                  -9.532
REMARK INTRA:                  -0.836
REMARK UNBOUND:                -0.909
REMARK  Name = 
REMARK  6 active torsions:
REMARK  status: ('A' for Active; 'I' for Inactive)
REMARK    1  A    between atoms: C_2  and  C_4
REMARK    2  A    between atoms: C_2  and  C_13
REMARK    3  A    between atoms: C_4  and  N_5
REMARK    4  A    between atoms: N_5  and  C_6
REMARK    5  A    between atoms: C_17  and  O_18
REMARK    6  A    between atoms: O_18  and  C_19
REMARK                            x       y       z     vdW  Elec       q    Type
REMARK                         _______ _______ _______ _____ _____    ______ ____
ROOT
ATOM      1  F   UNL     1      43.536   4.704  13.641  0.00  0.00    +0.000 F 
ATOM      2  C   UNL     1      44.307   4.678  12.509  0.00  0.00    +0.000 C 
ATOM      3  F   UNL     1      45.014   3.513  12.582  0.00  0.00    +0.000 F 
ENDROOT
BRANCH   2   4
ATOM      4  C   UNL     1      45.233   5.879  12.406  0.00  0.00    +0.000 A 
ATOM      5  C   UNL     1      46.609   5.720  12.172  0.00  0.00    +0.000 A 
ATOM      6  C   UNL     1      47.440   6.833  12.032  0.00  0.00    +0.000 A 
ATOM      7  C   UNL     1      46.917   8.121  12.153  0.00  0.00    +0.000 A 
ATOM      8  C   UNL     1      45.562   8.292  12.422  0.00  0.00    +0.000 A 
ATOM      9  C   UNL     1      44.727   7.178  12.535  0.00  0.00    +0.000 A 
BRANCH   8  10
ATOM     10  O   UNL     1      44.934   9.503  12.557  0.00  0.00    +0.000 OA
BRANCH  10  11
ATOM     11  C   UNL     1      44.675  10.293  11.375  0.00  0.00    +0.000 C 
ATOM     12  C   UNL     1      43.738  11.504  11.496  0.00  0.00    +0.000 C 
ATOM     13  O   UNL     1      42.827  10.966  10.510  0.00  0.00    +0.000 OA
ATOM     14  C   UNL     1      43.580   9.735  10.455  0.00  0.00    +0.000 C 
ENDBRANCH  10  11
ENDBRANCH   8  10
ENDBRANCH   2   4
BRANCH   2  15
ATOM     15  C   UNL     1      43.353   4.620  11.289  0.00  0.00    +0.000 C 
BRANCH  15  16
ATOM     16  N   UNL     1      43.988   5.000  10.008  0.00  0.00    +0.000 N 
ATOM     17  H   UNL     1      44.441   5.913  10.060  0.00  0.00    +0.000 HD
BRANCH  16  18
ATOM     18  C   UNL     1      44.766   4.040   9.351  0.00  0.00    +0.000 A 
ATOM     19  C   UNL     1      44.570   2.660   9.509  0.00  0.00    +0.000 A 
ATOM     20  C   UNL     1      45.312   1.728   8.778  0.00  0.00    +0.000 A 
ATOM     21  C   UNL     1      46.249   2.167   7.852  0.00  0.00    +0.000 A 
ATOM     22 CL   UNL     1      47.157   1.021   6.948  0.00  0.00    +0.000 Cl
ATOM     23  C   UNL     1      46.440   3.530   7.646  0.00  0.00    +0.000 A 
ATOM     24  C   UNL     1      45.688   4.457   8.380  0.00  0.00    +0.000 A 
ENDBRANCH  16  18
ENDBRANCH  15  16
ENDBRANCH   2  15
TORSDOF 6
ENDMDL
MODEL 5
REMARK VINA RESULT:    -6.909      2.534      3.200
REMARK INTER + INTRA:         -10.241
REMARK INTER:                  -9.438
REMARK INTRA:                  -0.803
REMARK UNBOUND:                -0.909
REMARK  Name = 
REMARK  6 active torsions:
REMARK  status: ('A' for Active; 'I' for Inactive)
REMARK    1  A    between atoms: C_2  and  C_4
REMARK    2  A    between atoms: C_2  and  C_13
REMARK    3  A    between atoms: C_4  and  N_5
REMARK    4  A    between atoms: N_5  and  C_6
REMARK    5  A    between atoms: C_17  and  O_18
REMARK    6  A    between atoms: O_18  and  C_19
REMARK                            x       y       z     vdW  Elec       q    Type
REMARK                         _______ _______ _______ _____ _____    ______ ____
ROOT
ATOM      1  F   UNL     1      42.779   3.959  11.094  0.00  0.00    +0.000 F 
ATOM      2  C   UNL     1      43.944   3.976  11.812  0.00  0.00    +0.000 C 
ATOM      3  F   UNL     1      43.588   3.630  13.084  0.00  0.00    +0.000 F 
ENDROOT
BRANCH   2   4
ATOM      4  C   UNL     1      44.628   5.333  11.782  0.00  0.00    +0.000 A 
ATOM      5  C   UNL     1      43.910   6.504  11.489  0.00  0.00    +0.000 A 
ATOM      6  C   UNL     1      44.541   7.750  11.511  0.00  0.00    +0.000 A 
ATOM      7  C   UNL     1      45.904   7.843  11.796  0.00  0.00    +0.000 A 
ATOM      8  C   UNL     1      46.636   6.686  12.052  0.00  0.00    +0.000 A 
ATOM      9  C   UNL     1      45.996   5.444  12.055  0.00  0.00    +0.000 A 
BRANCH   8  10
ATOM     10  O   UNL     1      47.974   6.651  12.348  0.00  0.00    +0.000 OA
BRANCH  10  11
ATOM     11  C   UNL     1      48.697   7.896  12.463  0.00  0.00    +0.000 C 
ATOM     12  C   UNL     1      50.196   7.903  12.127  0.00  0.00    +0.000 C 
ATOM     13  O   UNL     1      50.547   8.361  13.453  0.00  0.00    +0.000 OA
ATOM     14  C   UNL     1      49.174   8.234  13.883  0.00  0.00    +0.000 C 
ENDBRANCH  10  11
ENDBRANCH   8  10
ENDBRANCH   2   4
BRANCH   2  15
ATOM     15  C   UNL     1      44.875   2.884  11.228  0.00  0.00    +0.000 C 
BRANCH  15  16
ATOM     16  N   UNL     1      44.418   2.330   9.935  0.00  0.00    +0.000 N 
ATOM     17  H   UNL     1      43.481   2.652   9.689  0.00  0.00    +0.000 HD
BRANCH  16  18
ATOM     18  C   UNL     1      45.309   2.362   8.855  0.00  0.00    +0.000 A 
ATOM     19  C   UNL     1      46.008   1.231   8.409  0.00  0.00    +0.000 A 
ATOM     20  C   UNL     1      46.829   1.279   7.279  0.00  0.00    +0.000 A 
ATOM     21  C   UNL     1      46.942   2.461   6.559  0.00  0.00    +0.000 A 
ATOM     22 CL   UNL     1      47.947   2.518   5.165  0.00  0.00    +0.000 Cl
ATOM     23  C   UNL     1      46.230   3.589   6.955  0.00  0.00    +0.000 A 
ATOM     24  C   UNL     1      45.406   3.531   8.086  0.00  0.00    +0.000 A 
ENDBRANCH  16  18
ENDBRANCH  15  16
ENDBRANCH   2  15
TORSDOF 6
ENDMDL
MODEL 6
REMARK VINA RESULT:    -6.786      2.138      2.762
REMARK INTER + INTRA:         -10.075
REMARK INTER:                  -9.340
REMARK INTRA:                  -0.735
REMARK UNBOUND:                -0.909
REMARK  Name = 
REMARK  6 active torsions:
REMARK  status: ('A' for Active; 'I' for Inactive)
REMARK    1  A    between atoms: C_2  and  C_4
REMARK    2  A    between atoms: C_2  and  C_13
REMARK    3  A    between atoms: C_4  and  N_5
REMARK    4  A    between atoms: N_5  and  C_6
REMARK    5  A    between atoms: C_17  and  O_18
REMARK    6  A    between atoms: O_18  and  C_19
REMARK                            x       y       z     vdW  Elec       q    Type
REMARK                         _______ _______ _______ _____ _____    ______ ____
ROOT
ATOM      1  F   UNL     1      42.867   5.908  10.861  0.00  0.00    +0.000 F 
ATOM      2  C   UNL     1      43.840   5.840  11.822  0.00  0.00    +0.000 C 
ATOM      3  F   UNL     1      43.184   5.511  12.974  0.00  0.00    +0.000 F 
ENDROOT
BRANCH   2   4
ATOM      4  C   UNL     1      44.601   7.146  11.975  0.00  0.00    +0.000 A 
ATOM      5  C   UNL     1      44.236   8.291  11.248  0.00  0.00    +0.000 A 
ATOM      6  C   UNL     1      44.914   9.498  11.433  0.00  0.00    +0.000 A 
ATOM      7  C   UNL     1      45.986   9.573  12.324  0.00  0.00    +0.000 A 
ATOM      8  C   UNL     1      46.382   8.436  13.023  0.00  0.00    +0.000 A 
ATOM      9  C   UNL     1      45.685   7.237  12.856  0.00  0.00    +0.000 A 
BRANCH   8  10
ATOM     10  O   UNL     1      47.413   8.387  13.926  0.00  0.00    +0.000 OA
BRANCH  10  11
ATOM     11  C   UNL     1      48.248   7.209  13.970  0.00  0.00    +0.000 C 
ATOM     12  C   UNL     1      48.660   6.657  15.343  0.00  0.00    +0.000 C 
ATOM     13  O   UNL     1      50.066   6.814  15.046  0.00  0.00    +0.000 OA
ATOM     14  C   UNL     1      49.750   7.479  13.803  0.00  0.00    +0.000 C 
ENDBRANCH  10  11
ENDBRANCH   8  10
ENDBRANCH   2   4
BRANCH   2  15
ATOM     15  C   UNL     1      44.804   4.689  11.439  0.00  0.00    +0.000 C 
BRANCH  15  16
ATOM     16  N   UNL     1      44.238   3.725  10.471  0.00  0.00    +0.000 N 
ATOM     17  H   UNL     1      43.272   3.948  10.227  0.00  0.00    +0.000 HD
BRANCH  16  18
ATOM     18  C   UNL     1      45.016   3.377   9.360  0.00  0.00    +0.000 A 
ATOM     19  C   UNL     1      45.625   4.327   8.527  0.00  0.00    +0.000 A 
ATOM     20  C   UNL     1      46.460   3.946   7.474  0.00  0.00    +0.000 A 
ATOM     21  C   UNL     1      46.721   2.601   7.253  0.00  0.00    +0.000 A 
ATOM     22 CL   UNL     1      47.754   2.132   5.960  0.00  0.00    +0.000 Cl
ATOM     23  C   UNL     1      46.162   1.637   8.085  0.00  0.00    +0.000 A 
ATOM     24  C   UNL     1      45.330   2.027   9.142  0.00  0.00    +0.000 A 
ENDBRANCH  16  18
ENDBRANCH  15  16
ENDBRANCH   2  15
TORSDOF 6
ENDMDL
MODEL 7
REMARK VINA RESULT:    -6.580      2.322      3.070
REMARK INTER + INTRA:          -9.797
REMARK INTER:                  -9.177
REMARK INTRA:                  -0.621
REMARK UNBOUND:                -0.909
REMARK  Name = 
REMARK  6 active torsions:
REMARK  status: ('A' for Active; 'I' for Inactive)
REMARK    1  A    between atoms: C_2  and  C_4
REMARK    2  A    between atoms: C_2  and  C_13
REMARK    3  A    between atoms: C_4  and  N_5
REMARK    4  A    between atoms: N_5  and  C_6
REMARK    5  A    between atoms: C_17  and  O_18
REMARK    6  A    between atoms: O_18  and  C_19
REMARK                            x       y       z     vdW  Elec       q    Type
REMARK                         _______ _______ _______ _____ _____    ______ ____
ROOT
ATOM      1  F   UNL     1      45.839   6.398  10.114  0.00  0.00    +0.000 F 
ATOM      2  C   UNL     1      45.087   6.247  11.248  0.00  0.00    +0.000 C 
ATOM      3  F   UNL     1      44.488   7.458  11.446  0.00  0.00    +0.000 F 
ENDROOT
BRANCH   2   4
ATOM      4  C   UNL     1      45.922   5.841  12.452  0.00  0.00    +0.000 A 
ATOM      5  C   UNL     1      45.468   4.867  13.358  0.00  0.00    +0.000 A 
ATOM      6  C   UNL     1      46.266   4.469  14.433  0.00  0.00    +0.000 A 
ATOM      7  C   UNL     1      47.515   5.059  14.638  0.00  0.00    +0.000 A 
ATOM      8  C   UNL     1      47.959   6.052  13.769  0.00  0.00    +0.000 A 
ATOM      9  C   UNL     1      47.171   6.429  12.679  0.00  0.00    +0.000 A 
BRANCH   8  10
ATOM     10  O   UNL     1      49.165   6.697  13.864  0.00  0.00    +0.000 OA
BRANCH  10  11
ATOM     11  C   UNL     1      49.457   7.461  15.055  0.00  0.00    +0.000 C 
ATOM     12  C   UNL     1      50.600   8.486  15.003  0.00  0.00    +0.000 C 
ATOM     13  O   UNL     1      51.315   7.825  16.072  0.00  0.00    +0.000 OA
ATOM     14  C   UNL     1      50.355   6.745  16.074  0.00  0.00    +0.000 C 
ENDBRANCH  10  11
ENDBRANCH   8  10
ENDBRANCH   2   4
BRANCH   2  15
ATOM     15  C   UNL     1      44.000   5.182  10.956  0.00  0.00    +0.000 C 
BRANCH  15  16
ATOM     16  N   UNL     1      43.802   4.901   9.517  0.00  0.00    +0.000 N 
ATOM     17  H   UNL     1      43.804   5.753   8.955  0.00  0.00    +0.000 HD
BRANCH  16  18
ATOM     18  C   UNL     1      44.548   3.865   8.942  0.00  0.00    +0.000 A 
ATOM     19  C   UNL     1      45.540   4.085   7.975  0.00  0.00    +0.000 A 
ATOM     20  C   UNL     1      46.321   3.038   7.479  0.00  0.00    +0.000 A 
ATOM     21  C   UNL     1      46.138   1.751   7.966  0.00  0.00    +0.000 A 
ATOM     22 CL   UNL     1      47.103   0.464   7.361  0.00  0.00    +0.000 Cl
ATOM     23  C   UNL     1      45.188   1.508   8.953  0.00  0.00    +0.000 A 
ATOM     24  C   UNL     1      44.412   2.564   9.448  0.00  0.00    +0.000 A 
ENDBRANCH  16  18
ENDBRANCH  15  16
ENDBRANCH   2  15
TORSDOF 6
ENDMDL
MODEL 8
REMARK VINA RESULT:    -6.042      3.281      4.601
REMARK INTER + INTRA:          -9.071
REMARK INTER:                  -8.331
REMARK INTRA:                  -0.739
REMARK UNBOUND:                -0.909
REMARK  Name = 
REMARK  6 active torsions:
REMARK  status: ('A' for Active; 'I' for Inactive)
REMARK    1  A    between atoms: C_2  and  C_4
REMARK    2  A    between atoms: C_2  and  C_13
REMARK    3  A    between atoms: C_4  and  N_5
REMARK    4  A    between atoms: N_5  and  C_6
REMARK    5  A    between atoms: C_17  and  O_18
REMARK    6  A    between atoms: O_18  and  C_19
REMARK                            x       y       z     vdW  Elec       q    Type
REMARK                         _______ _______ _______ _____ _____    ______ ____
ROOT
ATOM      1  F   UNL     1      44.816   6.936  13.209  0.00  0.00    +0.000 F 
ATOM      2  C   UNL     1      45.720   6.510  12.273  0.00  0.00    +0.000 C 
ATOM      3  F   UNL     1      46.177   5.310  12.734  0.00  0.00    +0.000 F 
ENDROOT
BRANCH   2   4
ATOM      4  C   UNL     1      46.861   7.495  12.074  0.00  0.00    +0.000 A 
ATOM      5  C   UNL     1      46.645   8.882  12.134  0.00  0.00    +0.000 A 
ATOM      6  C   UNL     1      47.710   9.775  11.997  0.00  0.00    +0.000 A 
ATOM      7  C   UNL     1      49.002   9.298  11.768  0.00  0.00    +0.000 A 
ATOM      8  C   UNL     1      49.224   7.927  11.669  0.00  0.00    +0.000 A 
ATOM      9  C   UNL     1      48.161   7.035  11.833  0.00  0.00    +0.000 A 
BRANCH   8  10
ATOM     10  O   UNL     1      50.444   7.341  11.451  0.00  0.00    +0.000 OA
BRANCH  10  11
ATOM     11  C   UNL     1      51.475   8.101  10.784  0.00  0.00    +0.000 C 
ATOM     12  C   UNL     1      52.386   7.374   9.783  0.00  0.00    +0.000 C 
ATOM     13  O   UNL     1      53.574   7.709  10.536  0.00  0.00    +0.000 OA
ATOM     14  C   UNL     1      52.769   8.278  11.592  0.00  0.00    +0.000 C 
ENDBRANCH  10  11
ENDBRANCH   8  10
ENDBRANCH   2   4
BRANCH   2  15
ATOM     15  C   UNL     1      44.955   6.288  10.944  0.00  0.00    +0.000 C 
BRANCH  15  16
ATOM     16  N   UNL     1      44.470   4.904  10.752  0.00  0.00    +0.000 N 
ATOM     17  H   UNL     1      43.452   4.845  10.789  0.00  0.00    +0.000 HD
BRANCH  16  18
ATOM     18  C   UNL     1      45.024   4.153   9.708  0.00  0.00    +0.000 A 
ATOM     19  C   UNL     1      45.777   4.725   8.673  0.00  0.00    +0.000 A 
ATOM     20  C   UNL     1      46.382   3.938   7.689  0.00  0.00    +0.000 A 
ATOM     21  C   UNL     1      46.264   2.556   7.743  0.00  0.00    +0.000 A 
ATOM     22 CL   UNL     1      47.014   1.588   6.537  0.00  0.00    +0.000 Cl
ATOM     23  C   UNL     1      45.555   1.957   8.780  0.00  0.00    +0.000 A 
ATOM     24  C   UNL     1      44.955   2.753   9.764  0.00  0.00    +0.000 A 
ENDBRANCH  16  18
ENDBRANCH  15  16
ENDBRANCH   2  15
TORSDOF 6
ENDMDL
MODEL 9
REMARK VINA RESULT:    -5.795      4.472      7.351
REMARK INTER + INTRA:          -8.736
REMARK INTER:                  -7.965
REMARK INTRA:                  -0.771
REMARK UNBOUND:                -0.909
REMARK  Name = 
REMARK  6 active torsions:
REMARK  status: ('A' for Active; 'I' for Inactive)
REMARK    1  A    between atoms: C_2  and  C_4
REMARK    2  A    between atoms: C_2  and  C_13
REMARK    3  A    between atoms: C_4  and  N_5
REMARK    4  A    between atoms: N_5  and  C_6
REMARK    5  A    between atoms: C_17  and  O_18
REMARK    6  A    between atoms: O_18  and  C_19
REMARK                            x       y       z     vdW  Elec       q    Type
REMARK                         _______ _______ _______ _____ _____    ______ ____
ROOT
ATOM      1  F   UNL     1      47.153   7.174  11.394  0.00  0.00    +0.000 F 
ATOM      2  C   UNL     1      46.290   6.936  12.431  0.00  0.00    +0.000 C 
ATOM      3  F   UNL     1      47.059   6.397  13.422  0.00  0.00    +0.000 F 
ENDROOT
BRANCH   2   4
ATOM      4  C   UNL     1      45.157   6.000  12.042  0.00  0.00    +0.000 A 
ATOM      5  C   UNL     1      44.076   5.767  12.909  0.00  0.00    +0.000 A 
ATOM      6  C   UNL     1      43.017   4.942  12.520  0.00  0.00    +0.000 A 
ATOM      7  C   UNL     1      43.037   4.314  11.274  0.00  0.00    +0.000 A 
ATOM      8  C   UNL     1      44.121   4.507  10.421  0.00  0.00    +0.000 A 
ATOM      9  C   UNL     1      45.165   5.353  10.801  0.00  0.00    +0.000 A 
BRANCH   8  10
ATOM     10  O   UNL     1      44.250   3.949   9.175  0.00  0.00    +0.000 OA
BRANCH  10  11
ATOM     11  C   UNL     1      45.553   3.504   8.740  0.00  0.00    +0.000 C 
ATOM     12  C   UNL     1      45.842   3.456   7.232  0.00  0.00    +0.000 C 
ATOM     13  O   UNL     1      46.122   2.038   7.276  0.00  0.00    +0.000 OA
ATOM     14  C   UNL     1      45.720   1.980   8.662  0.00  0.00    +0.000 C 
ENDBRANCH  10  11
ENDBRANCH   8  10
ENDBRANCH   2   4
BRANCH   2  15
ATOM     15  C   UNL     1      45.731   8.301  12.904  0.00  0.00    +0.000 C 
BRANCH  15  16
ATOM     16  N   UNL     1      46.726   9.157  13.586  0.00  0.00    +0.000 N 
ATOM     17  H   UNL     1      47.071   8.733  14.447  0.00  0.00    +0.000 HD
BRANCH  16  18
ATOM     18  C   UNL     1      47.744   9.726  12.811  0.00  0.00    +0.000 A 
ATOM     19  C   UNL     1      49.094   9.371  12.943  0.00  0.00    +0.000 A 
ATOM     20  C   UNL     1      50.074   9.900  12.100  0.00  0.00    +0.000 A 
ATOM     21  C   UNL     1      49.712  10.778  11.088  0.00  0.00    +0.000 A 
ATOM     22 CL   UNL     1      50.918  11.424  10.046  0.00  0.00    +0.000 Cl
ATOM     23  C   UNL     1      48.376  11.120  10.907  0.00  0.00    +0.000 A 
ATOM     24  C   UNL     1      47.398  10.581  11.754  0.00  0.00    +0.000 A 
ENDBRANCH  16  18
ENDBRANCH  15  16
ENDBRANCH   2  15
TORSDOF 6
ENDMDL
