MODEL 1
REMARK VINA RESULT:    -7.741      0.000      0.000
REMARK INTER + INTRA:          -9.875
REMARK INTER:                  -9.325
REMARK INTRA:                  -0.550
REMARK UNBOUND:                -0.550
REMARK  Name = 
REMARK  6 active torsions:
REMARK  status: ('A' for Active; 'I' for Inactive)
REMARK    1  A    between atoms: C_1  and  C_2
REMARK    2  A    between atoms: C_2  and  C_3
REMARK    3  A    between atoms: C_2  and  N_4
REMARK    4  A    between atoms: C_2  and  C_5
REMARK    5  A    between atoms: C_8  and  C_9
REMARK    6  A    between atoms: C_9  and  N_10
REMARK                            x       y       z     vdW  Elec       q    Type
REMARK                         _______ _______ _______ _____ _____    ______ ____
ROOT
ATOM      1  C   UNL     1      46.464   2.996   7.605  0.00  0.00    +0.000 A 
ATOM      2  C   UNL     1      45.616   2.393   8.542  0.00  0.00    +0.000 A 
ATOM      3  C   UNL     1      44.956   3.159   9.504  0.00  0.00    +0.000 A 
ATOM      4  C   UNL     1      45.163   4.535   9.535  0.00  0.00    +0.000 A 
ATOM      5  N   UNL     1      45.965   5.157   8.638  0.00  0.00    +0.000 NA
ATOM      6  C   UNL     1      46.579   4.384   7.705  0.00  0.00    +0.000 A 
ENDROOT
BRANCH   1   8
ATOM      7  C   UNL     1      46.700   2.538   5.135  0.00  0.00    +0.000 C 
ATOM      8  C   UNL     1      47.233   2.210   6.543  0.00  0.00    +0.000 C 
ATOM      9  C   UNL     1      47.117   0.696   6.799  0.00  0.00    +0.000 C 
BRANCH   8  10
ATOM     10  N   UNL     1      48.671   2.543   6.536  0.00  0.00    +0.000 NA
ATOM     11  H   UNL     1      48.802   3.502   6.858  0.00  0.00    +0.000 HD
ATOM     12  H   UNL     1      49.010   2.528   5.575  0.00  0.00    +0.000 HD
ENDBRANCH   8  10
ENDBRANCH   1   8
BRANCH   4  13
ATOM     13  C   UNL     1      44.568   5.371  10.638  0.00  0.00    +0.000 C 
BRANCH  13  14
ATOM     14  N   UNL     1      45.304   5.269  11.893  0.00  0.00    +0.000 N 
ATOM     15  C   UNL     1      45.014   4.365  12.894  0.00  0.00    +0.000 A 
ATOM     16  C   UNL     1      46.026   4.425  13.830  0.00  0.00    +0.000 A 
ATOM     17  C   UNL     1      46.959   5.385  13.381  0.00  0.00    +0.000 A 
ATOM     18  N   UNL     1      48.131   5.777  13.938  0.00  0.00    +0.000 NA
ATOM     19  N   UNL     1      48.846   6.695  13.313  0.00  0.00    +0.000 NA
ATOM     20  C   UNL     1      48.405   7.236  12.153  0.00  0.00    +0.000 A 
ATOM     21  C   UNL     1      47.220   6.894  11.520  0.00  0.00    +0.000 A 
ATOM     22  C   UNL     1      46.489   5.914  12.182  0.00  0.00    +0.000 A 
ENDBRANCH  13  14
ENDBRANCH   4  13
TORSDOF 4
ENDMDL
MODEL 2
REMARK VINA RESULT:    -7.593      0.955      1.752
REMARK INTER + INTRA:          -9.697
REMARK INTER:                  -9.127
REMARK INTRA:                  -0.570
REMARK UNBOUND:                -0.550
REMARK  Name = 
REMARK  6 active torsions:
REMARK  status: ('A' for Active; 'I' for Inactive)
REMARK    1  A    between atoms: C_1  and  C_2
REMARK    2  A    between atoms: C_2  and  C_3
REMARK    3  A    between atoms: C_2  and  N_4
REMARK    4  A    between atoms: C_2  and  C_5
REMARK    5  A    between atoms: C_8  and  C_9
REMARK    6  A    between atoms: C_9  and  N_10
REMARK                            x       y       z     vdW  Elec       q    Type
REMARK                         _______ _______ _______ _____ _____    ______ ____
ROOT
ATOM      1  C   UNL     1      46.383   2.858   7.637  0.00  0.00    +0.000 A 
ATOM      2  C   UNL     1      45.594   2.169   8.566  0.00  0.00    +0.000 A 
ATOM      3  C   UNL     1      44.866   2.860   9.536  0.00  0.00    +0.000 A 
ATOM      4  C   UNL     1      44.945   4.248   9.583  0.00  0.00    +0.000 A 
ATOM      5  N   UNL     1      45.687   4.952   8.694  0.00  0.00    +0.000 NA
ATOM      6  C   UNL     1      46.370   4.250   7.754  0.00  0.00    +0.000 A 
ENDROOT
BRANCH   1   8
ATOM      7  C   UNL     1      46.726   2.536   5.159  0.00  0.00    +0.000 C 
ATOM      8  C   UNL     1      47.222   2.159   6.569  0.00  0.00    +0.000 C 
ATOM      9  C   UNL     1      47.160   0.630   6.745  0.00  0.00    +0.000 C 
BRANCH   8  10
ATOM     10  N   UNL     1      48.644   2.549   6.632  0.00  0.00    +0.000 NA
ATOM     11  H   UNL     1      49.229   1.746   6.400  0.00  0.00    +0.000 HD
ATOM     12  H   UNL     1      48.880   2.790   7.594  0.00  0.00    +0.000 HD
ENDBRANCH   8  10
ENDBRANCH   1   8
BRANCH   4  13
ATOM     13  C   UNL     1      44.276   5.014  10.695  0.00  0.00    +0.000 C 
BRANCH  13  14
ATOM     14  N   UNL     1      45.221   5.706  11.563  0.00  0.00    +0.000 N 
ATOM     15  C   UNL     1      45.349   7.077  11.638  0.00  0.00    +0.000 A 
ATOM     16  C   UNL     1      46.188   7.372  12.692  0.00  0.00    +0.000 A 
ATOM     17  C   UNL     1      46.574   6.146  13.279  0.00  0.00    +0.000 A 
ATOM     18  N   UNL     1      47.363   5.913  14.356  0.00  0.00    +0.000 NA
ATOM     19  N   UNL     1      47.568   4.662  14.725  0.00  0.00    +0.000 NA
ATOM     20  C   UNL     1      47.011   3.642  14.031  0.00  0.00    +0.000 A 
ATOM     21  C   UNL     1      46.197   3.793  12.920  0.00  0.00    +0.000 A 
ATOM     22  C   UNL     1      45.977   5.116  12.555  0.00  0.00    +0.000 A 
ENDBRANCH  13  14
ENDBRANCH   4  13
TORSDOF 4
ENDMDL
MODEL 3
REMARK VINA RESULT:    -7.151      1.718      2.072
REMARK INTER + INTRA:          -9.165
REMARK INTER:                  -8.617
REMARK INTRA:                  -0.548
REMARK UNBOUND:                -0.550
REMARK  Name = 
REMARK  6 active torsions:
REMARK  status: ('A' for Active; 'I' for Inactive)
REMARK    1  A    between atoms: C_1  and  C_2
REMARK    2  A    between atoms: C_2  and  C_3
REMARK    3  A    between atoms: C_2  and  N_4
REMARK    4  A    between atoms: C_2  and  C_5
REMARK    5  A    between atoms: C_8  and  C_9
REMARK    6  A    between atoms: C_9  and  N_10
REMARK                            x       y       z     vdW  Elec       q    Type
REMARK                         _______ _______ _______ _____ _____    ______ ____
ROOT
ATOM      1  C   UNL     1      46.430   2.859   7.659  0.00  0.00    +0.000 A 
ATOM      2  C   UNL     1      46.395   4.252   7.792  0.00  0.00    +0.000 A 
ATOM      3  C   UNL     1      45.637   4.853   8.799  0.00  0.00    +0.000 A 
ATOM      4  C   UNL     1      44.898   4.051   9.663  0.00  0.00    +0.000 A 
ATOM      5  N   UNL     1      44.917   2.698   9.575  0.00  0.00    +0.000 NA
ATOM      6  C   UNL     1      45.677   2.146   8.594  0.00  0.00    +0.000 A 
ENDROOT
BRANCH   1   8
ATOM      7  C   UNL     1      46.691   2.535   5.170  0.00  0.00    +0.000 C 
ATOM      8  C   UNL     1      47.220   2.142   6.564  0.00  0.00    +0.000 C 
ATOM      9  C   UNL     1      47.127   0.615   6.739  0.00  0.00    +0.000 C 
BRANCH   8  10
ATOM     10  N   UNL     1      48.652   2.498   6.585  0.00  0.00    +0.000 NA
ATOM     11  H   UNL     1      48.989   2.504   7.547  0.00  0.00    +0.000 HD
ATOM     12  H   UNL     1      48.762   3.455   6.251  0.00  0.00    +0.000 HD
ENDBRANCH   8  10
ENDBRANCH   1   8
BRANCH   4  13
ATOM     13  C   UNL     1      43.971   4.671  10.676  0.00  0.00    +0.000 C 
BRANCH  13  14
ATOM     14  N   UNL     1      44.676   5.339  11.764  0.00  0.00    +0.000 N 
ATOM     15  C   UNL     1      45.429   4.688  12.719  0.00  0.00    +0.000 A 
ATOM     16  C   UNL     1      46.099   5.640  13.458  0.00  0.00    +0.000 A 
ATOM     17  C   UNL     1      45.750   6.904  12.932  0.00  0.00    +0.000 A 
ATOM     18  N   UNL     1      46.170   8.139  13.300  0.00  0.00    +0.000 NA
ATOM     19  N   UNL     1      45.704   9.182  12.638  0.00  0.00    +0.000 NA
ATOM     20  C   UNL     1      44.819   9.015  11.627  0.00  0.00    +0.000 A 
ATOM     21  C   UNL     1      44.337   7.791  11.192  0.00  0.00    +0.000 A 
ATOM     22  C   UNL     1      44.851   6.702  11.888  0.00  0.00    +0.000 A 
ENDBRANCH  13  14
ENDBRANCH   4  13
TORSDOF 4
ENDMDL
MODEL 4
REMARK VINA RESULT:    -6.259      1.390      6.412
REMARK INTER + INTRA:          -8.090
REMARK INTER:                  -7.535
REMARK INTRA:                  -0.554
REMARK UNBOUND:                -0.550
REMARK  Name = 
REMARK  6 active torsions:
REMARK  status: ('A' for Active; 'I' for Inactive)
REMARK    1  A    between atoms: C_1  and  C_2
REMARK    2  A    between atoms: C_2  and  C_3
REMARK    3  A    between atoms: C_2  and  N_4
REMARK    4  A    between atoms: C_2  and  C_5
REMARK    5  A    between atoms: C_8  and  C_9
REMARK    6  A    between atoms: C_9  and  N_10
REMARK                            x       y       z     vdW  Elec       q    Type
REMARK                         _______ _______ _______ _____ _____    ______ ____
ROOT
ATOM      1  C   UNL     1      46.701   6.016  12.408  0.00  0.00    +0.000 A 
ATOM      2  C   UNL     1      46.689   6.632  11.151  0.00  0.00    +0.000 A 
ATOM      3  C   UNL     1      45.954   6.087  10.097  0.00  0.00    +0.000 A 
ATOM      4  C   UNL     1      45.244   4.908  10.302  0.00  0.00    +0.000 A 
ATOM      5  N   UNL     1      45.221   4.289  11.507  0.00  0.00    +0.000 NA
ATOM      6  C   UNL     1      45.933   4.855  12.516  0.00  0.00    +0.000 A 
ENDROOT
BRANCH   1   8
ATOM      7  C   UNL     1      48.960   6.835  13.177  0.00  0.00    +0.000 C 
ATOM      8  C   UNL     1      47.504   6.549  13.594  0.00  0.00    +0.000 C 
ATOM      9  C   UNL     1      47.489   5.540  14.757  0.00  0.00    +0.000 C 
BRANCH   8  10
ATOM     10  N   UNL     1      46.959   7.819  14.111  0.00  0.00    +0.000 NA
ATOM     11  H   UNL     1      47.654   8.275  14.703  0.00  0.00    +0.000 HD
ATOM     12  H   UNL     1      46.169   7.617  14.724  0.00  0.00    +0.000 HD
ENDBRANCH   8  10
ENDBRANCH   1   8
BRANCH   4  13
ATOM     13  C   UNL     1      44.548   4.226   9.153  0.00  0.00    +0.000 C 
BRANCH  13  14
ATOM     14  N   UNL     1      45.144   2.942   8.804  0.00  0.00    +0.000 N 
ATOM     15  C   UNL     1      44.612   1.717   9.149  0.00  0.00    +0.000 A 
ATOM     16  C   UNL     1      45.326   0.739   8.490  0.00  0.00    +0.000 A 
ATOM     17  C   UNL     1      46.315   1.387   7.717  0.00  0.00    +0.000 A 
ATOM     18  N   UNL     1      47.239   0.861   6.878  0.00  0.00    +0.000 NA
ATOM     19  N   UNL     1      48.057   1.685   6.248  0.00  0.00    +0.000 NA
ATOM     20  C   UNL     1      47.975   3.021   6.453  0.00  0.00    +0.000 A 
ATOM     21  C   UNL     1      47.064   3.639   7.294  0.00  0.00    +0.000 A 
ATOM     22  C   UNL     1      46.200   2.758   7.935  0.00  0.00    +0.000 A 
ENDBRANCH  13  14
ENDBRANCH   4  13
TORSDOF 4
ENDMDL
MODEL 5
REMARK VINA RESULT:    -6.159      2.115      6.618
REMARK INTER + INTRA:          -7.970
REMARK INTER:                  -7.563
REMARK INTRA:                  -0.407
REMARK UNBOUND:                -0.550
REMARK  Name = 
REMARK  6 active torsions:
REMARK  status: ('A' for Active; 'I' for Inactive)
REMARK    1  A    between atoms: C_1  and  C_2
REMARK    2  A    between atoms: C_2  and  C_3
REMARK    3  A    between atoms: C_2  and  N_4
REMARK    4  A    between atoms: C_2  and  C_5
REMARK    5  A    between atoms: C_8  and  C_9
REMARK    6  A    between atoms: C_9  and  N_10
REMARK                            x       y       z     vdW  Elec       q    Type
REMARK                         _______ _______ _______ _____ _____    ______ ____
ROOT
ATOM      1  C   UNL     1      47.567   7.708  13.516  0.00  0.00    +0.000 A 
ATOM      2  C   UNL     1      46.645   8.635  13.016  0.00  0.00    +0.000 A 
ATOM      3  C   UNL     1      45.461   8.208  12.412  0.00  0.00    +0.000 A 
ATOM      4  C   UNL     1      45.211   6.844  12.295  0.00  0.00    +0.000 A 
ATOM      5  N   UNL     1      46.073   5.916  12.778  0.00  0.00    +0.000 NA
ATOM      6  C   UNL     1      47.208   6.366  13.374  0.00  0.00    +0.000 A 
ENDROOT
BRANCH   1   8
ATOM      7  C   UNL     1      48.684   8.444  15.656  0.00  0.00    +0.000 C 
ATOM      8  C   UNL     1      48.891   8.111  14.165  0.00  0.00    +0.000 C 
ATOM      9  C   UNL     1      49.500   9.328  13.444  0.00  0.00    +0.000 C 
BRANCH   8  10
ATOM     10  N   UNL     1      49.891   7.026  14.112  0.00  0.00    +0.000 NA
ATOM     11  H   UNL     1      50.047   6.752  13.143  0.00  0.00    +0.000 HD
ATOM     12  H   UNL     1      49.509   6.200  14.572  0.00  0.00    +0.000 HD
ENDBRANCH   8  10
ENDBRANCH   1   8
BRANCH   4  13
ATOM     13  C   UNL     1      44.008   6.351  11.536  0.00  0.00    +0.000 C 
BRANCH  13  14
ATOM     14  N   UNL     1      44.040   4.915  11.282  0.00  0.00    +0.000 N 
ATOM     15  C   UNL     1      43.336   3.980  12.012  0.00  0.00    +0.000 A 
ATOM     16  C   UNL     1      43.451   2.763  11.373  0.00  0.00    +0.000 A 
ATOM     17  C   UNL     1      44.239   2.967  10.218  0.00  0.00    +0.000 A 
ATOM     18  N   UNL     1      44.607   2.086   9.256  0.00  0.00    +0.000 NA
ATOM     19  N   UNL     1      45.345   2.525   8.253  0.00  0.00    +0.000 NA
ATOM     20  C   UNL     1      45.733   3.821   8.202  0.00  0.00    +0.000 A 
ATOM     21  C   UNL     1      45.405   4.783   9.144  0.00  0.00    +0.000 A 
ATOM     22  C   UNL     1      44.612   4.308  10.183  0.00  0.00    +0.000 A 
ENDBRANCH  13  14
ENDBRANCH   4  13
TORSDOF 4
ENDMDL
MODEL 6
REMARK VINA RESULT:    -5.832      4.226      8.496
REMARK INTER + INTRA:          -7.576
REMARK INTER:                  -7.414
REMARK INTRA:                  -0.161
REMARK UNBOUND:                -0.550
REMARK  Name = 
REMARK  6 active torsions:
REMARK  status: ('A' for Active; 'I' for Inactive)
REMARK    1  A    between atoms: C_1  and  C_2
REMARK    2  A    between atoms: C_2  and  C_3
REMARK    3  A    between atoms: C_2  and  N_4
REMARK    4  A    between atoms: C_2  and  C_5
REMARK    5  A    between atoms: C_8  and  C_9
REMARK    6  A    between atoms: C_9  and  N_10
REMARK                            x       y       z     vdW  Elec       q    Type
REMARK                         _______ _______ _______ _____ _____    ______ ____
ROOT
ATOM      1  C   UNL     1      48.105   4.794  18.052  0.00  0.00    +0.000 A 
ATOM      2  C   UNL     1      48.619   5.662  17.082  0.00  0.00    +0.000 A 
ATOM      3  C   UNL     1      48.239   5.543  15.744  0.00  0.00    +0.000 A 
ATOM      4  C   UNL     1      47.352   4.535  15.378  0.00  0.00    +0.000 A 
ATOM      5  N   UNL     1      46.822   3.683  16.289  0.00  0.00    +0.000 NA
ATOM      6  C   UNL     1      47.201   3.838  17.584  0.00  0.00    +0.000 A 
ENDROOT
BRANCH   1   8
ATOM      7  C   UNL     1      47.624   5.879  20.279  0.00  0.00    +0.000 C 
ATOM      8  C   UNL     1      48.500   4.857  19.527  0.00  0.00    +0.000 C 
ATOM      9  C   UNL     1      49.984   5.243  19.675  0.00  0.00    +0.000 C 
BRANCH   8  10
ATOM     10  N   UNL     1      48.316   3.562  20.211  0.00  0.00    +0.000 NA
ATOM     11  H   UNL     1      47.653   3.672  20.978  0.00  0.00    +0.000 HD
ATOM     12  H   UNL     1      49.196   3.288  20.647  0.00  0.00    +0.000 HD
ENDBRANCH   8  10
ENDBRANCH   1   8
BRANCH   4  13
ATOM     13  C   UNL     1      47.022   4.299  13.927  0.00  0.00    +0.000 C 
BRANCH  13  14
ATOM     14  N   UNL     1      46.124   5.305  13.373  0.00  0.00    +0.000 N 
ATOM     15  C   UNL     1      46.415   6.651  13.298  0.00  0.00    +0.000 A 
ATOM     16  C   UNL     1      45.431   7.260  12.547  0.00  0.00    +0.000 A 
ATOM     17  C   UNL     1      44.523   6.255  12.148  0.00  0.00    +0.000 A 
ATOM     18  N   UNL     1      43.412   6.349  11.377  0.00  0.00    +0.000 NA
ATOM     19  N   UNL     1      42.725   5.250  11.129  0.00  0.00    +0.000 NA
ATOM     20  C   UNL     1      43.118   4.063  11.648  0.00  0.00    +0.000 A 
ATOM     21  C   UNL     1      44.236   3.880  12.447  0.00  0.00    +0.000 A 
ATOM     22  C   UNL     1      44.958   5.045  12.683  0.00  0.00    +0.000 A 
ENDBRANCH  13  14
ENDBRANCH   4  13
TORSDOF 4
ENDMDL
MODEL 7
REMARK VINA RESULT:    -5.538      4.174      6.251
REMARK INTER + INTRA:          -7.221
REMARK INTER:                  -6.692
REMARK INTRA:                  -0.529
REMARK UNBOUND:                -0.550
REMARK  Name = 
REMARK  6 active torsions:
REMARK  status: ('A' for Active; 'I' for Inactive)
REMARK    1  A    between atoms: C_1  and  C_2
REMARK    2  A    between atoms: C_2  and  C_3
REMARK    3  A    between atoms: C_2  and  N_4
REMARK    4  A    between atoms: C_2  and  C_5
REMARK    5  A    between atoms: C_8  and  C_9
REMARK    6  A    between atoms: C_9  and  N_10
REMARK                            x       y       z     vdW  Elec       q    Type
REMARK                         _______ _______ _______ _____ _____    ______ ____
ROOT
ATOM      1  C   UNL     1      45.124   5.492  12.797  0.00  0.00    +0.000 A 
ATOM      2  C   UNL     1      45.456   6.835  12.584  0.00  0.00    +0.000 A 
ATOM      3  C   UNL     1      46.712   7.326  12.947  0.00  0.00    +0.000 A 
ATOM      4  C   UNL     1      47.631   6.466  13.541  0.00  0.00    +0.000 A 
ATOM      5  N   UNL     1      47.352   5.157  13.752  0.00  0.00    +0.000 NA
ATOM      6  C   UNL     1      46.127   4.709  13.372  0.00  0.00    +0.000 A 
ENDROOT
BRANCH   1   8
ATOM      7  C   UNL     1      43.791   3.364  12.553  0.00  0.00    +0.000 C 
ATOM      8  C   UNL     1      43.759   4.901  12.445  0.00  0.00    +0.000 C 
ATOM      9  C   UNL     1      43.343   5.309  11.019  0.00  0.00    +0.000 C 
BRANCH   8  10
ATOM     10  N   UNL     1      42.698   5.365  13.359  0.00  0.00    +0.000 NA
ATOM     11  H   UNL     1      41.863   5.601  12.823  0.00  0.00    +0.000 HD
ATOM     12  H   UNL     1      42.995   6.236  13.798  0.00  0.00    +0.000 HD
ENDBRANCH   8  10
ENDBRANCH   1   8
BRANCH   4  13
ATOM     13  C   UNL     1      48.943   6.992  14.061  0.00  0.00    +0.000 C 
BRANCH  13  14
ATOM     14  N   UNL     1      48.840   7.571  15.395  0.00  0.00    +0.000 N 
ATOM     15  C   UNL     1      48.473   8.876  15.651  0.00  0.00    +0.000 A 
ATOM     16  C   UNL     1      48.294   9.011  17.012  0.00  0.00    +0.000 A 
ATOM     17  C   UNL     1      48.551   7.752  17.597  0.00  0.00    +0.000 A 
ATOM     18  N   UNL     1      48.479   7.372  18.896  0.00  0.00    +0.000 NA
ATOM     19  N   UNL     1      48.758   6.117  19.199  0.00  0.00    +0.000 NA
ATOM     20  C   UNL     1      49.119   5.242  18.231  0.00  0.00    +0.000 A 
ATOM     21  C   UNL     1      49.219   5.549  16.884  0.00  0.00    +0.000 A 
ATOM     22  C   UNL     1      48.906   6.869  16.580  0.00  0.00    +0.000 A 
ENDBRANCH  13  14
ENDBRANCH   4  13
TORSDOF 4
ENDMDL
MODEL 8
REMARK VINA RESULT:    -4.868      3.184      5.413
REMARK INTER + INTRA:          -6.414
REMARK INTER:                  -5.879
REMARK INTRA:                  -0.536
REMARK UNBOUND:                -0.550
REMARK  Name = 
REMARK  6 active torsions:
REMARK  status: ('A' for Active; 'I' for Inactive)
REMARK    1  A    between atoms: C_1  and  C_2
REMARK    2  A    between atoms: C_2  and  C_3
REMARK    3  A    between atoms: C_2  and  N_4
REMARK    4  A    between atoms: C_2  and  C_5
REMARK    5  A    between atoms: C_8  and  C_9
REMARK    6  A    between atoms: C_9  and  N_10
REMARK                            x       y       z     vdW  Elec       q    Type
REMARK                         _______ _______ _______ _____ _____    ______ ____
ROOT
ATOM      1  C   UNL     1      45.256   4.975  12.233  0.00  0.00    +0.000 A 
ATOM      2  C   UNL     1      46.430   4.776  12.969  0.00  0.00    +0.000 A 
ATOM      3  C   UNL     1      47.154   5.862  13.464  0.00  0.00    +0.000 A 
ATOM      4  C   UNL     1      46.706   7.153  13.203  0.00  0.00    +0.000 A 
ATOM      5  N   UNL     1      45.568   7.387  12.505  0.00  0.00    +0.000 NA
ATOM      6  C   UNL     1      44.879   6.308  12.051  0.00  0.00    +0.000 A 
ENDROOT
BRANCH   1   8
ATOM      7  C   UNL     1      44.970   3.439  10.252  0.00  0.00    +0.000 C 
ATOM      8  C   UNL     1      44.434   3.830  11.643  0.00  0.00    +0.000 C 
ATOM      9  C   UNL     1      42.950   4.230  11.531  0.00  0.00    +0.000 C 
BRANCH   8  10
ATOM     10  N   UNL     1      44.496   2.613  12.475  0.00  0.00    +0.000 NA
ATOM     11  H   UNL     1      44.877   2.844  13.393  0.00  0.00    +0.000 HD
ATOM     12  H   UNL     1      45.161   1.960  12.060  0.00  0.00    +0.000 HD
ENDBRANCH   8  10
ENDBRANCH   1   8
BRANCH   4  13
ATOM     13  C   UNL     1      47.532   8.345  13.611  0.00  0.00    +0.000 C 
BRANCH  13  14
ATOM     14  N   UNL     1      48.843   8.378  12.975  0.00  0.00    +0.000 N 
ATOM     15  C   UNL     1      49.067   8.779  11.674  0.00  0.00    +0.000 A 
ATOM     16  C   UNL     1      50.430   8.868  11.483  0.00  0.00    +0.000 A 
ATOM     17  C   UNL     1      51.051   8.520  12.703  0.00  0.00    +0.000 A 
ATOM     18  N   UNL     1      52.367   8.485  13.025  0.00  0.00    +0.000 NA
ATOM     19  N   UNL     1      52.703   8.136  14.253  0.00  0.00    +0.000 NA
ATOM     20  C   UNL     1      51.752   7.808  15.158  0.00  0.00    +0.000 A 
ATOM     21  C   UNL     1      50.388   7.814  14.910  0.00  0.00    +0.000 A 
ATOM     22  C   UNL     1      50.050   8.201  13.618  0.00  0.00    +0.000 A 
ENDBRANCH  13  14
ENDBRANCH   4  13
TORSDOF 4
ENDMDL
MODEL 9
REMARK VINA RESULT:    -4.846      3.310      5.617
REMARK INTER + INTRA:          -6.387
REMARK INTER:                  -5.833
REMARK INTRA:                  -0.554
REMARK UNBOUND:                -0.550
REMARK  Name = 
REMARK  6 active torsions:
REMARK  status: ('A' for Active; 'I' for Inactive)
REMARK    1  A    between atoms: C_1  and  C_2
REMARK    2  A    between atoms: C_2  and  C_3
REMARK    3  A    between atoms: C_2  and  N_4
REMARK    4  A    between atoms: C_2  and  C_5
REMARK    5  A    between atoms: C_8  and  C_9
REMARK    6  A    between atoms: C_9  and  N_10
REMARK                            x       y       z     vdW  Elec       q    Type
REMARK                         _______ _______ _______ _____ _____    ______ ____
ROOT
ATOM      1  C   UNL     1      45.328   5.253  12.334  0.00  0.00    +0.000 A 
ATOM      2  C   UNL     1      46.590   5.137  12.928  0.00  0.00    +0.000 A 
ATOM      3  C   UNL     1      47.246   6.260  13.435  0.00  0.00    +0.000 A 
ATOM      4  C   UNL     1      46.639   7.507  13.327  0.00  0.00    +0.000 A 
ATOM      5  N   UNL     1      45.413   7.659  12.769  0.00  0.00    +0.000 NA
ATOM      6  C   UNL     1      44.795   6.544  12.302  0.00  0.00    +0.000 A 
ENDROOT
BRANCH   1   8
ATOM      7  C   UNL     1      44.922   3.891  10.249  0.00  0.00    +0.000 C 
ATOM      8  C   UNL     1      44.570   4.067  11.739  0.00  0.00    +0.000 C 
ATOM      9  C   UNL     1      43.050   4.264  11.890  0.00  0.00    +0.000 C 
BRANCH   8  10
ATOM     10  N   UNL     1      44.913   2.795  12.405  0.00  0.00    +0.000 NA
ATOM     11  H   UNL     1      45.403   2.988  13.278  0.00  0.00    +0.000 HD
ATOM     12  H   UNL     1      45.579   2.286  11.824  0.00  0.00    +0.000 HD
ENDBRANCH   8  10
ENDBRANCH   1   8
BRANCH   4  13
ATOM     13  C   UNL     1      47.375   8.753  13.746  0.00  0.00    +0.000 C 
BRANCH  13  14
ATOM     14  N   UNL     1      48.000   9.452  12.628  0.00  0.00    +0.000 N 
ATOM     15  C   UNL     1      47.454  10.548  11.992  0.00  0.00    +0.000 A 
ATOM     16  C   UNL     1      48.401  11.056  11.128  0.00  0.00    +0.000 A 
ATOM     17  C   UNL     1      49.556  10.252  11.248  0.00  0.00    +0.000 A 
ATOM     18  N   UNL     1      50.757  10.365  10.630  0.00  0.00    +0.000 NA
ATOM     19  N   UNL     1      51.699   9.487  10.923  0.00  0.00    +0.000 NA
ATOM     20  C   UNL     1      51.458   8.493  11.809  0.00  0.00    +0.000 A 
ATOM     21  C   UNL     1      50.261   8.304  12.481  0.00  0.00    +0.000 A 
ATOM     22  C   UNL     1      49.286   9.247  12.175  0.00  0.00    +0.000 A 
ENDBRANCH  13  14
ENDBRANCH   4  13
TORSDOF 4
ENDMDL
