MODEL 1
REMARK VINA RESULT:    -7.651      0.000      0.000
REMARK INTER + INTRA:          -9.971
REMARK INTER:                  -9.440
REMARK INTRA:                  -0.531
REMARK UNBOUND:                -0.531
REMARK  Name = 
REMARK  5 active torsions:
REMARK  status: ('A' for Active; 'I' for Inactive)
REMARK    1  A    between atoms: C_1  and  O_2
REMARK    2  A    between atoms: O_2  and  C_3
REMARK    3  A    between atoms: C_6  and  C_7
REMARK    4  A    between atoms: C_7  and  N_8
REMARK    5  A    between atoms: C_13  and  C_14
REMARK                            x       y       z     vdW  Elec       q    Type
REMARK                         _______ _______ _______ _____ _____    ______ ____
ROOT
ATOM      1  N   UNL     1      44.152   4.372  11.089  0.00  0.00    +0.000 N 
ATOM      2  N   UNL     1      43.559   3.514  11.961  0.00  0.00    +0.000 NA
ATOM      3  C   UNL     1      44.198   3.751  13.111  0.00  0.00    +0.000 A 
ATOM      4  C   UNL     1      45.211   4.725  12.988  0.00  0.00    +0.000 A 
ATOM      5  C   UNL     1      46.190   5.303  13.814  0.00  0.00    +0.000 A 
ATOM      6  C   UNL     1      47.039   6.255  13.237  0.00  0.00    +0.000 A 
ATOM      7  C   UNL     1      46.849   6.587  11.892  0.00  0.00    +0.000 A 
ATOM      8  N   UNL     1      45.919   6.051  11.055  0.00  0.00    +0.000 NA
ATOM      9  C   UNL     1      45.143   5.130  11.663  0.00  0.00    +0.000 A 
ENDROOT
BRANCH   6  10
ATOM     10  C   UNL     1      48.149   6.921  13.962  0.00  0.00    +0.000 C 
ATOM     11  N   UNL     1      47.849   7.860  14.909  0.00  0.00    +0.000 N 
ATOM     12  O   UNL     1      49.318   6.632  13.735  0.00  0.00    +0.000 OA
ATOM     13  H   UNL     1      46.924   8.147  15.184  0.00  0.00    +0.000 HD
ATOM     14  H   UNL     1      48.633   8.273  15.401  0.00  0.00    +0.000 HD
ENDBRANCH   6  10
BRANCH   1  15
ATOM     15  C   UNL     1      43.859   4.287   9.667  0.00  0.00    +0.000 C 
BRANCH  15  19
ATOM     16  C   UNL     1      46.851   2.110   7.428  0.00  0.00    +0.000 A 
ATOM     17  C   UNL     1      46.022   1.442   8.329  0.00  0.00    +0.000 A 
ATOM     18  C   UNL     1      45.062   2.149   9.063  0.00  0.00    +0.000 A 
ATOM     19  C   UNL     1      44.913   3.533   8.900  0.00  0.00    +0.000 A 
ATOM     20  C   UNL     1      45.754   4.200   7.999  0.00  0.00    +0.000 A 
ATOM     21  C   UNL     1      46.711   3.490   7.268  0.00  0.00    +0.000 A 
BRANCH  16  23
ATOM     22  C   UNL     1      48.129   2.185   5.427  0.00  0.00    +0.000 C 
ATOM     23  O   UNL     1      47.826   1.539   6.656  0.00  0.00    +0.000 OA
ENDBRANCH  16  23
ENDBRANCH  15  19
ENDBRANCH   1  15
TORSDOF 4
ENDMDL
MODEL 2
REMARK VINA RESULT:    -7.630      1.426      1.799
REMARK INTER + INTRA:          -9.945
REMARK INTER:                  -9.406
REMARK INTRA:                  -0.539
REMARK UNBOUND:                -0.531
REMARK  Name = 
REMARK  5 active torsions:
REMARK  status: ('A' for Active; 'I' for Inactive)
REMARK    1  A    between atoms: C_1  and  O_2
REMARK    2  A    between atoms: O_2  and  C_3
REMARK    3  A    between atoms: C_6  and  C_7
REMARK    4  A    between atoms: C_7  and  N_8
REMARK    5  A    between atoms: C_13  and  C_14
REMARK                            x       y       z     vdW  Elec       q    Type
REMARK                         _______ _______ _______ _____ _____    ______ ____
ROOT
ATOM      1  N   UNL     1      44.716   3.941  11.435  0.00  0.00    +0.000 N 
ATOM      2  N   UNL     1      45.246   3.011  12.272  0.00  0.00    +0.000 NA
ATOM      3  C   UNL     1      45.931   3.744  13.156  0.00  0.00    +0.000 A 
ATOM      4  C   UNL     1      45.877   5.127  12.884  0.00  0.00    +0.000 A 
ATOM      5  C   UNL     1      46.426   6.304  13.420  0.00  0.00    +0.000 A 
ATOM      6  C   UNL     1      46.108   7.510  12.782  0.00  0.00    +0.000 A 
ATOM      7  C   UNL     1      45.254   7.473  11.677  0.00  0.00    +0.000 A 
ATOM      8  N   UNL     1      44.703   6.359  11.123  0.00  0.00    +0.000 NA
ATOM      9  C   UNL     1      45.057   5.228  11.769  0.00  0.00    +0.000 A 
ENDROOT
BRANCH   6  10
ATOM     10  C   UNL     1      46.644   8.830  13.197  0.00  0.00    +0.000 C 
ATOM     11  N   UNL     1      47.060   8.998  14.488  0.00  0.00    +0.000 N 
ATOM     12  O   UNL     1      46.733   9.758  12.401  0.00  0.00    +0.000 OA
ATOM     13  H   UNL     1      47.051   8.293  15.208  0.00  0.00    +0.000 HD
ATOM     14  H   UNL     1      47.443   9.905  14.727  0.00  0.00    +0.000 HD
ENDBRANCH   6  10
BRANCH   1  15
ATOM     15  C   UNL     1      44.047   3.526  10.212  0.00  0.00    +0.000 C 
BRANCH  15  19
ATOM     16  C   UNL     1      46.852   2.239   7.182  0.00  0.00    +0.000 A 
ATOM     17  C   UNL     1      46.537   3.590   7.321  0.00  0.00    +0.000 A 
ATOM     18  C   UNL     1      45.619   4.005   8.293  0.00  0.00    +0.000 A 
ATOM     19  C   UNL     1      45.009   3.075   9.147  0.00  0.00    +0.000 A 
ATOM     20  C   UNL     1      45.324   1.717   8.997  0.00  0.00    +0.000 A 
ATOM     21  C   UNL     1      46.241   1.307   8.025  0.00  0.00    +0.000 A 
BRANCH  16  23
ATOM     22  C   UNL     1      47.866   2.395   5.040  0.00  0.00    +0.000 C 
ATOM     23  O   UNL     1      47.725   1.705   6.275  0.00  0.00    +0.000 OA
ENDBRANCH  16  23
ENDBRANCH  15  19
ENDBRANCH   1  15
TORSDOF 4
ENDMDL
MODEL 3
REMARK VINA RESULT:    -7.609      2.117      6.538
REMARK INTER + INTRA:          -9.919
REMARK INTER:                  -9.476
REMARK INTRA:                  -0.443
REMARK UNBOUND:                -0.531
REMARK  Name = 
REMARK  5 active torsions:
REMARK  status: ('A' for Active; 'I' for Inactive)
REMARK    1  A    between atoms: C_1  and  O_2
REMARK    2  A    between atoms: O_2  and  C_3
REMARK    3  A    between atoms: C_6  and  C_7
REMARK    4  A    between atoms: C_7  and  N_8
REMARK    5  A    between atoms: C_13  and  C_14
REMARK                            x       y       z     vdW  Elec       q    Type
REMARK                         _______ _______ _______ _____ _____    ______ ____
ROOT
ATOM      1  N   UNL     1      44.073   4.262  10.384  0.00  0.00    +0.000 N 
ATOM      2  N   UNL     1      43.513   3.164  10.958  0.00  0.00    +0.000 NA
ATOM      3  C   UNL     1      44.094   2.147  10.312  0.00  0.00    +0.000 A 
ATOM      4  C   UNL     1      44.995   2.571   9.313  0.00  0.00    +0.000 A 
ATOM      5  C   UNL     1      45.806   1.971   8.336  0.00  0.00    +0.000 A 
ATOM      6  C   UNL     1      46.547   2.820   7.504  0.00  0.00    +0.000 A 
ATOM      7  C   UNL     1      46.454   4.200   7.710  0.00  0.00    +0.000 A 
ATOM      8  N   UNL     1      45.680   4.824   8.640  0.00  0.00    +0.000 NA
ATOM      9  C   UNL     1      44.979   3.956   9.398  0.00  0.00    +0.000 A 
ENDROOT
BRANCH   6  10
ATOM     10  C   UNL     1      47.413   2.344   6.397  0.00  0.00    +0.000 C 
ATOM     11  N   UNL     1      47.340   2.973   5.186  0.00  0.00    +0.000 N 
ATOM     12  O   UNL     1      48.194   1.414   6.557  0.00  0.00    +0.000 OA
ATOM     13  H   UNL     1      46.751   3.759   4.963  0.00  0.00    +0.000 HD
ATOM     14  H   UNL     1      47.964   2.637   4.462  0.00  0.00    +0.000 HD
ENDBRANCH   6  10
BRANCH   1  15
ATOM     15  C   UNL     1      43.558   5.587  10.688  0.00  0.00    +0.000 C 
BRANCH  15  19
ATOM     16  C   UNL     1      46.308   7.982  13.015  0.00  0.00    +0.000 A 
ATOM     17  C   UNL     1      45.368   8.595  12.186  0.00  0.00    +0.000 A 
ATOM     18  C   UNL     1      44.487   7.819  11.423  0.00  0.00    +0.000 A 
ATOM     19  C   UNL     1      44.527   6.419  11.485  0.00  0.00    +0.000 A 
ATOM     20  C   UNL     1      45.479   5.810  12.313  0.00  0.00    +0.000 A 
ATOM     21  C   UNL     1      46.357   6.588  13.073  0.00  0.00    +0.000 A 
BRANCH  16  23
ATOM     22  C   UNL     1      48.257   7.823  14.363  0.00  0.00    +0.000 C 
ATOM     23  O   UNL     1      47.223   8.622  13.804  0.00  0.00    +0.000 OA
ENDBRANCH  16  23
ENDBRANCH  15  19
ENDBRANCH   1  15
TORSDOF 4
ENDMDL
MODEL 4
REMARK VINA RESULT:    -7.504      1.640      2.201
REMARK INTER + INTRA:          -9.790
REMARK INTER:                  -9.280
REMARK INTRA:                  -0.510
REMARK UNBOUND:                -0.531
REMARK  Name = 
REMARK  5 active torsions:
REMARK  status: ('A' for Active; 'I' for Inactive)
REMARK    1  A    between atoms: C_1  and  O_2
REMARK    2  A    between atoms: O_2  and  C_3
REMARK    3  A    between atoms: C_6  and  C_7
REMARK    4  A    between atoms: C_7  and  N_8
REMARK    5  A    between atoms: C_13  and  C_14
REMARK                            x       y       z     vdW  Elec       q    Type
REMARK                         _______ _______ _______ _____ _____    ______ ____
ROOT
ATOM      1  N   UNL     1      44.997   5.195  11.032  0.00  0.00    +0.000 N 
ATOM      2  N   UNL     1      44.983   6.548  10.907  0.00  0.00    +0.000 NA
ATOM      3  C   UNL     1      45.649   6.966  11.988  0.00  0.00    +0.000 A 
ATOM      4  C   UNL     1      46.067   5.907  12.822  0.00  0.00    +0.000 A 
ATOM      5  C   UNL     1      46.724   5.766  14.055  0.00  0.00    +0.000 A 
ATOM      6  C   UNL     1      46.910   4.464  14.539  0.00  0.00    +0.000 A 
ATOM      7  C   UNL     1      46.455   3.395  13.763  0.00  0.00    +0.000 A 
ATOM      8  N   UNL     1      45.811   3.485  12.567  0.00  0.00    +0.000 NA
ATOM      9  C   UNL     1      45.647   4.761  12.161  0.00  0.00    +0.000 A 
ENDROOT
BRANCH   6  10
ATOM     10  C   UNL     1      47.543   4.151  15.844  0.00  0.00    +0.000 C 
ATOM     11  N   UNL     1      47.226   4.915  16.932  0.00  0.00    +0.000 N 
ATOM     12  O   UNL     1      48.327   3.216  15.961  0.00  0.00    +0.000 OA
ATOM     13  H   UNL     1      46.578   5.685  16.944  0.00  0.00    +0.000 HD
ATOM     14  H   UNL     1      47.659   4.654  17.811  0.00  0.00    +0.000 HD
ENDBRANCH   6  10
BRANCH   1  15
ATOM     15  C   UNL     1      44.201   4.370  10.137  0.00  0.00    +0.000 C 
BRANCH  15  19
ATOM     16  C   UNL     1      46.580   2.067   7.355  0.00  0.00    +0.000 A 
ATOM     17  C   UNL     1      45.871   1.428   8.372  0.00  0.00    +0.000 A 
ATOM     18  C   UNL     1      45.112   2.175   9.281  0.00  0.00    +0.000 A 
ATOM     19  C   UNL     1      45.043   3.572   9.179  0.00  0.00    +0.000 A 
ATOM     20  C   UNL     1      45.764   4.208   8.159  0.00  0.00    +0.000 A 
ATOM     21  C   UNL     1      46.521   3.458   7.254  0.00  0.00    +0.000 A 
BRANCH  16  23
ATOM     22  C   UNL     1      47.943   2.295   5.423  0.00  0.00    +0.000 C 
ATOM     23  O   UNL     1      47.358   1.456   6.410  0.00  0.00    +0.000 OA
ENDBRANCH  16  23
ENDBRANCH  15  19
ENDBRANCH   1  15
TORSDOF 4
ENDMDL
MODEL 5
REMARK VINA RESULT:    -6.248      4.174      7.682
REMARK INTER + INTRA:          -8.240
REMARK INTER:                  -8.232
REMARK INTRA:                  -0.008
REMARK UNBOUND:                -0.531
REMARK  Name = 
REMARK  5 active torsions:
REMARK  status: ('A' for Active; 'I' for Inactive)
REMARK    1  A    between atoms: C_1  and  O_2
REMARK    2  A    between atoms: O_2  and  C_3
REMARK    3  A    between atoms: C_6  and  C_7
REMARK    4  A    between atoms: C_7  and  N_8
REMARK    5  A    between atoms: C_13  and  C_14
REMARK                            x       y       z     vdW  Elec       q    Type
REMARK                         _______ _______ _______ _____ _____    ______ ____
ROOT
ATOM      1  N   UNL     1      47.256   4.923  15.147  0.00  0.00    +0.000 N 
ATOM      2  N   UNL     1      48.268   5.824  15.038  0.00  0.00    +0.000 NA
ATOM      3  C   UNL     1      48.094   6.338  13.816  0.00  0.00    +0.000 A 
ATOM      4  C   UNL     1      47.007   5.763  13.125  0.00  0.00    +0.000 A 
ATOM      5  C   UNL     1      46.422   5.871  11.853  0.00  0.00    +0.000 A 
ATOM      6  C   UNL     1      45.322   5.049  11.578  0.00  0.00    +0.000 A 
ATOM      7  C   UNL     1      44.862   4.195  12.585  0.00  0.00    +0.000 A 
ATOM      8  N   UNL     1      45.399   4.054  13.827  0.00  0.00    +0.000 NA
ATOM      9  C   UNL     1      46.463   4.859  14.027  0.00  0.00    +0.000 A 
ENDROOT
BRANCH   6  10
ATOM     10  C   UNL     1      44.625   5.011  10.269  0.00  0.00    +0.000 C 
ATOM     11  N   UNL     1      45.360   5.151   9.125  0.00  0.00    +0.000 N 
ATOM     12  O   UNL     1      43.413   4.843  10.200  0.00  0.00    +0.000 OA
ATOM     13  H   UNL     1      46.359   5.269   9.076  0.00  0.00    +0.000 HD
ATOM     14  H   UNL     1      44.852   5.094   8.250  0.00  0.00    +0.000 HD
ENDBRANCH   6  10
BRANCH   1  15
ATOM     15  C   UNL     1      47.211   4.009  16.277  0.00  0.00    +0.000 C 
BRANCH  15  19
ATOM     16  C   UNL     1      51.124   2.758  17.628  0.00  0.00    +0.000 A 
ATOM     17  C   UNL     1      50.677   4.056  17.873  0.00  0.00    +0.000 A 
ATOM     18  C   UNL     1      49.415   4.464  17.424  0.00  0.00    +0.000 A 
ATOM     19  C   UNL     1      48.579   3.577  16.731  0.00  0.00    +0.000 A 
ATOM     20  C   UNL     1      49.038   2.277  16.482  0.00  0.00    +0.000 A 
ATOM     21  C   UNL     1      50.298   1.872  16.932  0.00  0.00    +0.000 A 
BRANCH  16  23
ATOM     22  C   UNL     1      52.609   0.904  17.602  0.00  0.00    +0.000 C 
ATOM     23  O   UNL     1      52.331   2.237  18.009  0.00  0.00    +0.000 OA
ENDBRANCH  16  23
ENDBRANCH  15  19
ENDBRANCH   1  15
TORSDOF 4
ENDMDL
MODEL 6
REMARK VINA RESULT:    -6.034      2.078      3.161
REMARK INTER + INTRA:          -7.975
REMARK INTER:                  -7.433
REMARK INTRA:                  -0.542
REMARK UNBOUND:                -0.531
REMARK  Name = 
REMARK  5 active torsions:
REMARK  status: ('A' for Active; 'I' for Inactive)
REMARK    1  A    between atoms: C_1  and  O_2
REMARK    2  A    between atoms: O_2  and  C_3
REMARK    3  A    between atoms: C_6  and  C_7
REMARK    4  A    between atoms: C_7  and  N_8
REMARK    5  A    between atoms: C_13  and  C_14
REMARK                            x       y       z     vdW  Elec       q    Type
REMARK                         _______ _______ _______ _____ _____    ______ ____
ROOT
ATOM      1  N   UNL     1      45.790   6.136  12.064  0.00  0.00    +0.000 N 
ATOM      2  N   UNL     1      46.268   7.384  11.815  0.00  0.00    +0.000 NA
ATOM      3  C   UNL     1      47.154   7.579  12.797  0.00  0.00    +0.000 A 
ATOM      4  C   UNL     1      47.234   6.490  13.691  0.00  0.00    +0.000 A 
ATOM      5  C   UNL     1      47.919   6.181  14.877  0.00  0.00    +0.000 A 
ATOM      6  C   UNL     1      47.658   4.936  15.465  0.00  0.00    +0.000 A 
ATOM      7  C   UNL     1      46.757   4.077  14.830  0.00  0.00    +0.000 A 
ATOM      8  N   UNL     1      46.069   4.336  13.685  0.00  0.00    +0.000 NA
ATOM      9  C   UNL     1      46.350   5.553  13.175  0.00  0.00    +0.000 A 
ENDROOT
BRANCH   6  10
ATOM     10  C   UNL     1      48.264   4.481  16.740  0.00  0.00    +0.000 C 
ATOM     11  N   UNL     1      49.102   5.327  17.412  0.00  0.00    +0.000 N 
ATOM     12  O   UNL     1      48.015   3.374  17.202  0.00  0.00    +0.000 OA
ATOM     13  H   UNL     1      49.349   6.262  17.129  0.00  0.00    +0.000 HD
ATOM     14  H   UNL     1      49.477   4.991  18.291  0.00  0.00    +0.000 HD
ENDBRANCH   6  10
BRANCH   1  15
ATOM     15  C   UNL     1      44.654   5.625  11.314  0.00  0.00    +0.000 C 
BRANCH  15  19
ATOM     16  C   UNL     1      45.864   2.871   8.207  0.00  0.00    +0.000 A 
ATOM     17  C   UNL     1      46.109   4.237   8.071  0.00  0.00    +0.000 A 
ATOM     18  C   UNL     1      45.705   5.130   9.071  0.00  0.00    +0.000 A 
ATOM     19  C   UNL     1      45.058   4.668  10.226  0.00  0.00    +0.000 A 
ATOM     20  C   UNL     1      44.809   3.294  10.353  0.00  0.00    +0.000 A 
ATOM     21  C   UNL     1      45.213   2.406   9.352  0.00  0.00    +0.000 A 
BRANCH  16  23
ATOM     22  C   UNL     1      46.511   0.616   7.834  0.00  0.00    +0.000 C 
ATOM     23  O   UNL     1      46.203   1.899   7.306  0.00  0.00    +0.000 OA
ENDBRANCH  16  23
ENDBRANCH  15  19
ENDBRANCH   1  15
TORSDOF 4
ENDMDL
MODEL 7
REMARK VINA RESULT:    -5.916      4.139      8.561
REMARK INTER + INTRA:          -7.830
REMARK INTER:                  -7.506
REMARK INTRA:                  -0.324
REMARK UNBOUND:                -0.531
REMARK  Name = 
REMARK  5 active torsions:
REMARK  status: ('A' for Active; 'I' for Inactive)
REMARK    1  A    between atoms: C_1  and  O_2
REMARK    2  A    between atoms: O_2  and  C_3
REMARK    3  A    between atoms: C_6  and  C_7
REMARK    4  A    between atoms: C_7  and  N_8
REMARK    5  A    between atoms: C_13  and  C_14
REMARK                            x       y       z     vdW  Elec       q    Type
REMARK                         _______ _______ _______ _____ _____    ______ ____
ROOT
ATOM      1  N   UNL     1      47.408   4.746  14.946  0.00  0.00    +0.000 N 
ATOM      2  N   UNL     1      48.247   5.816  14.926  0.00  0.00    +0.000 NA
ATOM      3  C   UNL     1      47.936   6.432  13.780  0.00  0.00    +0.000 A 
ATOM      4  C   UNL     1      46.934   5.761  13.048  0.00  0.00    +0.000 A 
ATOM      5  C   UNL     1      46.286   5.913  11.811  0.00  0.00    +0.000 A 
ATOM      6  C   UNL     1      45.332   4.950  11.462  0.00  0.00    +0.000 A 
ATOM      7  C   UNL     1      45.067   3.917  12.366  0.00  0.00    +0.000 A 
ATOM      8  N   UNL     1      45.673   3.728  13.570  0.00  0.00    +0.000 NA
ATOM      9  C   UNL     1      46.592   4.677  13.844  0.00  0.00    +0.000 A 
ENDROOT
BRANCH   6  10
ATOM     10  C   UNL     1      44.596   4.944  10.173  0.00  0.00    +0.000 C 
ATOM     11  N   UNL     1      45.308   4.973   9.007  0.00  0.00    +0.000 N 
ATOM     12  O   UNL     1      43.372   4.900  10.142  0.00  0.00    +0.000 OA
ATOM     13  H   UNL     1      46.312   4.985   8.928  0.00  0.00    +0.000 HD
ATOM     14  H   UNL     1      44.771   4.942   8.148  0.00  0.00    +0.000 HD
ENDBRANCH   6  10
BRANCH   1  15
ATOM     15  C   UNL     1      47.568   3.712  15.956  0.00  0.00    +0.000 C 
BRANCH  15  19
ATOM     16  C   UNL     1      48.924   5.237  19.770  0.00  0.00    +0.000 A 
ATOM     17  C   UNL     1      47.645   5.541  19.304  0.00  0.00    +0.000 A 
ATOM     18  C   UNL     1      47.211   5.059  18.064  0.00  0.00    +0.000 A 
ATOM     19  C   UNL     1      48.048   4.257  17.275  0.00  0.00    +0.000 A 
ATOM     20  C   UNL     1      49.334   3.960  17.745  0.00  0.00    +0.000 A 
ATOM     21  C   UNL     1      49.764   4.444  18.984  0.00  0.00    +0.000 A 
BRANCH  16  23
ATOM     22  C   UNL     1      50.865   5.445  21.124  0.00  0.00    +0.000 C 
ATOM     23  O   UNL     1      49.467   5.646  20.956  0.00  0.00    +0.000 OA
ENDBRANCH  16  23
ENDBRANCH  15  19
ENDBRANCH   1  15
TORSDOF 4
ENDMDL
MODEL 8
REMARK VINA RESULT:    -5.784      3.468      6.464
REMARK INTER + INTRA:          -7.667
REMARK INTER:                  -7.308
REMARK INTRA:                  -0.359
REMARK UNBOUND:                -0.531
REMARK  Name = 
REMARK  5 active torsions:
REMARK  status: ('A' for Active; 'I' for Inactive)
REMARK    1  A    between atoms: C_1  and  O_2
REMARK    2  A    between atoms: O_2  and  C_3
REMARK    3  A    between atoms: C_6  and  C_7
REMARK    4  A    between atoms: C_7  and  N_8
REMARK    5  A    between atoms: C_13  and  C_14
REMARK                            x       y       z     vdW  Elec       q    Type
REMARK                         _______ _______ _______ _____ _____    ______ ____
ROOT
ATOM      1  N   UNL     1      47.236   6.952  12.861  0.00  0.00    +0.000 N 
ATOM      2  N   UNL     1      47.676   6.534  14.078  0.00  0.00    +0.000 NA
ATOM      3  C   UNL     1      47.176   5.299  14.180  0.00  0.00    +0.000 A 
ATOM      4  C   UNL     1      46.397   4.925  13.065  0.00  0.00    +0.000 A 
ATOM      5  C   UNL     1      45.623   3.820  12.673  0.00  0.00    +0.000 A 
ATOM      6  C   UNL     1      44.972   3.897  11.435  0.00  0.00    +0.000 A 
ATOM      7  C   UNL     1      45.149   5.047  10.661  0.00  0.00    +0.000 A 
ATOM      8  N   UNL     1      45.884   6.140  11.002  0.00  0.00    +0.000 NA
ATOM      9  C   UNL     1      46.473   6.014  12.209  0.00  0.00    +0.000 A 
ENDROOT
BRANCH   6  10
ATOM     10  C   UNL     1      44.082   2.836  10.902  0.00  0.00    +0.000 C 
ATOM     11  N   UNL     1      44.484   2.127   9.804  0.00  0.00    +0.000 N 
ATOM     12  O   UNL     1      43.010   2.579  11.437  0.00  0.00    +0.000 OA
ATOM     13  H   UNL     1      45.355   2.246   9.311  0.00  0.00    +0.000 HD
ATOM     14  H   UNL     1      43.862   1.394   9.485  0.00  0.00    +0.000 HD
ENDBRANCH   6  10
BRANCH   1  15
ATOM     15  C   UNL     1      47.416   8.337  12.455  0.00  0.00    +0.000 C 
BRANCH  15  19
ATOM     16  C   UNL     1      51.362   9.119  10.866  0.00  0.00    +0.000 A 
ATOM     17  C   UNL     1      50.919   7.808  11.036  0.00  0.00    +0.000 A 
ATOM     18  C   UNL     1      49.647   7.555  11.563  0.00  0.00    +0.000 A 
ATOM     19  C   UNL     1      48.796   8.610  11.919  0.00  0.00    +0.000 A 
ATOM     20  C   UNL     1      49.250   9.926  11.752  0.00  0.00    +0.000 A 
ATOM     21  C   UNL     1      50.521  10.174  11.226  0.00  0.00    +0.000 A 
BRANCH  16  23
ATOM     22  C   UNL     1      52.942   8.976   9.097  0.00  0.00    +0.000 C 
ATOM     23  O   UNL     1      52.578   9.500  10.367  0.00  0.00    +0.000 OA
ENDBRANCH  16  23
ENDBRANCH  15  19
ENDBRANCH   1  15
TORSDOF 4
ENDMDL
MODEL 9
REMARK VINA RESULT:    -5.724      3.485      6.412
REMARK INTER + INTRA:          -7.594
REMARK INTER:                  -7.024
REMARK INTRA:                  -0.569
REMARK UNBOUND:                -0.531
REMARK  Name = 
REMARK  5 active torsions:
REMARK  status: ('A' for Active; 'I' for Inactive)
REMARK    1  A    between atoms: C_1  and  O_2
REMARK    2  A    between atoms: O_2  and  C_3
REMARK    3  A    between atoms: C_6  and  C_7
REMARK    4  A    between atoms: C_7  and  N_8
REMARK    5  A    between atoms: C_13  and  C_14
REMARK                            x       y       z     vdW  Elec       q    Type
REMARK                         _______ _______ _______ _____ _____    ______ ____
ROOT
ATOM      1  N   UNL     1      46.054   8.218  12.819  0.00  0.00    +0.000 N 
ATOM      2  N   UNL     1      45.395   9.123  12.048  0.00  0.00    +0.000 NA
ATOM      3  C   UNL     1      44.501   8.377  11.391  0.00  0.00    +0.000 A 
ATOM      4  C   UNL     1      44.593   7.004  11.704  0.00  0.00    +0.000 A 
ATOM      5  C   UNL     1      43.973   5.812  11.295  0.00  0.00    +0.000 A 
ATOM      6  C   UNL     1      44.422   4.620  11.880  0.00  0.00    +0.000 A 
ATOM      7  C   UNL     1      45.432   4.692  12.843  0.00  0.00    +0.000 A 
ATOM      8  N   UNL     1      46.062   5.822  13.266  0.00  0.00    +0.000 NA
ATOM      9  C   UNL     1      45.599   6.933  12.656  0.00  0.00    +0.000 A 
ENDROOT
BRANCH   6  10
ATOM     10  C   UNL     1      43.903   3.278  11.522  0.00  0.00    +0.000 C 
ATOM     11  N   UNL     1      43.686   2.366  12.517  0.00  0.00    +0.000 N 
ATOM     12  O   UNL     1      43.655   2.982  10.358  0.00  0.00    +0.000 OA
ATOM     13  H   UNL     1      43.835   2.521  13.502  0.00  0.00    +0.000 HD
ATOM     14  H   UNL     1      43.307   1.470  12.237  0.00  0.00    +0.000 HD
ENDBRANCH   6  10
BRANCH   1  15
ATOM     15  C   UNL     1      47.246   8.615  13.553  0.00  0.00    +0.000 C 
BRANCH  15  19
ATOM     16  C   UNL     1      50.809   8.745  11.105  0.00  0.00    +0.000 A 
ATOM     17  C   UNL     1      50.108   9.916  11.391  0.00  0.00    +0.000 A 
ATOM     18  C   UNL     1      48.947   9.872  12.172  0.00  0.00    +0.000 A 
ATOM     19  C   UNL     1      48.476   8.656  12.687  0.00  0.00    +0.000 A 
ATOM     20  C   UNL     1      49.181   7.481  12.390  0.00  0.00    +0.000 A 
ATOM     21  C   UNL     1      50.339   7.530  11.610  0.00  0.00    +0.000 A 
BRANCH  16  23
ATOM     22  C   UNL     1      52.299   7.358   9.880  0.00  0.00    +0.000 C 
ATOM     23  O   UNL     1      51.949   8.651  10.355  0.00  0.00    +0.000 OA
ENDBRANCH  16  23
ENDBRANCH  15  19
ENDBRANCH   1  15
TORSDOF 4
ENDMDL
