MODEL 1
REMARK VINA RESULT:    -9.244      0.000      0.000
REMARK INTER + INTRA:         -12.708
REMARK INTER:                 -11.946
REMARK INTRA:                  -0.763
REMARK UNBOUND:                -0.763
REMARK  Name = 
REMARK  5 active torsions:
REMARK  status: ('A' for Active; 'I' for Inactive)
REMARK    1  A    between atoms: C_2  and  C_4
REMARK    2  A    between atoms: C_7  and  C_8
REMARK    3  A    between atoms: C_8  and  C_9
REMARK    4  A    between atoms: C_9  and  C_10
REMARK    5  A    between atoms: C_14  and  C_15
REMARK                            x       y       z     vdW  Elec       q    Type
REMARK                         _______ _______ _______ _____ _____    ______ ____
ROOT
ATOM      1  C   UNL     1      43.960   4.619  11.519  0.00  0.00    +0.000 C 
ATOM      2  C   UNL     1      42.772   5.026  12.390  0.00  0.00    +0.000 C 
ATOM      3  C   UNL     1      43.026   5.758  11.113  0.00  0.00    +0.000 C 
ENDROOT
BRANCH   1   4
ATOM      4  C   UNL     1      45.331   4.998  12.069  0.00  0.00    +0.000 A 
ATOM      5  C   UNL     1      46.051   6.095  11.569  0.00  0.00    +0.000 A 
ATOM      6  C   UNL     1      47.194   6.566  12.213  0.00  0.00    +0.000 A 
ATOM      7  C   UNL     1      47.646   5.937  13.373  0.00  0.00    +0.000 A 
ATOM      8  C   UNL     1      46.982   4.814  13.890  0.00  0.00    +0.000 A 
ATOM      9  C   UNL     1      45.857   4.337  13.193  0.00  0.00    +0.000 A 
BRANCH   8  10
ATOM     10  C   UNL     1      47.358   4.203  15.172  0.00  0.00    +0.000 A 
ATOM     11  C   UNL     1      47.103   4.818  16.398  0.00  0.00    +0.000 A 
ATOM     12  N   UNL     1      47.366   4.240  17.598  0.00  0.00    +0.000 NA
ATOM     13  C   UNL     1      47.890   3.000  17.528  0.00  0.00    +0.000 A 
ATOM     14  C   UNL     1      48.148   2.372  16.322  0.00  0.00    +0.000 A 
ATOM     15  N   UNL     1      47.889   2.952  15.126  0.00  0.00    +0.000 NA
ENDBRANCH   8  10
ENDBRANCH   1   4
BRANCH   1  16
ATOM     16  C   UNL     1      43.814   3.242  10.886  0.00  0.00    +0.000 C 
BRANCH  16  20
ATOM     17  C   UNL     1      46.372   2.660   7.532  0.00  0.00    +0.000 A 
ATOM     18  C   UNL     1      45.840   3.930   7.757  0.00  0.00    +0.000 A 
ATOM     19  C   UNL     1      44.949   4.119   8.814  0.00  0.00    +0.000 A 
ATOM     20  C   UNL     1      44.616   3.034   9.626  0.00  0.00    +0.000 A 
ATOM     21  N   UNL     1      45.095   1.784   9.396  0.00  0.00    +0.000 NA
ATOM     22  C   UNL     1      45.949   1.624   8.353  0.00  0.00    +0.000 A 
BRANCH  17  24
ATOM     23  N   UNL     1      47.312   3.147   5.341  0.00  0.00    +0.000 N 
ATOM     24  C   UNL     1      47.357   2.373   6.469  0.00  0.00    +0.000 C 
ATOM     25  O   UNL     1      48.207   1.500   6.604  0.00  0.00    +0.000 OA
ATOM     26  H   UNL     1      48.061   3.006   4.676  0.00  0.00    +0.000 HD
ATOM     27  H   UNL     1      46.814   4.024   5.304  0.00  0.00    +0.000 HD
ENDBRANCH  17  24
ENDBRANCH  16  20
ENDBRANCH   1  16
TORSDOF 5
ENDMDL
MODEL 2
REMARK VINA RESULT:    -7.957      2.107      3.319
REMARK INTER + INTRA:         -11.045
REMARK INTER:                 -10.110
REMARK INTRA:                  -0.935
REMARK UNBOUND:                -0.763
REMARK  Name = 
REMARK  5 active torsions:
REMARK  status: ('A' for Active; 'I' for Inactive)
REMARK    1  A    between atoms: C_2  and  C_4
REMARK    2  A    between atoms: C_7  and  C_8
REMARK    3  A    between atoms: C_8  and  C_9
REMARK    4  A    between atoms: C_9  and  C_10
REMARK    5  A    between atoms: C_14  and  C_15
REMARK                            x       y       z     vdW  Elec       q    Type
REMARK                         _______ _______ _______ _____ _____    ______ ____
ROOT
ATOM      1  C   UNL     1      43.896   4.718  11.407  0.00  0.00    +0.000 C 
ATOM      2  C   UNL     1      42.642   5.384  11.974  0.00  0.00    +0.000 C 
ATOM      3  C   UNL     1      43.367   6.037  10.844  0.00  0.00    +0.000 C 
ENDROOT
BRANCH   1   4
ATOM      4  C   UNL     1      45.129   4.781  12.302  0.00  0.00    +0.000 A 
ATOM      5  C   UNL     1      45.548   3.677  13.062  0.00  0.00    +0.000 A 
ATOM      6  C   UNL     1      46.785   3.668  13.705  0.00  0.00    +0.000 A 
ATOM      7  C   UNL     1      47.627   4.776  13.607  0.00  0.00    +0.000 A 
ATOM      8  C   UNL     1      47.235   5.917  12.890  0.00  0.00    +0.000 A 
ATOM      9  C   UNL     1      45.964   5.912  12.289  0.00  0.00    +0.000 A 
BRANCH   8  10
ATOM     10  C   UNL     1      48.144   7.050  12.665  0.00  0.00    +0.000 A 
ATOM     11  C   UNL     1      47.760   8.189  11.955  0.00  0.00    +0.000 A 
ATOM     12  N   UNL     1      48.550   9.281  11.803  0.00  0.00    +0.000 NA
ATOM     13  C   UNL     1      49.753   9.200  12.406  0.00  0.00    +0.000 A 
ATOM     14  C   UNL     1      50.152   8.081  13.117  0.00  0.00    +0.000 A 
ATOM     15  N   UNL     1      49.363   6.990  13.263  0.00  0.00    +0.000 NA
ENDBRANCH   8  10
ENDBRANCH   1   4
BRANCH   1  16
ATOM     16  C   UNL     1      43.620   3.407  10.683  0.00  0.00    +0.000 C 
BRANCH  16  20
ATOM     17  C   UNL     1      46.488   2.540   7.657  0.00  0.00    +0.000 A 
ATOM     18  C   UNL     1      46.110   3.867   7.862  0.00  0.00    +0.000 A 
ATOM     19  C   UNL     1      45.124   4.158   8.806  0.00  0.00    +0.000 A 
ATOM     20  C   UNL     1      44.542   3.114   9.527  0.00  0.00    +0.000 A 
ATOM     21  N   UNL     1      44.871   1.815   9.310  0.00  0.00    +0.000 NA
ATOM     22  C   UNL     1      45.824   1.558   8.377  0.00  0.00    +0.000 A 
BRANCH  17  24
ATOM     23  N   UNL     1      48.607   2.999   6.552  0.00  0.00    +0.000 N 
ATOM     24  C   UNL     1      47.554   2.139   6.716  0.00  0.00    +0.000 C 
ATOM     25  O   UNL     1      47.518   1.063   6.130  0.00  0.00    +0.000 OA
ATOM     26  H   UNL     1      49.375   2.657   5.990  0.00  0.00    +0.000 HD
ATOM     27  H   UNL     1      48.801   3.750   7.198  0.00  0.00    +0.000 HD
ENDBRANCH  17  24
ENDBRANCH  16  20
ENDBRANCH   1  16
TORSDOF 5
ENDMDL
MODEL 3
REMARK VINA RESULT:    -7.770      2.019      2.771
REMARK INTER + INTRA:         -10.804
REMARK INTER:                 -10.859
REMARK INTRA:                   0.055
REMARK UNBOUND:                -0.763
REMARK  Name = 
REMARK  5 active torsions:
REMARK  status: ('A' for Active; 'I' for Inactive)
REMARK    1  A    between atoms: C_2  and  C_4
REMARK    2  A    between atoms: C_7  and  C_8
REMARK    3  A    between atoms: C_8  and  C_9
REMARK    4  A    between atoms: C_9  and  C_10
REMARK    5  A    between atoms: C_14  and  C_15
REMARK                            x       y       z     vdW  Elec       q    Type
REMARK                         _______ _______ _______ _____ _____    ______ ____
ROOT
ATOM      1  C   UNL     1      44.215   4.755  11.676  0.00  0.00    +0.000 C 
ATOM      2  C   UNL     1      44.715   3.577  12.513  0.00  0.00    +0.000 C 
ATOM      3  C   UNL     1      43.447   4.264  12.903  0.00  0.00    +0.000 C 
ENDROOT
BRANCH   1   4
ATOM      4  C   UNL     1      45.019   6.043  11.821  0.00  0.00    +0.000 A 
ATOM      5  C   UNL     1      44.523   7.279  11.374  0.00  0.00    +0.000 A 
ATOM      6  C   UNL     1      45.160   8.475  11.700  0.00  0.00    +0.000 A 
ATOM      7  C   UNL     1      46.318   8.457  12.476  0.00  0.00    +0.000 A 
ATOM      8  C   UNL     1      46.873   7.244  12.914  0.00  0.00    +0.000 A 
ATOM      9  C   UNL     1      46.231   6.052  12.532  0.00  0.00    +0.000 A 
BRANCH   8  10
ATOM     10  C   UNL     1      48.020   7.194  13.831  0.00  0.00    +0.000 A 
ATOM     11  C   UNL     1      48.128   6.240  14.844  0.00  0.00    +0.000 A 
ATOM     12  N   UNL     1      49.212   6.120  15.651  0.00  0.00    +0.000 NA
ATOM     13  C   UNL     1      50.207   6.995  15.398  0.00  0.00    +0.000 A 
ATOM     14  C   UNL     1      50.120   7.947  14.397  0.00  0.00    +0.000 A 
ATOM     15  N   UNL     1      49.035   8.067  13.596  0.00  0.00    +0.000 NA
ENDBRANCH   8  10
ENDBRANCH   1   4
BRANCH   1  16
ATOM     16  C   UNL     1      43.760   4.365  10.276  0.00  0.00    +0.000 C 
BRANCH  16  20
ATOM     17  C   UNL     1      46.576   2.755   7.518  0.00  0.00    +0.000 A 
ATOM     18  C   UNL     1      45.923   1.887   8.393  0.00  0.00    +0.000 A 
ATOM     19  C   UNL     1      45.047   2.409   9.345  0.00  0.00    +0.000 A 
ATOM     20  C   UNL     1      44.839   3.788   9.396  0.00  0.00    +0.000 A 
ATOM     21  N   UNL     1      45.497   4.649   8.577  0.00  0.00    +0.000 NA
ATOM     22  C   UNL     1      46.354   4.116   7.669  0.00  0.00    +0.000 A 
BRANCH  17  24
ATOM     23  N   UNL     1      47.539   3.039   5.301  0.00  0.00    +0.000 N 
ATOM     24  C   UNL     1      47.483   2.293   6.447  0.00  0.00    +0.000 C 
ATOM     25  O   UNL     1      48.186   1.299   6.591  0.00  0.00    +0.000 OA
ATOM     26  H   UNL     1      48.243   2.768   4.629  0.00  0.00    +0.000 HD
ATOM     27  H   UNL     1      47.186   3.984   5.251  0.00  0.00    +0.000 HD
ENDBRANCH  17  24
ENDBRANCH  16  20
ENDBRANCH   1  16
TORSDOF 5
ENDMDL
MODEL 4
REMARK VINA RESULT:    -7.402      2.662      7.545
REMARK INTER + INTRA:         -10.328
REMARK INTER:                  -9.661
REMARK INTRA:                  -0.667
REMARK UNBOUND:                -0.763
REMARK  Name = 
REMARK  5 active torsions:
REMARK  status: ('A' for Active; 'I' for Inactive)
REMARK    1  A    between atoms: C_2  and  C_4
REMARK    2  A    between atoms: C_7  and  C_8
REMARK    3  A    between atoms: C_8  and  C_9
REMARK    4  A    between atoms: C_9  and  C_10
REMARK    5  A    between atoms: C_14  and  C_15
REMARK                            x       y       z     vdW  Elec       q    Type
REMARK                         _______ _______ _______ _____ _____    ______ ____
ROOT
ATOM      1  C   UNL     1      46.415   7.383  12.413  0.00  0.00    +0.000 C 
ATOM      2  C   UNL     1      46.412   8.783  11.799  0.00  0.00    +0.000 C 
ATOM      3  C   UNL     1      45.804   8.576  13.147  0.00  0.00    +0.000 C 
ENDROOT
BRANCH   1   4
ATOM      4  C   UNL     1      45.454   6.388  11.770  0.00  0.00    +0.000 A 
ATOM      5  C   UNL     1      44.064   6.489  11.936  0.00  0.00    +0.000 A 
ATOM      6  C   UNL     1      43.185   5.716  11.179  0.00  0.00    +0.000 A 
ATOM      7  C   UNL     1      43.686   4.814  10.241  0.00  0.00    +0.000 A 
ATOM      8  C   UNL     1      45.069   4.650  10.066  0.00  0.00    +0.000 A 
ATOM      9  C   UNL     1      45.929   5.413  10.876  0.00  0.00    +0.000 A 
BRANCH   8  10
ATOM     10  C   UNL     1      45.628   3.800   9.006  0.00  0.00    +0.000 A 
ATOM     11  C   UNL     1      45.574   2.407   9.056  0.00  0.00    +0.000 A 
ATOM     12  N   UNL     1      46.008   1.601   8.054  0.00  0.00    +0.000 NA
ATOM     13  C   UNL     1      46.496   2.248   6.977  0.00  0.00    +0.000 A 
ATOM     14  C   UNL     1      46.556   3.629   6.906  0.00  0.00    +0.000 A 
ATOM     15  N   UNL     1      46.127   4.431   7.909  0.00  0.00    +0.000 NA
ENDBRANCH   8  10
ENDBRANCH   1   4
BRANCH   1  16
ATOM     16  C   UNL     1      47.802   6.879  12.787  0.00  0.00    +0.000 C 
BRANCH  16  20
ATOM     17  C   UNL     1      47.618   4.598  16.378  0.00  0.00    +0.000 A 
ATOM     18  C   UNL     1      48.302   5.813  16.390  0.00  0.00    +0.000 A 
ATOM     19  C   UNL     1      48.426   6.539  15.204  0.00  0.00    +0.000 A 
ATOM     20  C   UNL     1      47.856   6.035  14.035  0.00  0.00    +0.000 A 
ATOM     21  N   UNL     1      47.221   4.835  13.999  0.00  0.00    +0.000 NA
ATOM     22  C   UNL     1      47.126   4.142  15.163  0.00  0.00    +0.000 A 
BRANCH  17  24
ATOM     23  N   UNL     1      47.934   4.238  18.763  0.00  0.00    +0.000 N 
ATOM     24  C   UNL     1      47.395   3.783  17.590  0.00  0.00    +0.000 C 
ATOM     25  O   UNL     1      46.724   2.758  17.556  0.00  0.00    +0.000 OA
ATOM     26  H   UNL     1      47.678   3.725  19.597  0.00  0.00    +0.000 HD
ATOM     27  H   UNL     1      48.256   5.187  18.881  0.00  0.00    +0.000 HD
ENDBRANCH  17  24
ENDBRANCH  16  20
ENDBRANCH   1  16
TORSDOF 5
ENDMDL
MODEL 5
REMARK VINA RESULT:    -6.948      2.742      4.585
REMARK INTER + INTRA:          -9.742
REMARK INTER:                  -8.839
REMARK INTRA:                  -0.902
REMARK UNBOUND:                -0.763
REMARK  Name = 
REMARK  5 active torsions:
REMARK  status: ('A' for Active; 'I' for Inactive)
REMARK    1  A    between atoms: C_2  and  C_4
REMARK    2  A    between atoms: C_7  and  C_8
REMARK    3  A    between atoms: C_8  and  C_9
REMARK    4  A    between atoms: C_9  and  C_10
REMARK    5  A    between atoms: C_14  and  C_15
REMARK                            x       y       z     vdW  Elec       q    Type
REMARK                         _______ _______ _______ _____ _____    ______ ____
ROOT
ATOM      1  C   UNL     1      47.884   8.019  12.595  0.00  0.00    +0.000 C 
ATOM      2  C   UNL     1      48.617   9.064  11.755  0.00  0.00    +0.000 C 
ATOM      3  C   UNL     1      48.919   7.617  11.545  0.00  0.00    +0.000 C 
ENDROOT
BRANCH   1   4
ATOM      4  C   UNL     1      48.306   7.948  14.059  0.00  0.00    +0.000 A 
ATOM      5  C   UNL     1      48.297   9.082  14.887  0.00  0.00    +0.000 A 
ATOM      6  C   UNL     1      48.473   8.974  16.266  0.00  0.00    +0.000 A 
ATOM      7  C   UNL     1      48.673   7.721  16.844  0.00  0.00    +0.000 A 
ATOM      8  C   UNL     1      48.727   6.562  16.053  0.00  0.00    +0.000 A 
ATOM      9  C   UNL     1      48.589   6.710  14.662  0.00  0.00    +0.000 A 
BRANCH   8  10
ATOM     10  C   UNL     1      48.814   5.218  16.639  0.00  0.00    +0.000 A 
ATOM     11  C   UNL     1      47.717   4.358  16.707  0.00  0.00    +0.000 A 
ATOM     12  N   UNL     1      47.789   3.083  17.168  0.00  0.00    +0.000 NA
ATOM     13  C   UNL     1      49.019   2.688  17.554  0.00  0.00    +0.000 A 
ATOM     14  C   UNL     1      50.120   3.524  17.492  0.00  0.00    +0.000 A 
ATOM     15  N   UNL     1      50.045   4.797  17.036  0.00  0.00    +0.000 NA
ENDBRANCH   8  10
ENDBRANCH   1   4
BRANCH   1  16
ATOM     16  C   UNL     1      46.396   7.917  12.287  0.00  0.00    +0.000 C 
BRANCH  16  20
ATOM     17  C   UNL     1      44.682   4.126  11.384  0.00  0.00    +0.000 A 
ATOM     18  C   UNL     1      44.941   4.444  12.718  0.00  0.00    +0.000 A 
ATOM     19  C   UNL     1      45.563   5.656  13.022  0.00  0.00    +0.000 A 
ATOM     20  C   UNL     1      45.904   6.525  11.985  0.00  0.00    +0.000 A 
ATOM     21  N   UNL     1      45.694   6.212  10.680  0.00  0.00    +0.000 NA
ATOM     22  C   UNL     1      45.100   5.021  10.410  0.00  0.00    +0.000 A 
BRANCH  17  24
ATOM     23  N   UNL     1      44.522   2.186   9.924  0.00  0.00    +0.000 N 
ATOM     24  C   UNL     1      43.987   2.890  10.968  0.00  0.00    +0.000 C 
ATOM     25  O   UNL     1      42.988   2.490  11.556  0.00  0.00    +0.000 OA
ATOM     26  H   UNL     1      44.096   1.290   9.727  0.00  0.00    +0.000 HD
ATOM     27  H   UNL     1      45.465   2.334   9.596  0.00  0.00    +0.000 HD
ENDBRANCH  17  24
ENDBRANCH  16  20
ENDBRANCH   1  16
TORSDOF 5
ENDMDL
MODEL 6
REMARK VINA RESULT:    -6.369      3.344      7.794
REMARK INTER + INTRA:          -8.993
REMARK INTER:                  -8.131
REMARK INTRA:                  -0.862
REMARK UNBOUND:                -0.763
REMARK  Name = 
REMARK  5 active torsions:
REMARK  status: ('A' for Active; 'I' for Inactive)
REMARK    1  A    between atoms: C_2  and  C_4
REMARK    2  A    between atoms: C_7  and  C_8
REMARK    3  A    between atoms: C_8  and  C_9
REMARK    4  A    between atoms: C_9  and  C_10
REMARK    5  A    between atoms: C_14  and  C_15
REMARK                            x       y       z     vdW  Elec       q    Type
REMARK                         _______ _______ _______ _____ _____    ______ ____
ROOT
ATOM      1  C   UNL     1      45.982   7.754  12.057  0.00  0.00    +0.000 C 
ATOM      2  C   UNL     1      45.607   9.111  11.462  0.00  0.00    +0.000 C 
ATOM      3  C   UNL     1      45.256   8.815  12.883  0.00  0.00    +0.000 C 
ENDROOT
BRANCH   1   4
ATOM      4  C   UNL     1      45.158   6.573  11.554  0.00  0.00    +0.000 A 
ATOM      5  C   UNL     1      43.778   6.478  11.793  0.00  0.00    +0.000 A 
ATOM      6  C   UNL     1      42.995   5.518  11.153  0.00  0.00    +0.000 A 
ATOM      7  C   UNL     1      43.586   4.622  10.263  0.00  0.00    +0.000 A 
ATOM      8  C   UNL     1      44.968   4.653  10.020  0.00  0.00    +0.000 A 
ATOM      9  C   UNL     1      45.736   5.605  10.714  0.00  0.00    +0.000 A 
BRANCH   8  10
ATOM     10  C   UNL     1      45.603   3.806   9.001  0.00  0.00    +0.000 A 
ATOM     11  C   UNL     1      45.574   2.412   9.061  0.00  0.00    +0.000 A 
ATOM     12  N   UNL     1      46.080   1.608   8.092  0.00  0.00    +0.000 NA
ATOM     13  C   UNL     1      46.614   2.256   7.038  0.00  0.00    +0.000 A 
ATOM     14  C   UNL     1      46.650   3.637   6.957  0.00  0.00    +0.000 A 
ATOM     15  N   UNL     1      46.148   4.438   7.928  0.00  0.00    +0.000 NA
ENDBRANCH   8  10
ENDBRANCH   1   4
BRANCH   1  16
ATOM     16  C   UNL     1      47.481   7.547  12.217  0.00  0.00    +0.000 C 
BRANCH  16  20
ATOM     17  C   UNL     1      49.065   6.489  16.025  0.00  0.00    +0.000 A 
ATOM     18  C   UNL     1      48.219   5.588  15.377  0.00  0.00    +0.000 A 
ATOM     19  C   UNL     1      47.642   5.950  14.159  0.00  0.00    +0.000 A 
ATOM     20  C   UNL     1      47.929   7.202  13.614  0.00  0.00    +0.000 A 
ATOM     21  N   UNL     1      48.718   8.104  14.252  0.00  0.00    +0.000 NA
ATOM     22  C   UNL     1      49.257   7.733  15.442  0.00  0.00    +0.000 A 
BRANCH  17  24
ATOM     23  N   UNL     1      50.099   4.873  17.521  0.00  0.00    +0.000 N 
ATOM     24  C   UNL     1      49.759   6.178  17.292  0.00  0.00    +0.000 C 
ATOM     25  O   UNL     1      50.051   7.059  18.093  0.00  0.00    +0.000 OA
ATOM     26  H   UNL     1      50.668   4.699  18.339  0.00  0.00    +0.000 HD
ATOM     27  H   UNL     1      50.115   4.179  16.788  0.00  0.00    +0.000 HD
ENDBRANCH  17  24
ENDBRANCH  16  20
ENDBRANCH   1  16
TORSDOF 5
ENDMDL
MODEL 7
REMARK VINA RESULT:    -6.268      3.598      8.052
REMARK INTER + INTRA:          -8.863
REMARK INTER:                  -7.921
REMARK INTRA:                  -0.942
REMARK UNBOUND:                -0.763
REMARK  Name = 
REMARK  5 active torsions:
REMARK  status: ('A' for Active; 'I' for Inactive)
REMARK    1  A    between atoms: C_2  and  C_4
REMARK    2  A    between atoms: C_7  and  C_8
REMARK    3  A    between atoms: C_8  and  C_9
REMARK    4  A    between atoms: C_9  and  C_10
REMARK    5  A    between atoms: C_14  and  C_15
REMARK                            x       y       z     vdW  Elec       q    Type
REMARK                         _______ _______ _______ _____ _____    ______ ____
ROOT
ATOM      1  C   UNL     1      48.531   8.446  12.624  0.00  0.00    +0.000 C 
ATOM      2  C   UNL     1      49.174   9.338  11.562  0.00  0.00    +0.000 C 
ATOM      3  C   UNL     1      48.831   9.920  12.894  0.00  0.00    +0.000 C 
ENDROOT
BRANCH   1   4
ATOM      4  C   UNL     1      47.078   8.063  12.359  0.00  0.00    +0.000 A 
ATOM      5  C   UNL     1      46.028   8.978  12.538  0.00  0.00    +0.000 A 
ATOM      6  C   UNL     1      44.737   8.696  12.092  0.00  0.00    +0.000 A 
ATOM      7  C   UNL     1      44.471   7.480  11.463  0.00  0.00    +0.000 A 
ATOM      8  C   UNL     1      45.479   6.519  11.295  0.00  0.00    +0.000 A 
ATOM      9  C   UNL     1      46.760   6.816  11.794  0.00  0.00    +0.000 A 
BRANCH   8  10
ATOM     10  C   UNL     1      45.263   5.282  10.532  0.00  0.00    +0.000 A 
ATOM     11  C   UNL     1      45.660   5.144   9.201  0.00  0.00    +0.000 A 
ATOM     12  N   UNL     1      45.547   3.989   8.499  0.00  0.00    +0.000 NA
ATOM     13  C   UNL     1      45.024   2.955   9.188  0.00  0.00    +0.000 A 
ATOM     14  C   UNL     1      44.626   3.070  10.509  0.00  0.00    +0.000 A 
ATOM     15  N   UNL     1      44.736   4.226  11.207  0.00  0.00    +0.000 NA
ENDBRANCH   8  10
ENDBRANCH   1   4
BRANCH   1  16
ATOM     16  C   UNL     1      49.456   7.362  13.159  0.00  0.00    +0.000 C 
BRANCH  16  20
ATOM     17  C   UNL     1      48.440   6.375  17.174  0.00  0.00    +0.000 A 
ATOM     18  C   UNL     1      49.145   7.554  16.931  0.00  0.00    +0.000 A 
ATOM     19  C   UNL     1      49.541   7.856  15.627  0.00  0.00    +0.000 A 
ATOM     20  C   UNL     1      49.217   6.975  14.596  0.00  0.00    +0.000 A 
ATOM     21  N   UNL     1      48.566   5.805  14.822  0.00  0.00    +0.000 NA
ATOM     22  C   UNL     1      48.204   5.527  16.101  0.00  0.00    +0.000 A 
BRANCH  17  24
ATOM     23  N   UNL     1      46.674   5.475  18.585  0.00  0.00    +0.000 N 
ATOM     24  C   UNL     1      47.939   5.993  18.510  0.00  0.00    +0.000 C 
ATOM     25  O   UNL     1      48.639   6.102  19.510  0.00  0.00    +0.000 OA
ATOM     26  H   UNL     1      46.393   5.121  19.489  0.00  0.00    +0.000 HD
ATOM     27  H   UNL     1      46.179   5.131  17.775  0.00  0.00    +0.000 HD
ENDBRANCH  17  24
ENDBRANCH  16  20
ENDBRANCH   1  16
TORSDOF 5
ENDMDL
