MODEL 1
REMARK VINA RESULT:    -8.812      0.000      0.000
REMARK INTER + INTRA:         -10.845
REMARK INTER:                 -10.872
REMARK INTRA:                   0.027
REMARK UNBOUND:                 0.027
REMARK  Name = 
REMARK  4 active torsions:
REMARK  status: ('A' for Active; 'I' for Inactive)
REMARK    1  A    between atoms: C_2  and  C_4
REMARK    2  A    between atoms: N_8  and  C_9
REMARK    3  A    between atoms: C_9  and  C_10
REMARK    4  A    between atoms: C_13  and  C_14
REMARK                            x       y       z     vdW  Elec       q    Type
REMARK                         _______ _______ _______ _____ _____    ______ ____
ROOT
ATOM      1  C   UNL     1      44.287   4.470  11.412  0.00  0.00    +0.000 C 
ATOM      2  C   UNL     1      42.775   4.688  11.485  0.00  0.00    +0.000 C 
ATOM      3  C   UNL     1      43.393   3.554  12.225  0.00  0.00    +0.000 C 
ATOM      4  F   UNL     1      43.107   2.289  11.733  0.00  0.00    +0.000 F 
ENDROOT
BRANCH   1   9
ATOM      5  C   UNL     1      47.744   5.324  15.118  0.00  0.00    +0.000 A 
ATOM      6  C   UNL     1      47.874   6.199  14.067  0.00  0.00    +0.000 A 
ATOM      7  N   UNL     1      47.018   6.244  13.026  0.00  0.00    +0.000 NA
ATOM      8  C   UNL     1      46.004   5.360  13.019  0.00  0.00    +0.000 A 
ATOM      9  N   UNL     1      45.085   5.561  11.993  0.00  0.00    +0.000 N 
ATOM     10  N   UNL     1      45.830   4.420  13.961  0.00  0.00    +0.000 NA
ATOM     11  C   UNL     1      46.713   4.420  14.995  0.00  0.00    +0.000 A 
ATOM     12  H   UNL     1      45.530   6.201  11.346  0.00  0.00    +0.000 HD
BRANCH   5  14
ATOM     13  N   UNL     1      48.746   6.514  16.977  0.00  0.00    +0.000 N 
ATOM     14  C   UNL     1      48.626   5.336  16.291  0.00  0.00    +0.000 C 
ATOM     15  O   UNL     1      49.194   4.320  16.668  0.00  0.00    +0.000 OA
ATOM     16  H   UNL     1      49.266   6.479  17.848  0.00  0.00    +0.000 HD
ATOM     17  H   UNL     1      48.114   7.296  16.862  0.00  0.00    +0.000 HD
ENDBRANCH   5  14
ENDBRANCH   1   9
BRANCH   1  18
ATOM     18  C   UNL     1      44.879   3.896  10.129  0.00  0.00    +0.000 A 
ATOM     19  C   UNL     1      45.410   4.744   9.143  0.00  0.00    +0.000 A 
ATOM     20  C   UNL     1      46.060   4.237   8.015  0.00  0.00    +0.000 A 
ATOM     21  C   UNL     1      46.191   2.854   7.834  0.00  0.00    +0.000 A 
ATOM     22  C   UNL     1      45.603   1.996   8.772  0.00  0.00    +0.000 A 
ATOM     23  C   UNL     1      44.950   2.512   9.895  0.00  0.00    +0.000 A 
BRANCH  21  24
ATOM     24  C   UNL     1      46.976   2.287   6.682  0.00  0.00    +0.000 C 
ATOM     25  F   UNL     1      46.869   0.931   6.560  0.00  0.00    +0.000 F 
ATOM     26  F   UNL     1      46.588   2.799   5.482  0.00  0.00    +0.000 F 
ATOM     27  F   UNL     1      48.312   2.542   6.781  0.00  0.00    +0.000 F 
ENDBRANCH  21  24
ENDBRANCH   1  18
TORSDOF 4
ENDMDL
MODEL 2
REMARK VINA RESULT:    -8.716      4.506      6.979
REMARK INTER + INTRA:         -10.727
REMARK INTER:                 -10.310
REMARK INTRA:                  -0.417
REMARK UNBOUND:                 0.027
REMARK  Name = 
REMARK  4 active torsions:
REMARK  status: ('A' for Active; 'I' for Inactive)
REMARK    1  A    between atoms: C_2  and  C_4
REMARK    2  A    between atoms: N_8  and  C_9
REMARK    3  A    between atoms: C_9  and  C_10
REMARK    4  A    between atoms: C_13  and  C_14
REMARK                            x       y       z     vdW  Elec       q    Type
REMARK                         _______ _______ _______ _____ _____    ______ ____
ROOT
ATOM      1  C   UNL     1      43.923   4.939  11.317  0.00  0.00    +0.000 C 
ATOM      2  C   UNL     1      42.641   5.132  12.128  0.00  0.00    +0.000 C 
ATOM      3  C   UNL     1      42.924   6.027  10.974  0.00  0.00    +0.000 C 
ATOM      4  F   UNL     1      43.231   7.342  11.295  0.00  0.00    +0.000 F 
ENDROOT
BRANCH   1   9
ATOM      5  C   UNL     1      46.474   2.674   7.473  0.00  0.00    +0.000 A 
ATOM      6  C   UNL     1      46.053   1.777   8.425  0.00  0.00    +0.000 A 
ATOM      7  N   UNL     1      45.274   2.114   9.473  0.00  0.00    +0.000 NA
ATOM      8  C   UNL     1      44.922   3.407   9.591  0.00  0.00    +0.000 A 
ATOM      9  N   UNL     1      44.005   3.651  10.610  0.00  0.00    +0.000 N 
ATOM     10  N   UNL     1      45.338   4.372   8.757  0.00  0.00    +0.000 NA
ATOM     11  C   UNL     1      46.114   3.981   7.711  0.00  0.00    +0.000 A 
ATOM     12  H   UNL     1      43.992   2.812  11.178  0.00  0.00    +0.000 HD
BRANCH   5  14
ATOM     13  N   UNL     1      47.167   3.100   5.190  0.00  0.00    +0.000 N 
ATOM     14  C   UNL     1      47.248   2.288   6.288  0.00  0.00    +0.000 C 
ATOM     15  O   UNL     1      47.975   1.304   6.298  0.00  0.00    +0.000 OA
ATOM     16  H   UNL     1      47.793   2.886   4.421  0.00  0.00    +0.000 HD
ATOM     17  H   UNL     1      46.792   4.041   5.216  0.00  0.00    +0.000 HD
ENDBRANCH   5  14
ENDBRANCH   1   9
BRANCH   1  18
ATOM     18  C   UNL     1      45.246   5.385  11.930  0.00  0.00    +0.000 A 
ATOM     19  C   UNL     1      46.003   6.407  11.332  0.00  0.00    +0.000 A 
ATOM     20  C   UNL     1      47.158   6.910  11.936  0.00  0.00    +0.000 A 
ATOM     21  C   UNL     1      47.598   6.396  13.163  0.00  0.00    +0.000 A 
ATOM     22  C   UNL     1      46.894   5.328  13.734  0.00  0.00    +0.000 A 
ATOM     23  C   UNL     1      45.743   4.827  13.119  0.00  0.00    +0.000 A 
BRANCH  21  24
ATOM     24  C   UNL     1      48.778   6.991  13.883  0.00  0.00    +0.000 C 
ATOM     25  F   UNL     1      49.111   6.332  15.031  0.00  0.00    +0.000 F 
ATOM     26  F   UNL     1      49.905   7.000  13.120  0.00  0.00    +0.000 F 
ATOM     27  F   UNL     1      48.568   8.287  14.252  0.00  0.00    +0.000 F 
ENDBRANCH  21  24
ENDBRANCH   1  18
TORSDOF 4
ENDMDL
MODEL 3
REMARK VINA RESULT:    -8.710      1.362      1.667
REMARK INTER + INTRA:         -10.721
REMARK INTER:                 -10.648
REMARK INTRA:                  -0.072
REMARK UNBOUND:                 0.027
REMARK  Name = 
REMARK  4 active torsions:
REMARK  status: ('A' for Active; 'I' for Inactive)
REMARK    1  A    between atoms: C_2  and  C_4
REMARK    2  A    between atoms: N_8  and  C_9
REMARK    3  A    between atoms: C_9  and  C_10
REMARK    4  A    between atoms: C_13  and  C_14
REMARK                            x       y       z     vdW  Elec       q    Type
REMARK                         _______ _______ _______ _____ _____    ______ ____
ROOT
ATOM      1  C   UNL     1      44.216   4.763  11.091  0.00  0.00    +0.000 C 
ATOM      2  C   UNL     1      42.693   4.785  11.233  0.00  0.00    +0.000 C 
ATOM      3  C   UNL     1      43.506   3.933  12.143  0.00  0.00    +0.000 C 
ATOM      4  F   UNL     1      43.388   2.565  11.949  0.00  0.00    +0.000 F 
ENDROOT
BRANCH   1   9
ATOM      5  C   UNL     1      48.360   6.690  13.442  0.00  0.00    +0.000 A 
ATOM      6  C   UNL     1      47.932   7.478  12.402  0.00  0.00    +0.000 A 
ATOM      7  N   UNL     1      46.804   7.239  11.702  0.00  0.00    +0.000 NA
ATOM      8  C   UNL     1      46.087   6.151  12.036  0.00  0.00    +0.000 A 
ATOM      9  N   UNL     1      44.869   6.052  11.369  0.00  0.00    +0.000 N 
ATOM     10  N   UNL     1      46.455   5.280  12.987  0.00  0.00    +0.000 NA
ATOM     11  C   UNL     1      47.594   5.569  13.671  0.00  0.00    +0.000 A 
ATOM     12  H   UNL     1      44.915   6.718  10.608  0.00  0.00    +0.000 HD
BRANCH   5  14
ATOM     13  N   UNL     1      50.517   7.770  13.685  0.00  0.00    +0.000 N 
ATOM     14  C   UNL     1      49.540   7.001  14.257  0.00  0.00    +0.000 C 
ATOM     15  O   UNL     1      49.624   6.627  15.419  0.00  0.00    +0.000 OA
ATOM     16  H   UNL     1      51.270   8.072  14.294  0.00  0.00    +0.000 HD
ATOM     17  H   UNL     1      50.382   8.306  12.836  0.00  0.00    +0.000 HD
ENDBRANCH   5  14
ENDBRANCH   1   9
BRANCH   1  18
ATOM     18  C   UNL     1      44.827   4.009   9.915  0.00  0.00    +0.000 A 
ATOM     19  C   UNL     1      45.443   4.705   8.861  0.00  0.00    +0.000 A 
ATOM     20  C   UNL     1      46.109   4.033   7.833  0.00  0.00    +0.000 A 
ATOM     21  C   UNL     1      46.173   2.634   7.824  0.00  0.00    +0.000 A 
ATOM     22  C   UNL     1      45.502   1.926   8.829  0.00  0.00    +0.000 A 
ATOM     23  C   UNL     1      44.832   2.606   9.851  0.00  0.00    +0.000 A 
BRANCH  21  24
ATOM     24  C   UNL     1      46.972   1.893   6.786  0.00  0.00    +0.000 C 
ATOM     25  F   UNL     1      46.673   2.253   5.503  0.00  0.00    +0.000 F 
ATOM     26  F   UNL     1      48.313   2.086   6.922  0.00  0.00    +0.000 F 
ATOM     27  F   UNL     1      46.782   0.544   6.842  0.00  0.00    +0.000 F 
ENDBRANCH  21  24
ENDBRANCH   1  18
TORSDOF 4
ENDMDL
MODEL 4
REMARK VINA RESULT:    -6.324      3.648      5.621
REMARK INTER + INTRA:          -7.776
REMARK INTER:                  -8.016
REMARK INTRA:                   0.239
REMARK UNBOUND:                 0.027
REMARK  Name = 
REMARK  4 active torsions:
REMARK  status: ('A' for Active; 'I' for Inactive)
REMARK    1  A    between atoms: C_2  and  C_4
REMARK    2  A    between atoms: N_8  and  C_9
REMARK    3  A    between atoms: C_9  and  C_10
REMARK    4  A    between atoms: C_13  and  C_14
REMARK                            x       y       z     vdW  Elec       q    Type
REMARK                         _______ _______ _______ _____ _____    ______ ____
ROOT
ATOM      1  C   UNL     1      48.695   7.863  13.094  0.00  0.00    +0.000 C 
ATOM      2  C   UNL     1      49.924   7.395  12.314  0.00  0.00    +0.000 C 
ATOM      3  C   UNL     1      49.514   8.825  12.255  0.00  0.00    +0.000 C 
ATOM      4  F   UNL     1      49.004   9.253  11.039  0.00  0.00    +0.000 F 
ENDROOT
BRANCH   1   9
ATOM      5  C   UNL     1      48.047   4.428  16.862  0.00  0.00    +0.000 A 
ATOM      6  C   UNL     1      49.005   5.365  17.164  0.00  0.00    +0.000 A 
ATOM      7  N   UNL     1      49.279   6.428  16.382  0.00  0.00    +0.000 NA
ATOM      8  C   UNL     1      48.586   6.548  15.235  0.00  0.00    +0.000 A 
ATOM      9  N   UNL     1      48.821   7.740  14.555  0.00  0.00    +0.000 N 
ATOM     10  N   UNL     1      47.681   5.651  14.815  0.00  0.00    +0.000 NA
ATOM     11  C   UNL     1      47.433   4.601  15.642  0.00  0.00    +0.000 A 
ATOM     12  H   UNL     1      49.647   8.143  14.982  0.00  0.00    +0.000 HD
BRANCH   5  14
ATOM     13  N   UNL     1      48.467   3.134  18.868  0.00  0.00    +0.000 N 
ATOM     14  C   UNL     1      47.691   3.321  17.757  0.00  0.00    +0.000 C 
ATOM     15  O   UNL     1      46.709   2.622  17.542  0.00  0.00    +0.000 OA
ATOM     16  H   UNL     1      48.144   2.441  19.535  0.00  0.00    +0.000 HD
ATOM     17  H   UNL     1      49.119   3.826  19.219  0.00  0.00    +0.000 HD
ENDBRANCH   5  14
ENDBRANCH   1   9
BRANCH   1  18
ATOM     18  C   UNL     1      47.313   7.492  12.567  0.00  0.00    +0.000 A 
ATOM     19  C   UNL     1      47.146   6.397  11.702  0.00  0.00    +0.000 A 
ATOM     20  C   UNL     1      45.879   5.970  11.299  0.00  0.00    +0.000 A 
ATOM     21  C   UNL     1      44.731   6.636  11.747  0.00  0.00    +0.000 A 
ATOM     22  C   UNL     1      44.885   7.773  12.550  0.00  0.00    +0.000 A 
ATOM     23  C   UNL     1      46.158   8.197  12.944  0.00  0.00    +0.000 A 
BRANCH  21  24
ATOM     24  C   UNL     1      43.353   6.133  11.410  0.00  0.00    +0.000 C 
ATOM     25  F   UNL     1      42.735   5.492  12.445  0.00  0.00    +0.000 F 
ATOM     26  F   UNL     1      42.508   7.132  11.035  0.00  0.00    +0.000 F 
ATOM     27  F   UNL     1      43.357   5.242  10.378  0.00  0.00    +0.000 F 
ENDBRANCH  21  24
ENDBRANCH   1  18
TORSDOF 4
ENDMDL
MODEL 5
REMARK VINA RESULT:    -6.228      4.202      5.755
REMARK INTER + INTRA:          -7.658
REMARK INTER:                  -7.744
REMARK INTRA:                   0.086
REMARK UNBOUND:                 0.027
REMARK  Name = 
REMARK  4 active torsions:
REMARK  status: ('A' for Active; 'I' for Inactive)
REMARK    1  A    between atoms: C_2  and  C_4
REMARK    2  A    between atoms: N_8  and  C_9
REMARK    3  A    between atoms: C_9  and  C_10
REMARK    4  A    between atoms: C_13  and  C_14
REMARK                            x       y       z     vdW  Elec       q    Type
REMARK                         _______ _______ _______ _____ _____    ______ ____
ROOT
ATOM      1  C   UNL     1      46.007   5.115  12.658  0.00  0.00    +0.000 C 
ATOM      2  C   UNL     1      44.551   4.962  13.098  0.00  0.00    +0.000 C 
ATOM      3  C   UNL     1      44.911   4.776  11.666  0.00  0.00    +0.000 C 
ATOM      4  F   UNL     1      44.462   5.763  10.801  0.00  0.00    +0.000 F 
ENDROOT
BRANCH   1   9
ATOM      5  C   UNL     1      48.330   3.961  17.095  0.00  0.00    +0.000 A 
ATOM      6  C   UNL     1      48.107   2.853  16.315  0.00  0.00    +0.000 A 
ATOM      7  N   UNL     1      47.609   2.912  15.063  0.00  0.00    +0.000 NA
ATOM      8  C   UNL     1      47.294   4.126  14.578  0.00  0.00    +0.000 A 
ATOM      9  N   UNL     1      46.924   4.120  13.236  0.00  0.00    +0.000 N 
ATOM     10  N   UNL     1      47.408   5.262  15.284  0.00  0.00    +0.000 NA
ATOM     11  C   UNL     1      47.923   5.153  16.537  0.00  0.00    +0.000 A 
ATOM     12  H   UNL     1      46.758   3.149  13.000  0.00  0.00    +0.000 HD
BRANCH   5  14
ATOM     13  N   UNL     1      48.376   3.081  19.353  0.00  0.00    +0.000 N 
ATOM     14  C   UNL     1      48.953   3.901  18.422  0.00  0.00    +0.000 C 
ATOM     15  O   UNL     1      49.977   4.525  18.671  0.00  0.00    +0.000 OA
ATOM     16  H   UNL     1      48.880   2.961  20.225  0.00  0.00    +0.000 HD
ATOM     17  H   UNL     1      47.696   2.365  19.124  0.00  0.00    +0.000 HD
ENDBRANCH   5  14
ENDBRANCH   1   9
BRANCH   1  18
ATOM     18  C   UNL     1      46.599   6.518  12.578  0.00  0.00    +0.000 A 
ATOM     19  C   UNL     1      47.876   6.726  12.028  0.00  0.00    +0.000 A 
ATOM     20  C   UNL     1      48.390   8.012  11.839  0.00  0.00    +0.000 A 
ATOM     21  C   UNL     1      47.639   9.136  12.205  0.00  0.00    +0.000 A 
ATOM     22  C   UNL     1      46.396   8.942  12.821  0.00  0.00    +0.000 A 
ATOM     23  C   UNL     1      45.892   7.652  13.012  0.00  0.00    +0.000 A 
BRANCH  21  24
ATOM     24  C   UNL     1      48.127  10.531  11.917  0.00  0.00    +0.000 C 
ATOM     25  F   UNL     1      47.277  11.509  12.343  0.00  0.00    +0.000 F 
ATOM     26  F   UNL     1      49.325  10.797  12.506  0.00  0.00    +0.000 F 
ATOM     27  F   UNL     1      48.309  10.757  10.584  0.00  0.00    +0.000 F 
ENDBRANCH  21  24
ENDBRANCH   1  18
TORSDOF 4
ENDMDL
MODEL 6
REMARK VINA RESULT:    -6.218      5.521      8.548
REMARK INTER + INTRA:          -7.645
REMARK INTER:                  -7.924
REMARK INTRA:                   0.279
REMARK UNBOUND:                 0.027
REMARK  Name = 
REMARK  4 active torsions:
REMARK  status: ('A' for Active; 'I' for Inactive)
REMARK    1  A    between atoms: C_2  and  C_4
REMARK    2  A    between atoms: N_8  and  C_9
REMARK    3  A    between atoms: C_9  and  C_10
REMARK    4  A    between atoms: C_13  and  C_14
REMARK                            x       y       z     vdW  Elec       q    Type
REMARK                         _______ _______ _______ _____ _____    ______ ____
ROOT
ATOM      1  C   UNL     1      48.084   4.695  16.976  0.00  0.00    +0.000 C 
ATOM      2  C   UNL     1      46.783   4.060  17.467  0.00  0.00    +0.000 C 
ATOM      3  C   UNL     1      47.418   5.145  18.262  0.00  0.00    +0.000 C 
ATOM      4  F   UNL     1      47.972   4.758  19.473  0.00  0.00    +0.000 F 
ENDROOT
BRANCH   1   9
ATOM      5  C   UNL     1      45.858   4.250  12.365  0.00  0.00    +0.000 A 
ATOM      6  C   UNL     1      46.045   5.560  12.733  0.00  0.00    +0.000 A 
ATOM      7  N   UNL     1      46.705   5.932  13.849  0.00  0.00    +0.000 NA
ATOM      8  C   UNL     1      47.173   4.955  14.646  0.00  0.00    +0.000 A 
ATOM      9  N   UNL     1      47.963   5.413  15.697  0.00  0.00    +0.000 N 
ATOM     10  N   UNL     1      46.981   3.647  14.413  0.00  0.00    +0.000 NA
ATOM     11  C   UNL     1      46.319   3.322  13.271  0.00  0.00    +0.000 A 
ATOM     12  H   UNL     1      47.808   6.413  15.744  0.00  0.00    +0.000 HD
BRANCH   5  14
ATOM     13  N   UNL     1      44.520   2.672  11.101  0.00  0.00    +0.000 N 
ATOM     14  C   UNL     1      45.216   3.850  11.107  0.00  0.00    +0.000 C 
ATOM     15  O   UNL     1      45.263   4.566  10.115  0.00  0.00    +0.000 OA
ATOM     16  H   UNL     1      43.989   2.464  10.262  0.00  0.00    +0.000 HD
ATOM     17  H   UNL     1      44.242   2.181  11.942  0.00  0.00    +0.000 HD
ENDBRANCH   5  14
ENDBRANCH   1   9
BRANCH   1  18
ATOM     18  C   UNL     1      49.379   3.900  17.111  0.00  0.00    +0.000 A 
ATOM     19  C   UNL     1      50.573   4.537  17.487  0.00  0.00    +0.000 A 
ATOM     20  C   UNL     1      51.743   3.813  17.729  0.00  0.00    +0.000 A 
ATOM     21  C   UNL     1      51.755   2.419  17.591  0.00  0.00    +0.000 A 
ATOM     22  C   UNL     1      50.591   1.779  17.146  0.00  0.00    +0.000 A 
ATOM     23  C   UNL     1      49.426   2.512  16.901  0.00  0.00    +0.000 A 
BRANCH  21  24
ATOM     24  C   UNL     1      52.972   1.608  17.946  0.00  0.00    +0.000 C 
ATOM     25  F   UNL     1      53.970   1.682  17.018  0.00  0.00    +0.000 F 
ATOM     26  F   UNL     1      53.532   1.994  19.125  0.00  0.00    +0.000 F 
ATOM     27  F   UNL     1      52.696   0.279  18.082  0.00  0.00    +0.000 F 
ENDBRANCH  21  24
ENDBRANCH   1  18
TORSDOF 4
ENDMDL
MODEL 7
REMARK VINA RESULT:    -6.194      3.612      5.259
REMARK INTER + INTRA:          -7.615
REMARK INTER:                  -7.790
REMARK INTRA:                   0.175
REMARK UNBOUND:                 0.027
REMARK  Name = 
REMARK  4 active torsions:
REMARK  status: ('A' for Active; 'I' for Inactive)
REMARK    1  A    between atoms: C_2  and  C_4
REMARK    2  A    between atoms: N_8  and  C_9
REMARK    3  A    between atoms: C_9  and  C_10
REMARK    4  A    between atoms: C_13  and  C_14
REMARK                            x       y       z     vdW  Elec       q    Type
REMARK                         _______ _______ _______ _____ _____    ______ ____
ROOT
ATOM      1  C   UNL     1      48.050   7.409  13.437  0.00  0.00    +0.000 C 
ATOM      2  C   UNL     1      49.376   6.869  12.900  0.00  0.00    +0.000 C 
ATOM      3  C   UNL     1      48.837   8.153  12.376  0.00  0.00    +0.000 C 
ATOM      4  F   UNL     1      48.386   8.124  11.065  0.00  0.00    +0.000 F 
ENDROOT
BRANCH   1   9
ATOM      5  C   UNL     1      49.029   5.307  18.024  0.00  0.00    +0.000 A 
ATOM      6  C   UNL     1      49.270   6.659  18.003  0.00  0.00    +0.000 A 
ATOM      7  N   UNL     1      48.987   7.450  16.948  0.00  0.00    +0.000 NA
ATOM      8  C   UNL     1      48.468   6.861  15.855  0.00  0.00    +0.000 A 
ATOM      9  N   UNL     1      48.071   7.757  14.866  0.00  0.00    +0.000 N 
ATOM     10  N   UNL     1      48.261   5.540  15.749  0.00  0.00    +0.000 NA
ATOM     11  C   UNL     1      48.552   4.786  16.842  0.00  0.00    +0.000 A 
ATOM     12  H   UNL     1      48.485   8.647  15.117  0.00  0.00    +0.000 HD
BRANCH   5  14
ATOM     13  N   UNL     1      48.530   3.309  19.304  0.00  0.00    +0.000 N 
ATOM     14  C   UNL     1      49.256   4.465  19.204  0.00  0.00    +0.000 C 
ATOM     15  O   UNL     1      50.097   4.762  20.043  0.00  0.00    +0.000 OA
ATOM     16  H   UNL     1      48.778   2.683  20.062  0.00  0.00    +0.000 HD
ATOM     17  H   UNL     1      48.022   2.899  18.529  0.00  0.00    +0.000 HD
ENDBRANCH   5  14
ENDBRANCH   1   9
BRANCH   1  18
ATOM     18  C   UNL     1      46.756   6.737  12.991  0.00  0.00    +0.000 A 
ATOM     19  C   UNL     1      45.653   7.506  12.582  0.00  0.00    +0.000 A 
ATOM     20  C   UNL     1      44.501   6.913  12.061  0.00  0.00    +0.000 A 
ATOM     21  C   UNL     1      44.413   5.520  11.940  0.00  0.00    +0.000 A 
ATOM     22  C   UNL     1      45.475   4.738  12.410  0.00  0.00    +0.000 A 
ATOM     23  C   UNL     1      46.622   5.339  12.936  0.00  0.00    +0.000 A 
BRANCH  21  24
ATOM     24  C   UNL     1      43.225   4.865  11.287  0.00  0.00    +0.000 C 
ATOM     25  F   UNL     1      42.042   5.495  11.542  0.00  0.00    +0.000 F 
ATOM     26  F   UNL     1      43.335   4.816   9.931  0.00  0.00    +0.000 F 
ATOM     27  F   UNL     1      43.049   3.575  11.693  0.00  0.00    +0.000 F 
ENDBRANCH  21  24
ENDBRANCH   1  18
TORSDOF 4
ENDMDL
