MODEL 1
REMARK VINA RESULT:    -7.418      0.000      0.000
REMARK INTER + INTRA:         -11.295
REMARK INTER:                 -10.020
REMARK INTRA:                  -1.275
REMARK UNBOUND:                -1.275
REMARK  Name = 
REMARK  8 active torsions:
REMARK  status: ('A' for Active; 'I' for Inactive)
REMARK    1  A    between atoms: C_1  and  C_2
REMARK    2  A    between atoms: C_2  and  N_3
REMARK    3  A    between atoms: C_2  and  C_17
REMARK    4  A    between atoms: C_4  and  C_6
REMARK    5  A    between atoms: N_12  and  C_13
REMARK    6  A    between atoms: C_20  and  C_21
REMARK    7  A    between atoms: C_21  and  N_22
REMARK    8  A    between atoms: C_23  and  C_25
REMARK                            x       y       z     vdW  Elec       q    Type
REMARK                         _______ _______ _______ _____ _____    ______ ____
ROOT
ATOM      1  C   UNL     1      47.733   9.189  12.639  0.00  0.00    +0.000 C 
ATOM      2  C   UNL     1      47.401   8.069  13.639  0.00  0.00    +0.000 C 
ENDROOT
BRANCH   2   3
ATOM      3  C   UNL     1      46.548   6.982  12.993  0.00  0.00    +0.000 A 
ATOM      4  C   UNL     1      46.646   5.651  13.427  0.00  0.00    +0.000 A 
ATOM      5  C   UNL     1      45.886   4.643  12.820  0.00  0.00    +0.000 A 
ATOM      6  C   UNL     1      45.019   4.940  11.760  0.00  0.00    +0.000 A 
ATOM      7  C   UNL     1      44.906   6.268  11.339  0.00  0.00    +0.000 A 
ATOM      8  C   UNL     1      45.675   7.270  11.932  0.00  0.00    +0.000 A 
BRANCH   6   9
ATOM      9  C   UNL     1      44.246   3.859  11.054  0.00  0.00    +0.000 C 
BRANCH   9  10
ATOM     10  N   UNL     1      45.060   3.089  10.148  0.00  0.00    +0.000 N 
ATOM     11  C   UNL     1      45.145   3.472   8.826  0.00  0.00    +0.000 C 
ATOM     12  O   UNL     1      44.528   4.440   8.388  0.00  0.00    +0.000 OA
ATOM     13  H   UNL     1      45.658   2.367  10.519  0.00  0.00    +0.000 HD
BRANCH  11  14
ATOM     14  C   UNL     1      46.015   2.660   7.970  0.00  0.00    +0.000 A 
ATOM     15  C   UNL     1      46.274   1.246   8.020  0.00  0.00    +0.000 A 
ATOM     16  C   UNL     1      47.138   0.824   7.032  0.00  0.00    +0.000 A 
ATOM     17  S   UNL     1      47.655   2.109   6.037  0.00  0.00    +0.000 S 
ATOM     18  C   UNL     1      46.721   3.232   6.921  0.00  0.00    +0.000 A 
ENDBRANCH  11  14
ENDBRANCH   9  10
ENDBRANCH   6   9
ENDBRANCH   2   3
BRANCH   2  19
ATOM     19  N   UNL     1      48.593   7.462  14.218  0.00  0.00    +0.000 N 
ATOM     20  C   UNL     1      49.140   7.903  15.405  0.00  0.00    +0.000 C 
ATOM     21  O   UNL     1      48.707   8.872  16.014  0.00  0.00    +0.000 OA
ATOM     22  H   UNL     1      48.843   6.536  13.898  0.00  0.00    +0.000 HD
BRANCH  20  23
ATOM     23  C   UNL     1      50.325   7.175  15.863  0.00  0.00    +0.000 A 
ATOM     24  C   UNL     1      51.629   7.602  15.660  0.00  0.00    +0.000 A 
ATOM     25  S   UNL     1      52.782   6.651  16.493  0.00  0.00    +0.000 S 
ATOM     26  C   UNL     1      51.571   5.642  17.138  0.00  0.00    +0.000 A 
ATOM     27  N   UNL     1      51.873   4.644  18.006  0.00  0.00    +0.000 NA
ATOM     28  C   UNL     1      50.845   3.982  18.433  0.00  0.00    +0.000 A 
ATOM     29  N   UNL     1      49.536   4.192  18.047  0.00  0.00    +0.000 N 
ATOM     30  C   UNL     1      48.476   3.339  18.542  0.00  0.00    +0.000 C 
ATOM     31  C   UNL     1      49.207   5.132  17.072  0.00  0.00    +0.000 A 
ATOM     32  O   UNL     1      48.102   5.175  16.542  0.00  0.00    +0.000 OA
ATOM     33  C   UNL     1      50.319   5.981  16.672  0.00  0.00    +0.000 A 
ENDBRANCH  20  23
ENDBRANCH   2  19
TORSDOF 6
ENDMDL
MODEL 2
REMARK VINA RESULT:    -7.199      1.744      2.057
REMARK INTER + INTRA:         -10.999
REMARK INTER:                 -10.110
REMARK INTRA:                  -0.889
REMARK UNBOUND:                -1.275
REMARK  Name = 
REMARK  8 active torsions:
REMARK  status: ('A' for Active; 'I' for Inactive)
REMARK    1  A    between atoms: C_1  and  C_2
REMARK    2  A    between atoms: C_2  and  N_3
REMARK    3  A    between atoms: C_2  and  C_17
REMARK    4  A    between atoms: C_4  and  C_6
REMARK    5  A    between atoms: N_12  and  C_13
REMARK    6  A    between atoms: C_20  and  C_21
REMARK    7  A    between atoms: C_21  and  N_22
REMARK    8  A    between atoms: C_23  and  C_25
REMARK                            x       y       z     vdW  Elec       q    Type
REMARK                         _______ _______ _______ _____ _____    ______ ____
ROOT
ATOM      1  C   UNL     1      49.260   7.911  13.074  0.00  0.00    +0.000 C 
ATOM      2  C   UNL     1      47.858   7.920  13.706  0.00  0.00    +0.000 C 
ENDROOT
BRANCH   2   3
ATOM      3  C   UNL     1      46.943   6.896  13.042  0.00  0.00    +0.000 A 
ATOM      4  C   UNL     1      46.856   5.589  13.546  0.00  0.00    +0.000 A 
ATOM      5  C   UNL     1      46.038   4.636  12.925  0.00  0.00    +0.000 A 
ATOM      6  C   UNL     1      45.297   4.964  11.783  0.00  0.00    +0.000 A 
ATOM      7  C   UNL     1      45.367   6.270  11.290  0.00  0.00    +0.000 A 
ATOM      8  C   UNL     1      46.194   7.216  11.899  0.00  0.00    +0.000 A 
BRANCH   6   9
ATOM      9  C   UNL     1      44.466   3.935  11.065  0.00  0.00    +0.000 C 
BRANCH   9  10
ATOM     10  N   UNL     1      45.227   3.164  10.114  0.00  0.00    +0.000 N 
ATOM     11  C   UNL     1      45.271   3.572   8.797  0.00  0.00    +0.000 C 
ATOM     12  O   UNL     1      44.660   4.562   8.403  0.00  0.00    +0.000 OA
ATOM     13  H   UNL     1      45.821   2.422  10.448  0.00  0.00    +0.000 HD
BRANCH  11  14
ATOM     14  C   UNL     1      46.089   2.758   7.893  0.00  0.00    +0.000 A 
ATOM     15  C   UNL     1      46.403   1.356   7.969  0.00  0.00    +0.000 A 
ATOM     16  C   UNL     1      47.188   0.925   6.921  0.00  0.00    +0.000 A 
ATOM     17  S   UNL     1      47.564   2.188   5.837  0.00  0.00    +0.000 S 
ATOM     18  C   UNL     1      46.675   3.313   6.765  0.00  0.00    +0.000 A 
ENDBRANCH  11  14
ENDBRANCH   9  10
ENDBRANCH   6   9
ENDBRANCH   2   3
BRANCH   2  19
ATOM     19  N   UNL     1      47.889   7.674  15.143  0.00  0.00    +0.000 N 
ATOM     20  C   UNL     1      48.434   8.577  16.031  0.00  0.00    +0.000 C 
ATOM     21  O   UNL     1      48.988   9.608  15.672  0.00  0.00    +0.000 OA
ATOM     22  H   UNL     1      47.252   6.978  15.507  0.00  0.00    +0.000 HD
BRANCH  20  23
ATOM     23  C   UNL     1      48.370   8.193  17.443  0.00  0.00    +0.000 A 
ATOM     24  C   UNL     1      47.902   9.017  18.455  0.00  0.00    +0.000 A 
ATOM     25  S   UNL     1      47.754   8.212  19.958  0.00  0.00    +0.000 S 
ATOM     26  C   UNL     1      48.319   6.748  19.297  0.00  0.00    +0.000 A 
ATOM     27  N   UNL     1      48.379   5.615  20.041  0.00  0.00    +0.000 NA
ATOM     28  C   UNL     1      48.802   4.576  19.393  0.00  0.00    +0.000 A 
ATOM     29  N   UNL     1      49.213   4.562  18.075  0.00  0.00    +0.000 N 
ATOM     30  C   UNL     1      49.732   3.350  17.478  0.00  0.00    +0.000 C 
ATOM     31  C   UNL     1      49.272   5.732  17.319  0.00  0.00    +0.000 A 
ATOM     32  O   UNL     1      49.850   5.792  16.240  0.00  0.00    +0.000 OA
ATOM     33  C   UNL     1      48.679   6.888  17.974  0.00  0.00    +0.000 A 
ENDBRANCH  20  23
ENDBRANCH   2  19
TORSDOF 6
ENDMDL
MODEL 3
REMARK VINA RESULT:    -7.159      2.594      3.636
REMARK INTER + INTRA:         -10.945
REMARK INTER:                  -9.893
REMARK INTRA:                  -1.052
REMARK UNBOUND:                -1.275
REMARK  Name = 
REMARK  8 active torsions:
REMARK  status: ('A' for Active; 'I' for Inactive)
REMARK    1  A    between atoms: C_1  and  C_2
REMARK    2  A    between atoms: C_2  and  N_3
REMARK    3  A    between atoms: C_2  and  C_17
REMARK    4  A    between atoms: C_4  and  C_6
REMARK    5  A    between atoms: N_12  and  C_13
REMARK    6  A    between atoms: C_20  and  C_21
REMARK    7  A    between atoms: C_21  and  N_22
REMARK    8  A    between atoms: C_23  and  C_25
REMARK                            x       y       z     vdW  Elec       q    Type
REMARK                         _______ _______ _______ _____ _____    ______ ____
ROOT
ATOM      1  C   UNL     1      47.155   4.338  16.331  0.00  0.00    +0.000 C 
ATOM      2  C   UNL     1      47.647   5.053  15.062  0.00  0.00    +0.000 C 
ENDROOT
BRANCH   2   3
ATOM      3  C   UNL     1      46.673   4.862  13.904  0.00  0.00    +0.000 A 
ATOM      4  C   UNL     1      46.363   3.573  13.442  0.00  0.00    +0.000 A 
ATOM      5  C   UNL     1      45.491   3.391  12.361  0.00  0.00    +0.000 A 
ATOM      6  C   UNL     1      44.916   4.491  11.712  0.00  0.00    +0.000 A 
ATOM      7  C   UNL     1      45.208   5.775  12.182  0.00  0.00    +0.000 A 
ATOM      8  C   UNL     1      46.090   5.957  13.248  0.00  0.00    +0.000 A 
BRANCH   6   9
ATOM      9  C   UNL     1      44.029   4.316  10.508  0.00  0.00    +0.000 C 
BRANCH   9  10
ATOM     10  N   UNL     1      44.638   3.514   9.477  0.00  0.00    +0.000 N 
ATOM     11  C   UNL     1      45.568   4.089   8.636  0.00  0.00    +0.000 C 
ATOM     12  O   UNL     1      45.878   5.275   8.724  0.00  0.00    +0.000 OA
ATOM     13  H   UNL     1      44.477   2.519   9.471  0.00  0.00    +0.000 HD
BRANCH  11  14
ATOM     14  C   UNL     1      46.167   3.206   7.631  0.00  0.00    +0.000 A 
ATOM     15  C   UNL     1      46.549   3.503   6.276  0.00  0.00    +0.000 A 
ATOM     16  C   UNL     1      47.109   2.422   5.629  0.00  0.00    +0.000 A 
ATOM     17  S   UNL     1      47.179   1.040   6.627  0.00  0.00    +0.000 S 
ATOM     18  C   UNL     1      46.466   1.885   7.928  0.00  0.00    +0.000 A 
ENDBRANCH  11  14
ENDBRANCH   9  10
ENDBRANCH   6   9
ENDBRANCH   2   3
BRANCH   2  19
ATOM     19  N   UNL     1      47.868   6.478  15.271  0.00  0.00    +0.000 N 
ATOM     20  C   UNL     1      49.104   6.986  15.614  0.00  0.00    +0.000 C 
ATOM     21  O   UNL     1      50.076   6.276  15.835  0.00  0.00    +0.000 OA
ATOM     22  H   UNL     1      47.188   7.115  14.880  0.00  0.00    +0.000 HD
BRANCH  20  23
ATOM     23  C   UNL     1      49.168   8.442  15.769  0.00  0.00    +0.000 A 
ATOM     24  C   UNL     1      49.615   9.311  14.786  0.00  0.00    +0.000 A 
ATOM     25  S   UNL     1      49.372  10.957  15.187  0.00  0.00    +0.000 S 
ATOM     26  C   UNL     1      48.672  10.550  16.684  0.00  0.00    +0.000 A 
ATOM     27  N   UNL     1      48.175  11.503  17.513  0.00  0.00    +0.000 NA
ATOM     28  C   UNL     1      47.649  11.038  18.602  0.00  0.00    +0.000 A 
ATOM     29  N   UNL     1      47.604   9.707  18.969  0.00  0.00    +0.000 N 
ATOM     30  C   UNL     1      47.049   9.315  20.247  0.00  0.00    +0.000 C 
ATOM     31  C   UNL     1      48.207   8.717  18.195  0.00  0.00    +0.000 A 
ATOM     32  O   UNL     1      48.390   7.577  18.606  0.00  0.00    +0.000 OA
ATOM     33  C   UNL     1      48.687   9.189  16.905  0.00  0.00    +0.000 A 
ENDBRANCH  20  23
ENDBRANCH   2  19
TORSDOF 6
ENDMDL
MODEL 4
REMARK VINA RESULT:    -7.120      1.612      2.391
REMARK INTER + INTRA:         -10.892
REMARK INTER:                 -10.052
REMARK INTRA:                  -0.840
REMARK UNBOUND:                -1.275
REMARK  Name = 
REMARK  8 active torsions:
REMARK  status: ('A' for Active; 'I' for Inactive)
REMARK    1  A    between atoms: C_1  and  C_2
REMARK    2  A    between atoms: C_2  and  N_3
REMARK    3  A    between atoms: C_2  and  C_17
REMARK    4  A    between atoms: C_4  and  C_6
REMARK    5  A    between atoms: N_12  and  C_13
REMARK    6  A    between atoms: C_20  and  C_21
REMARK    7  A    between atoms: C_21  and  N_22
REMARK    8  A    between atoms: C_23  and  C_25
REMARK                            x       y       z     vdW  Elec       q    Type
REMARK                         _______ _______ _______ _____ _____    ______ ____
ROOT
ATOM      1  C   UNL     1      49.090   8.027  13.084  0.00  0.00    +0.000 C 
ATOM      2  C   UNL     1      47.936   7.452  13.922  0.00  0.00    +0.000 C 
ENDROOT
BRANCH   2   3
ATOM      3  C   UNL     1      46.883   6.791  13.038  0.00  0.00    +0.000 A 
ATOM      4  C   UNL     1      46.689   5.401  13.083  0.00  0.00    +0.000 A 
ATOM      5  C   UNL     1      45.744   4.784  12.254  0.00  0.00    +0.000 A 
ATOM      6  C   UNL     1      44.977   5.539  11.357  0.00  0.00    +0.000 A 
ATOM      7  C   UNL     1      45.155   6.925  11.324  0.00  0.00    +0.000 A 
ATOM      8  C   UNL     1      46.109   7.538  12.137  0.00  0.00    +0.000 A 
BRANCH   6   9
ATOM      9  C   UNL     1      44.005   4.884  10.413  0.00  0.00    +0.000 C 
BRANCH   9  10
ATOM     10  N   UNL     1      44.604   3.829   9.634  0.00  0.00    +0.000 N 
ATOM     11  C   UNL     1      45.527   4.150   8.662  0.00  0.00    +0.000 C 
ATOM     12  O   UNL     1      45.839   5.314   8.421  0.00  0.00    +0.000 OA
ATOM     13  H   UNL     1      44.442   2.871   9.901  0.00  0.00    +0.000 HD
BRANCH  11  14
ATOM     14  C   UNL     1      46.117   3.025   7.930  0.00  0.00    +0.000 A 
ATOM     15  C   UNL     1      46.860   3.034   6.699  0.00  0.00    +0.000 A 
ATOM     16  C   UNL     1      47.284   1.778   6.320  0.00  0.00    +0.000 A 
ATOM     17  S   UNL     1      46.793   0.573   7.424  0.00  0.00    +0.000 S 
ATOM     18  C   UNL     1      46.019   1.729   8.414  0.00  0.00    +0.000 A 
ENDBRANCH  11  14
ENDBRANCH   9  10
ENDBRANCH   6   9
ENDBRANCH   2   3
BRANCH   2  19
ATOM     19  N   UNL     1      48.391   6.494  14.922  0.00  0.00    +0.000 N 
ATOM     20  C   UNL     1      48.652   6.862  16.226  0.00  0.00    +0.000 C 
ATOM     21  O   UNL     1      48.588   8.021  16.613  0.00  0.00    +0.000 OA
ATOM     22  H   UNL     1      48.234   5.514  14.730  0.00  0.00    +0.000 HD
BRANCH  20  23
ATOM     23  C   UNL     1      49.083   5.779  17.113  0.00  0.00    +0.000 A 
ATOM     24  C   UNL     1      48.216   4.921  17.773  0.00  0.00    +0.000 A 
ATOM     25  S   UNL     1      49.022   3.635  18.564  0.00  0.00    +0.000 S 
ATOM     26  C   UNL     1      50.546   4.197  18.053  0.00  0.00    +0.000 A 
ATOM     27  N   UNL     1      51.682   3.510  18.335  0.00  0.00    +0.000 NA
ATOM     28  C   UNL     1      52.759   4.046  17.856  0.00  0.00    +0.000 A 
ATOM     29  N   UNL     1      52.823   5.232  17.151  0.00  0.00    +0.000 N 
ATOM     30  C   UNL     1      54.099   5.768  16.725  0.00  0.00    +0.000 C 
ATOM     31  C   UNL     1      51.690   6.018  16.945  0.00  0.00    +0.000 A 
ATOM     32  O   UNL     1      51.753   7.173  16.539  0.00  0.00    +0.000 OA
ATOM     33  C   UNL     1      50.448   5.380  17.353  0.00  0.00    +0.000 A 
ENDBRANCH  20  23
ENDBRANCH   2  19
TORSDOF 6
ENDMDL
MODEL 5
REMARK VINA RESULT:    -7.082      2.212      4.174
REMARK INTER + INTRA:         -10.841
REMARK INTER:                  -9.451
REMARK INTRA:                  -1.390
REMARK UNBOUND:                -1.275
REMARK  Name = 
REMARK  8 active torsions:
REMARK  status: ('A' for Active; 'I' for Inactive)
REMARK    1  A    between atoms: C_1  and  C_2
REMARK    2  A    between atoms: C_2  and  N_3
REMARK    3  A    between atoms: C_2  and  C_17
REMARK    4  A    between atoms: C_4  and  C_6
REMARK    5  A    between atoms: N_12  and  C_13
REMARK    6  A    between atoms: C_20  and  C_21
REMARK    7  A    between atoms: C_21  and  N_22
REMARK    8  A    between atoms: C_23  and  C_25
REMARK                            x       y       z     vdW  Elec       q    Type
REMARK                         _______ _______ _______ _____ _____    ______ ____
ROOT
ATOM      1  C   UNL     1      47.141   4.043  16.592  0.00  0.00    +0.000 C 
ATOM      2  C   UNL     1      47.660   4.784  15.349  0.00  0.00    +0.000 C 
ENDROOT
BRANCH   2   3
ATOM      3  C   UNL     1      46.706   4.624  14.169  0.00  0.00    +0.000 A 
ATOM      4  C   UNL     1      46.509   3.365  13.581  0.00  0.00    +0.000 A 
ATOM      5  C   UNL     1      45.657   3.216  12.480  0.00  0.00    +0.000 A 
ATOM      6  C   UNL     1      44.988   4.321  11.937  0.00  0.00    +0.000 A 
ATOM      7  C   UNL     1      45.167   5.572  12.534  0.00  0.00    +0.000 A 
ATOM      8  C   UNL     1      46.029   5.725  13.620  0.00  0.00    +0.000 A 
BRANCH   6   9
ATOM      9  C   UNL     1      44.120   4.189  10.714  0.00  0.00    +0.000 C 
BRANCH   9  10
ATOM     10  N   UNL     1      44.741   3.415   9.668  0.00  0.00    +0.000 N 
ATOM     11  C   UNL     1      45.536   4.052   8.739  0.00  0.00    +0.000 C 
ATOM     12  O   UNL     1      45.715   5.268   8.761  0.00  0.00    +0.000 OA
ATOM     13  H   UNL     1      44.694   2.409   9.710  0.00  0.00    +0.000 HD
BRANCH  11  14
ATOM     14  C   UNL     1      46.158   3.198   7.723  0.00  0.00    +0.000 A 
ATOM     15  C   UNL     1      46.592   3.539   6.395  0.00  0.00    +0.000 A 
ATOM     16  C   UNL     1      47.159   2.474   5.727  0.00  0.00    +0.000 A 
ATOM     17  S   UNL     1      47.174   1.055   6.674  0.00  0.00    +0.000 S 
ATOM     18  C   UNL     1      46.428   1.862   7.980  0.00  0.00    +0.000 A 
ENDBRANCH  11  14
ENDBRANCH   9  10
ENDBRANCH   6   9
ENDBRANCH   2   3
BRANCH   2  19
ATOM     19  N   UNL     1      47.884   6.203  15.595  0.00  0.00    +0.000 N 
ATOM     20  C   UNL     1      49.122   6.701  15.943  0.00  0.00    +0.000 C 
ATOM     21  O   UNL     1      50.095   5.984  16.138  0.00  0.00    +0.000 OA
ATOM     22  H   UNL     1      47.202   6.851  15.225  0.00  0.00    +0.000 HD
BRANCH  20  23
ATOM     23  C   UNL     1      49.189   8.151  16.136  0.00  0.00    +0.000 A 
ATOM     24  C   UNL     1      49.309   8.769  17.372  0.00  0.00    +0.000 A 
ATOM     25  S   UNL     1      49.573  10.456  17.254  0.00  0.00    +0.000 S 
ATOM     26  C   UNL     1      49.525  10.404  15.552  0.00  0.00    +0.000 A 
ATOM     27  N   UNL     1      49.748  11.515  14.806  0.00  0.00    +0.000 NA
ATOM     28  C   UNL     1      49.707  11.314  13.527  0.00  0.00    +0.000 A 
ATOM     29  N   UNL     1      49.422  10.111  12.912  0.00  0.00    +0.000 N 
ATOM     30  C   UNL     1      49.337  10.024  11.469  0.00  0.00    +0.000 C 
ATOM     31  C   UNL     1      49.075   8.979  13.649  0.00  0.00    +0.000 A 
ATOM     32  O   UNL     1      48.591   7.978  13.134  0.00  0.00    +0.000 OA
ATOM     33  C   UNL     1      49.243   9.138  15.086  0.00  0.00    +0.000 A 
ENDBRANCH  20  23
ENDBRANCH   2  19
TORSDOF 6
ENDMDL
MODEL 6
REMARK VINA RESULT:    -6.736      4.713      8.158
REMARK INTER + INTRA:         -10.373
REMARK INTER:                  -9.149
REMARK INTRA:                  -1.224
REMARK UNBOUND:                -1.275
REMARK  Name = 
REMARK  8 active torsions:
REMARK  status: ('A' for Active; 'I' for Inactive)
REMARK    1  A    between atoms: C_1  and  C_2
REMARK    2  A    between atoms: C_2  and  N_3
REMARK    3  A    between atoms: C_2  and  C_17
REMARK    4  A    between atoms: C_4  and  C_6
REMARK    5  A    between atoms: N_12  and  C_13
REMARK    6  A    between atoms: C_20  and  C_21
REMARK    7  A    between atoms: C_21  and  N_22
REMARK    8  A    between atoms: C_23  and  C_25
REMARK                            x       y       z     vdW  Elec       q    Type
REMARK                         _______ _______ _______ _____ _____    ______ ____
ROOT
ATOM      1  C   UNL     1      45.690   9.160  13.099  0.00  0.00    +0.000 C 
ATOM      2  C   UNL     1      46.243   8.452  11.851  0.00  0.00    +0.000 C 
ENDROOT
BRANCH   2   3
ATOM      3  C   UNL     1      47.762   8.567  11.774  0.00  0.00    +0.000 A 
ATOM      4  C   UNL     1      48.372   9.823  11.629  0.00  0.00    +0.000 A 
ATOM      5  C   UNL     1      49.765   9.934  11.530  0.00  0.00    +0.000 A 
ATOM      6  C   UNL     1      50.579   8.794  11.566  0.00  0.00    +0.000 A 
ATOM      7  C   UNL     1      49.974   7.545  11.731  0.00  0.00    +0.000 A 
ATOM      8  C   UNL     1      48.586   7.432  11.812  0.00  0.00    +0.000 A 
BRANCH   6   9
ATOM      9  C   UNL     1      52.071   8.891  11.395  0.00  0.00    +0.000 C 
BRANCH   9  10
ATOM     10  N   UNL     1      52.618   7.801  10.626  0.00  0.00    +0.000 N 
ATOM     11  C   UNL     1      52.876   7.986   9.284  0.00  0.00    +0.000 C 
ATOM     12  O   UNL     1      52.632   9.047   8.715  0.00  0.00    +0.000 OA
ATOM     13  H   UNL     1      52.928   6.971  11.106  0.00  0.00    +0.000 HD
BRANCH  11  14
ATOM     14  C   UNL     1      53.460   6.845   8.573  0.00  0.00    +0.000 A 
ATOM     15  C   UNL     1      53.145   6.332   7.267  0.00  0.00    +0.000 A 
ATOM     16  C   UNL     1      53.922   5.250   6.914  0.00  0.00    +0.000 A 
ATOM     17  S   UNL     1      55.034   4.829   8.138  0.00  0.00    +0.000 S 
ATOM     18  C   UNL     1      54.481   6.096   9.140  0.00  0.00    +0.000 A 
ENDBRANCH  11  14
ENDBRANCH   9  10
ENDBRANCH   6   9
ENDBRANCH   2   3
BRANCH   2  19
ATOM     19  N   UNL     1      45.866   7.045  11.790  0.00  0.00    +0.000 N 
ATOM     20  C   UNL     1      44.614   6.638  11.378  0.00  0.00    +0.000 C 
ATOM     21  O   UNL     1      43.717   7.425  11.105  0.00  0.00    +0.000 OA
ATOM     22  H   UNL     1      46.614   6.366  11.770  0.00  0.00    +0.000 HD
BRANCH  20  23
ATOM     23  C   UNL     1      44.398   5.189  11.353  0.00  0.00    +0.000 A 
ATOM     24  C   UNL     1      43.701   4.488  12.325  0.00  0.00    +0.000 A 
ATOM     25  S   UNL     1      43.438   2.849  11.908  0.00  0.00    +0.000 S 
ATOM     26  C   UNL     1      44.254   3.034  10.425  0.00  0.00    +0.000 A 
ATOM     27  N   UNL     1      44.339   2.013   9.534  0.00  0.00    +0.000 NA
ATOM     28  C   UNL     1      44.964   2.313   8.441  0.00  0.00    +0.000 A 
ATOM     29  N   UNL     1      45.555   3.530   8.159  0.00  0.00    +0.000 N 
ATOM     30  C   UNL     1      46.288   3.724   6.926  0.00  0.00    +0.000 C 
ATOM     31  C   UNL     1      45.584   4.559   9.099  0.00  0.00    +0.000 A 
ATOM     32  O   UNL     1      46.297   5.548   8.972  0.00  0.00    +0.000 OA
ATOM     33  C   UNL     1      44.777   4.301  10.282  0.00  0.00    +0.000 A 
ENDBRANCH  20  23
ENDBRANCH   2  19
TORSDOF 6
ENDMDL
MODEL 7
REMARK VINA RESULT:    -6.638      4.186      9.310
REMARK INTER + INTRA:         -10.241
REMARK INTER:                 -10.003
REMARK INTRA:                  -0.238
REMARK UNBOUND:                -1.275
REMARK  Name = 
REMARK  8 active torsions:
REMARK  status: ('A' for Active; 'I' for Inactive)
REMARK    1  A    between atoms: C_1  and  C_2
REMARK    2  A    between atoms: C_2  and  N_3
REMARK    3  A    between atoms: C_2  and  C_17
REMARK    4  A    between atoms: C_4  and  C_6
REMARK    5  A    between atoms: N_12  and  C_13
REMARK    6  A    between atoms: C_20  and  C_21
REMARK    7  A    between atoms: C_21  and  N_22
REMARK    8  A    between atoms: C_23  and  C_25
REMARK                            x       y       z     vdW  Elec       q    Type
REMARK                         _______ _______ _______ _____ _____    ______ ____
ROOT
ATOM      1  C   UNL     1      46.900   2.973  17.394  0.00  0.00    +0.000 C 
ATOM      2  C   UNL     1      47.775   4.236  17.346  0.00  0.00    +0.000 C 
ENDROOT
BRANCH   2   3
ATOM      3  C   UNL     1      49.257   3.890  17.459  0.00  0.00    +0.000 A 
ATOM      4  C   UNL     1      49.690   2.564  17.302  0.00  0.00    +0.000 A 
ATOM      5  C   UNL     1      51.046   2.235  17.432  0.00  0.00    +0.000 A 
ATOM      6  C   UNL     1      51.996   3.220  17.731  0.00  0.00    +0.000 A 
ATOM      7  C   UNL     1      51.569   4.544  17.869  0.00  0.00    +0.000 A 
ATOM      8  C   UNL     1      50.217   4.870  17.756  0.00  0.00    +0.000 A 
BRANCH   6   9
ATOM      9  C   UNL     1      53.446   2.872  17.939  0.00  0.00    +0.000 C 
BRANCH   9  10
ATOM     10  N   UNL     1      53.795   1.582  17.402  0.00  0.00    +0.000 N 
ATOM     11  C   UNL     1      54.245   0.595  18.254  0.00  0.00    +0.000 C 
ATOM     12  O   UNL     1      54.381   0.790  19.460  0.00  0.00    +0.000 OA
ATOM     13  H   UNL     1      53.579   1.377  16.438  0.00  0.00    +0.000 HD
BRANCH  11  14
ATOM     14  C   UNL     1      54.553  -0.701  17.641  0.00  0.00    +0.000 A 
ATOM     15  C   UNL     1      54.851  -1.007  16.268  0.00  0.00    +0.000 A 
ATOM     16  C   UNL     1      55.115  -2.344  16.062  0.00  0.00    +0.000 A 
ATOM     17  S   UNL     1      55.004  -3.251  17.503  0.00  0.00    +0.000 S 
ATOM     18  C   UNL     1      54.608  -1.857  18.406  0.00  0.00    +0.000 A 
ENDBRANCH  11  14
ENDBRANCH   9  10
ENDBRANCH   6   9
ENDBRANCH   2   3
BRANCH   2  19
ATOM     19  N   UNL     1      47.559   5.023  16.138  0.00  0.00    +0.000 N 
ATOM     20  C   UNL     1      47.413   4.438  14.897  0.00  0.00    +0.000 C 
ATOM     21  O   UNL     1      47.524   3.233  14.714  0.00  0.00    +0.000 OA
ATOM     22  H   UNL     1      47.226   5.970  16.256  0.00  0.00    +0.000 HD
BRANCH  20  23
ATOM     23  C   UNL     1      47.182   5.364  13.786  0.00  0.00    +0.000 A 
ATOM     24  C   UNL     1      47.978   6.465  13.510  0.00  0.00    +0.000 A 
ATOM     25  S   UNL     1      47.578   7.226  12.030  0.00  0.00    +0.000 S 
ATOM     26  C   UNL     1      46.328   6.111  11.726  0.00  0.00    +0.000 A 
ATOM     27  N   UNL     1      45.611   6.151  10.575  0.00  0.00    +0.000 NA
ATOM     28  C   UNL     1      44.715   5.222  10.474  0.00  0.00    +0.000 A 
ATOM     29  N   UNL     1      44.431   4.270  11.434  0.00  0.00    +0.000 N 
ATOM     30  C   UNL     1      43.356   3.322  11.236  0.00  0.00    +0.000 C 
ATOM     31  C   UNL     1      45.071   4.273  12.673  0.00  0.00    +0.000 A 
ATOM     32  O   UNL     1      44.678   3.601  13.620  0.00  0.00    +0.000 OA
ATOM     33  C   UNL     1      46.173   5.219  12.765  0.00  0.00    +0.000 A 
ENDBRANCH  20  23
ENDBRANCH   2  19
TORSDOF 6
ENDMDL
MODEL 8
REMARK VINA RESULT:    -5.940      4.136      8.985
REMARK INTER + INTRA:          -9.298
REMARK INTER:                  -8.780
REMARK INTRA:                  -0.518
REMARK UNBOUND:                -1.275
REMARK  Name = 
REMARK  8 active torsions:
REMARK  status: ('A' for Active; 'I' for Inactive)
REMARK    1  A    between atoms: C_1  and  C_2
REMARK    2  A    between atoms: C_2  and  N_3
REMARK    3  A    between atoms: C_2  and  C_17
REMARK    4  A    between atoms: C_4  and  C_6
REMARK    5  A    between atoms: N_12  and  C_13
REMARK    6  A    between atoms: C_20  and  C_21
REMARK    7  A    between atoms: C_21  and  N_22
REMARK    8  A    between atoms: C_23  and  C_25
REMARK                            x       y       z     vdW  Elec       q    Type
REMARK                         _______ _______ _______ _____ _____    ______ ____
ROOT
ATOM      1  C   UNL     1      46.764   2.912  17.593  0.00  0.00    +0.000 C 
ATOM      2  C   UNL     1      47.631   4.168  17.412  0.00  0.00    +0.000 C 
ENDROOT
BRANCH   2   3
ATOM      3  C   UNL     1      49.117   3.830  17.467  0.00  0.00    +0.000 A 
ATOM      4  C   UNL     1      49.550   2.505  17.300  0.00  0.00    +0.000 A 
ATOM      5  C   UNL     1      50.911   2.183  17.377  0.00  0.00    +0.000 A 
ATOM      6  C   UNL     1      51.869   3.174  17.631  0.00  0.00    +0.000 A 
ATOM      7  C   UNL     1      51.441   4.496  17.778  0.00  0.00    +0.000 A 
ATOM      8  C   UNL     1      50.084   4.816  17.718  0.00  0.00    +0.000 A 
BRANCH   6   9
ATOM      9  C   UNL     1      53.327   2.834  17.782  0.00  0.00    +0.000 C 
BRANCH   9  10
ATOM     10  N   UNL     1      53.571   1.414  17.813  0.00  0.00    +0.000 N 
ATOM     11  C   UNL     1      54.567   0.883  17.020  0.00  0.00    +0.000 C 
ATOM     12  O   UNL     1      55.241   1.583  16.268  0.00  0.00    +0.000 OA
ATOM     13  H   UNL     1      53.105   0.852  18.508  0.00  0.00    +0.000 HD
BRANCH  11  14
ATOM     14  C   UNL     1      54.779  -0.563  17.126  0.00  0.00    +0.000 A 
ATOM     15  C   UNL     1      55.320  -1.474  16.153  0.00  0.00    +0.000 A 
ATOM     16  C   UNL     1      55.392  -2.771  16.615  0.00  0.00    +0.000 A 
ATOM     17  S   UNL     1      54.810  -2.918  18.212  0.00  0.00    +0.000 S 
ATOM     18  C   UNL     1      54.465  -1.248  18.291  0.00  0.00    +0.000 A 
ENDBRANCH  11  14
ENDBRANCH   9  10
ENDBRANCH   6   9
ENDBRANCH   2   3
BRANCH   2  19
ATOM     19  N   UNL     1      47.346   4.872  16.167  0.00  0.00    +0.000 N 
ATOM     20  C   UNL     1      47.302   4.224  14.951  0.00  0.00    +0.000 C 
ATOM     21  O   UNL     1      47.566   3.035  14.823  0.00  0.00    +0.000 OA
ATOM     22  H   UNL     1      46.896   5.775  16.238  0.00  0.00    +0.000 HD
BRANCH  20  23
ATOM     23  C   UNL     1      46.983   5.067  13.796  0.00  0.00    +0.000 A 
ATOM     24  C   UNL     1      45.975   4.793  12.885  0.00  0.00    +0.000 A 
ATOM     25  S   UNL     1      45.712   6.068  11.775  0.00  0.00    +0.000 S 
ATOM     26  C   UNL     1      46.942   7.013  12.478  0.00  0.00    +0.000 A 
ATOM     27  N   UNL     1      47.201   8.272  12.042  0.00  0.00    +0.000 NA
ATOM     28  C   UNL     1      48.144   8.876  12.692  0.00  0.00    +0.000 A 
ATOM     29  N   UNL     1      48.890   8.331  13.718  0.00  0.00    +0.000 N 
ATOM     30  C   UNL     1      49.968   9.082  14.325  0.00  0.00    +0.000 C 
ATOM     31  C   UNL     1      48.726   7.003  14.112  0.00  0.00    +0.000 A 
ATOM     32  O   UNL     1      49.524   6.428  14.844  0.00  0.00    +0.000 OA
ATOM     33  C   UNL     1      47.587   6.342  13.494  0.00  0.00    +0.000 A 
ENDBRANCH  20  23
ENDBRANCH   2  19
TORSDOF 6
ENDMDL
MODEL 9
REMARK VINA RESULT:    -5.816      3.253      3.977
REMARK INTER + INTRA:          -9.131
REMARK INTER:                  -8.670
REMARK INTRA:                  -0.461
REMARK UNBOUND:                -1.275
REMARK  Name = 
REMARK  8 active torsions:
REMARK  status: ('A' for Active; 'I' for Inactive)
REMARK    1  A    between atoms: C_1  and  C_2
REMARK    2  A    between atoms: C_2  and  N_3
REMARK    3  A    between atoms: C_2  and  C_17
REMARK    4  A    between atoms: C_4  and  C_6
REMARK    5  A    between atoms: N_12  and  C_13
REMARK    6  A    between atoms: C_20  and  C_21
REMARK    7  A    between atoms: C_21  and  N_22
REMARK    8  A    between atoms: C_23  and  C_25
REMARK                            x       y       z     vdW  Elec       q    Type
REMARK                         _______ _______ _______ _____ _____    ______ ____
ROOT
ATOM      1  C   UNL     1      46.376   9.275  13.208  0.00  0.00    +0.000 C 
ATOM      2  C   UNL     1      46.979   7.920  13.612  0.00  0.00    +0.000 C 
ENDROOT
BRANCH   2   3
ATOM      3  C   UNL     1      46.204   6.761  12.994  0.00  0.00    +0.000 A 
ATOM      4  C   UNL     1      46.620   5.437  13.204  0.00  0.00    +0.000 A 
ATOM      5  C   UNL     1      45.930   4.368  12.617  0.00  0.00    +0.000 A 
ATOM      6  C   UNL     1      44.815   4.599  11.800  0.00  0.00    +0.000 A 
ATOM      7  C   UNL     1      44.387   5.915  11.606  0.00  0.00    +0.000 A 
ATOM      8  C   UNL     1      45.084   6.981  12.177  0.00  0.00    +0.000 A 
BRANCH   6   9
ATOM      9  C   UNL     1      44.103   3.467  11.109  0.00  0.00    +0.000 C 
BRANCH   9  10
ATOM     10  N   UNL     1      44.938   2.777  10.158  0.00  0.00    +0.000 N 
ATOM     11  C   UNL     1      45.108   3.311   8.898  0.00  0.00    +0.000 C 
ATOM     12  O   UNL     1      44.549   4.349   8.551  0.00  0.00    +0.000 OA
ATOM     13  H   UNL     1      45.489   1.993  10.469  0.00  0.00    +0.000 HD
BRANCH  11  14
ATOM     14  C   UNL     1      45.994   2.572   7.995  0.00  0.00    +0.000 A 
ATOM     15  C   UNL     1      46.330   1.174   7.997  0.00  0.00    +0.000 A 
ATOM     16  C   UNL     1      47.185   0.826   6.973  0.00  0.00    +0.000 A 
ATOM     17  S   UNL     1      47.603   2.165   6.001  0.00  0.00    +0.000 S 
ATOM     18  C   UNL     1      46.637   3.211   6.944  0.00  0.00    +0.000 A 
ENDBRANCH  11  14
ENDBRANCH   9  10
ENDBRANCH   6   9
ENDBRANCH   2   3
BRANCH   2  19
ATOM     19  N   UNL     1      48.386   7.802  13.251  0.00  0.00    +0.000 N 
ATOM     20  C   UNL     1      48.929   8.482  12.181  0.00  0.00    +0.000 C 
ATOM     21  O   UNL     1      48.258   9.171  11.424  0.00  0.00    +0.000 OA
ATOM     22  H   UNL     1      49.018   7.453  13.959  0.00  0.00    +0.000 HD
BRANCH  20  23
ATOM     23  C   UNL     1      50.362   8.273  11.961  0.00  0.00    +0.000 A 
ATOM     24  C   UNL     1      50.893   7.586  10.880  0.00  0.00    +0.000 A 
ATOM     25  S   UNL     1      52.599   7.693  10.791  0.00  0.00    +0.000 S 
ATOM     26  C   UNL     1      52.671   8.651  12.197  0.00  0.00    +0.000 A 
ATOM     27  N   UNL     1      53.848   9.151  12.651  0.00  0.00    +0.000 NA
ATOM     28  C   UNL     1      53.740   9.883  13.714  0.00  0.00    +0.000 A 
ATOM     29  N   UNL     1      52.568  10.137  14.400  0.00  0.00    +0.000 N 
ATOM     30  C   UNL     1      52.584  10.917  15.619  0.00  0.00    +0.000 C 
ATOM     31  C   UNL     1      51.363   9.545  14.027  0.00  0.00    +0.000 A 
ATOM     32  O   UNL     1      50.370   9.558  14.745  0.00  0.00    +0.000 OA
ATOM     33  C   UNL     1      51.426   8.827  12.762  0.00  0.00    +0.000 A 
ENDBRANCH  20  23
ENDBRANCH   2  19
TORSDOF 6
ENDMDL
