MODEL 1
REMARK VINA RESULT:    -7.858      0.000      0.000
REMARK INTER + INTRA:         -11.639
REMARK INTER:                 -10.384
REMARK INTRA:                  -1.255
REMARK UNBOUND:                -1.255
REMARK  Name = 
REMARK  6 active torsions:
REMARK  status: ('A' for Active; 'I' for Inactive)
REMARK    1  A    between atoms: N_1  and  C_2
REMARK    2  A    between atoms: C_2  and  N_3
REMARK    3  A    between atoms: C_2  and  C_16
REMARK    4  A    between atoms: C_4  and  C_6
REMARK    5  A    between atoms: C_19  and  C_20
REMARK    6  A    between atoms: C_20  and  N_21
REMARK                            x       y       z     vdW  Elec       q    Type
REMARK                         _______ _______ _______ _____ _____    ______ ____
ROOT
ATOM      1  C   UNL     1      47.854   8.224  13.785  0.00  0.00    +0.000 C 
ENDROOT
BRANCH   1   2
ATOM      2  C   UNL     1      46.750   7.477  13.058  0.00  0.00    +0.000 A 
ATOM      3  C   UNL     1      46.579   6.101  13.270  0.00  0.00    +0.000 A 
ATOM      4  C   UNL     1      45.549   5.395  12.635  0.00  0.00    +0.000 A 
ATOM      5  C   UNL     1      44.669   6.043  11.758  0.00  0.00    +0.000 A 
ATOM      6  C   UNL     1      44.829   7.418  11.548  0.00  0.00    +0.000 A 
ATOM      7  C   UNL     1      45.861   8.124  12.181  0.00  0.00    +0.000 A 
BRANCH   5   8
ATOM      8  C   UNL     1      43.574   5.279  11.056  0.00  0.00    +0.000 C 
BRANCH   8   9
ATOM      9  N   UNL     1      44.040   4.667   9.830  0.00  0.00    +0.000 N 
ATOM     10  C   UNL     1      44.432   3.350   9.839  0.00  0.00    +0.000 C 
ATOM     11  O   UNL     1      44.428   2.679  10.865  0.00  0.00    +0.000 OA
ATOM     12  N   UNL     1      44.813   2.848   8.603  0.00  0.00    +0.000 N 
ATOM     13  C   UNL     1      45.096   1.417   8.468  0.00  0.00    +0.000 C 
ATOM     14  C   UNL     1      46.556   1.172   8.094  0.00  0.00    +0.000 C 
ATOM     15  C   UNL     1      46.959   1.983   6.864  0.00  0.00    +0.000 C 
ATOM     16  C   UNL     1      46.621   3.462   7.053  0.00  0.00    +0.000 C 
ATOM     17  C   UNL     1      45.153   3.654   7.430  0.00  0.00    +0.000 C 
ATOM     18  H   UNL     1      43.535   4.937   9.002  0.00  0.00    +0.000 HD
ENDBRANCH   8   9
ENDBRANCH   5   8
ENDBRANCH   1   2
BRANCH   1  19
ATOM     19  N   UNL     1      48.003   7.760  15.131  0.00  0.00    +0.000 N 
ATOM     20  C   UNL     1      49.113   8.029  15.888  0.00  0.00    +0.000 C 
ATOM     21  O   UNL     1      50.035   8.727  15.476  0.00  0.00    +0.000 OA
ATOM     22  H   UNL     1      47.415   6.979  15.399  0.00  0.00    +0.000 HD
BRANCH  20  23
ATOM     23  C   UNL     1      49.102   7.518  17.266  0.00  0.00    +0.000 A 
ATOM     24  C   UNL     1      49.320   8.394  18.322  0.00  0.00    +0.000 A 
ATOM     25  S   UNL     1      49.214   7.656  19.856  0.00  0.00    +0.000 S 
ATOM     26  C   UNL     1      48.930   6.129  19.162  0.00  0.00    +0.000 A 
ATOM     27  N   UNL     1      48.775   5.023  19.939  0.00  0.00    +0.000 NA
ATOM     28  C   UNL     1      48.603   3.927  19.280  0.00  0.00    +0.000 A 
ATOM     29  N   UNL     1      48.562   3.836  17.913  0.00  0.00    +0.000 N 
ATOM     30  C   UNL     1      48.669   4.931  17.090  0.00  0.00    +0.000 A 
ATOM     31  O   UNL     1      48.559   4.831  15.872  0.00  0.00    +0.000 OA
ATOM     32  C   UNL     1      48.891   6.186  17.779  0.00  0.00    +0.000 A 
ATOM     33  H   UNL     1      48.407   2.949  17.458  0.00  0.00    +0.000 HD
ENDBRANCH  20  23
ENDBRANCH   1  19
BRANCH   1  34
ATOM     34  N   UNL     1      47.558   9.638  13.906  0.00  0.00    +0.000 NA
ATOM     35  H   UNL     1      48.454  10.120  13.952  0.00  0.00    +0.000 HD
ATOM     36  H   UNL     1      47.119   9.790  14.809  0.00  0.00    +0.000 HD
ENDBRANCH   1  34
TORSDOF 6
ENDMDL
MODEL 2
REMARK VINA RESULT:    -7.599      1.635      2.257
REMARK INTER + INTRA:         -11.298
REMARK INTER:                 -10.181
REMARK INTRA:                  -1.117
REMARK UNBOUND:                -1.255
REMARK  Name = 
REMARK  6 active torsions:
REMARK  status: ('A' for Active; 'I' for Inactive)
REMARK    1  A    between atoms: N_1  and  C_2
REMARK    2  A    between atoms: C_2  and  N_3
REMARK    3  A    between atoms: C_2  and  C_16
REMARK    4  A    between atoms: C_4  and  C_6
REMARK    5  A    between atoms: C_19  and  C_20
REMARK    6  A    between atoms: C_20  and  N_21
REMARK                            x       y       z     vdW  Elec       q    Type
REMARK                         _______ _______ _______ _____ _____    ______ ____
ROOT
ATOM      1  C   UNL     1      48.737   6.877  14.248  0.00  0.00    +0.000 C 
ENDROOT
BRANCH   1   2
ATOM      2  C   UNL     1      47.551   6.495  13.381  0.00  0.00    +0.000 A 
ATOM      3  C   UNL     1      46.697   5.457  13.783  0.00  0.00    +0.000 A 
ATOM      4  C   UNL     1      45.579   5.105  13.016  0.00  0.00    +0.000 A 
ATOM      5  C   UNL     1      45.290   5.772  11.818  0.00  0.00    +0.000 A 
ATOM      6  C   UNL     1      46.134   6.814  11.415  0.00  0.00    +0.000 A 
ATOM      7  C   UNL     1      47.254   7.165  12.180  0.00  0.00    +0.000 A 
BRANCH   5   8
ATOM      8  C   UNL     1      44.099   5.378  10.979  0.00  0.00    +0.000 C 
BRANCH   8   9
ATOM      9  N   UNL     1      44.494   4.730   9.747  0.00  0.00    +0.000 N 
ATOM     10  C   UNL     1      44.781   3.387   9.753  0.00  0.00    +0.000 C 
ATOM     11  O   UNL     1      44.743   2.719  10.780  0.00  0.00    +0.000 OA
ATOM     12  N   UNL     1      45.099   2.855   8.512  0.00  0.00    +0.000 N 
ATOM     13  C   UNL     1      45.267   1.406   8.376  0.00  0.00    +0.000 C 
ATOM     14  C   UNL     1      46.696   1.046   7.976  0.00  0.00    +0.000 C 
ATOM     15  C   UNL     1      47.140   1.822   6.737  0.00  0.00    +0.000 C 
ATOM     16  C   UNL     1      46.923   3.322   6.929  0.00  0.00    +0.000 C 
ATOM     17  C   UNL     1      45.481   3.630   7.331  0.00  0.00    +0.000 C 
ATOM     18  H   UNL     1      43.997   5.038   8.927  0.00  0.00    +0.000 HD
ENDBRANCH   8   9
ENDBRANCH   5   8
ENDBRANCH   1   2
BRANCH   1  19
ATOM     19  N   UNL     1      48.453   6.692  15.638  0.00  0.00    +0.000 N 
ATOM     20  C   UNL     1      49.413   6.337  16.550  0.00  0.00    +0.000 C 
ATOM     21  O   UNL     1      50.593   6.201  16.241  0.00  0.00    +0.000 OA
ATOM     22  H   UNL     1      47.480   6.527  15.875  0.00  0.00    +0.000 HD
BRANCH  20  23
ATOM     23  C   UNL     1      48.974   6.223  17.948  0.00  0.00    +0.000 A 
ATOM     24  C   UNL     1      49.156   5.025  18.627  0.00  0.00    +0.000 A 
ATOM     25  S   UNL     1      48.650   5.078  20.255  0.00  0.00    +0.000 S 
ATOM     26  C   UNL     1      48.117   6.685  20.094  0.00  0.00    +0.000 A 
ATOM     27  N   UNL     1      47.538   7.340  21.136  0.00  0.00    +0.000 NA
ATOM     28  C   UNL     1      47.148   8.540  20.864  0.00  0.00    +0.000 A 
ATOM     29  N   UNL     1      47.294   9.149  19.645  0.00  0.00    +0.000 N 
ATOM     30  C   UNL     1      47.913   8.544  18.578  0.00  0.00    +0.000 A 
ATOM     31  O   UNL     1      48.093   9.139  17.520  0.00  0.00    +0.000 OA
ATOM     32  C   UNL     1      48.345   7.183  18.823  0.00  0.00    +0.000 A 
ATOM     33  H   UNL     1      46.982  10.098  19.501  0.00  0.00    +0.000 HD
ENDBRANCH  20  23
ENDBRANCH   1  19
BRANCH   1  34
ATOM     34  N   UNL     1      49.068   8.283  14.118  0.00  0.00    +0.000 NA
ATOM     35  H   UNL     1      49.965   8.415  14.582  0.00  0.00    +0.000 HD
ATOM     36  H   UNL     1      48.397   8.815  14.662  0.00  0.00    +0.000 HD
ENDBRANCH   1  34
TORSDOF 6
ENDMDL
MODEL 3
REMARK VINA RESULT:    -7.092      4.950      9.803
REMARK INTER + INTRA:         -10.627
REMARK INTER:                  -9.799
REMARK INTRA:                  -0.828
REMARK UNBOUND:                -1.255
REMARK  Name = 
REMARK  6 active torsions:
REMARK  status: ('A' for Active; 'I' for Inactive)
REMARK    1  A    between atoms: N_1  and  C_2
REMARK    2  A    between atoms: C_2  and  N_3
REMARK    3  A    between atoms: C_2  and  C_16
REMARK    4  A    between atoms: C_4  and  C_6
REMARK    5  A    between atoms: C_19  and  C_20
REMARK    6  A    between atoms: C_20  and  N_21
REMARK                            x       y       z     vdW  Elec       q    Type
REMARK                         _______ _______ _______ _____ _____    ______ ____
ROOT
ATOM      1  C   UNL     1      47.556   3.348  16.938  0.00  0.00    +0.000 C 
ENDROOT
BRANCH   1   2
ATOM      2  C   UNL     1      49.044   3.192  17.198  0.00  0.00    +0.000 A 
ATOM      3  C   UNL     1      49.778   4.264  17.728  0.00  0.00    +0.000 A 
ATOM      4  C   UNL     1      51.145   4.136  18.006  0.00  0.00    +0.000 A 
ATOM      5  C   UNL     1      51.821   2.936  17.749  0.00  0.00    +0.000 A 
ATOM      6  C   UNL     1      51.093   1.859  17.227  0.00  0.00    +0.000 A 
ATOM      7  C   UNL     1      49.726   1.987  16.946  0.00  0.00    +0.000 A 
BRANCH   5   8
ATOM      8  C   UNL     1      53.298   2.804  18.026  0.00  0.00    +0.000 C 
BRANCH   8   9
ATOM      9  N   UNL     1      53.644   1.482  18.502  0.00  0.00    +0.000 N 
ATOM     10  C   UNL     1      54.418   0.662  17.717  0.00  0.00    +0.000 C 
ATOM     11  O   UNL     1      54.804   1.004  16.605  0.00  0.00    +0.000 OA
ATOM     12  N   UNL     1      54.734  -0.562  18.288  0.00  0.00    +0.000 N 
ATOM     13  C   UNL     1      55.683  -1.446  17.607  0.00  0.00    +0.000 C 
ATOM     14  C   UNL     1      55.017  -2.751  17.177  0.00  0.00    +0.000 C 
ATOM     15  C   UNL     1      54.302  -3.423  18.348  0.00  0.00    +0.000 C 
ATOM     16  C   UNL     1      53.344  -2.449  19.032  0.00  0.00    +0.000 C 
ATOM     17  C   UNL     1      54.056  -1.160  19.438  0.00  0.00    +0.000 C 
ATOM     18  H   UNL     1      53.859   1.428  19.485  0.00  0.00    +0.000 HD
ENDBRANCH   8   9
ENDBRANCH   5   8
ENDBRANCH   1   2
BRANCH   1  19
ATOM     19  N   UNL     1      47.297   4.374  15.976  0.00  0.00    +0.000 N 
ATOM     20  C   UNL     1      47.232   4.128  14.629  0.00  0.00    +0.000 C 
ATOM     21  O   UNL     1      47.346   2.998  14.163  0.00  0.00    +0.000 OA
ATOM     22  H   UNL     1      47.468   5.325  16.283  0.00  0.00    +0.000 HD
BRANCH  20  23
ATOM     23  C   UNL     1      46.917   5.277  13.770  0.00  0.00    +0.000 A 
ATOM     24  C   UNL     1      47.855   6.291  13.612  0.00  0.00    +0.000 A 
ATOM     25  S   UNL     1      47.359   7.519  12.537  0.00  0.00    +0.000 S 
ATOM     26  C   UNL     1      45.852   6.770  12.289  0.00  0.00    +0.000 A 
ATOM     27  N   UNL     1      44.915   7.332  11.479  0.00  0.00    +0.000 NA
ATOM     28  C   UNL     1      43.805   6.676  11.411  0.00  0.00    +0.000 A 
ATOM     29  N   UNL     1      43.551   5.503  12.072  0.00  0.00    +0.000 N 
ATOM     30  C   UNL     1      44.482   4.876  12.864  0.00  0.00    +0.000 A 
ATOM     31  O   UNL     1      44.252   3.791  13.388  0.00  0.00    +0.000 OA
ATOM     32  C   UNL     1      45.739   5.586  12.997  0.00  0.00    +0.000 A 
ATOM     33  H   UNL     1      42.666   5.029  11.964  0.00  0.00    +0.000 HD
ENDBRANCH  20  23
ENDBRANCH   1  19
BRANCH   1  34
ATOM     34  N   UNL     1      46.842   3.762  18.130  0.00  0.00    +0.000 NA
ATOM     35  H   UNL     1      47.488   4.332  18.673  0.00  0.00    +0.000 HD
ATOM     36  H   UNL     1      46.667   2.936  18.693  0.00  0.00    +0.000 HD
ENDBRANCH   1  34
TORSDOF 6
ENDMDL
MODEL 4
REMARK VINA RESULT:    -6.762      3.668      5.130
REMARK INTER + INTRA:         -10.191
REMARK INTER:                  -8.982
REMARK INTRA:                  -1.210
REMARK UNBOUND:                -1.255
REMARK  Name = 
REMARK  6 active torsions:
REMARK  status: ('A' for Active; 'I' for Inactive)
REMARK    1  A    between atoms: N_1  and  C_2
REMARK    2  A    between atoms: C_2  and  N_3
REMARK    3  A    between atoms: C_2  and  C_16
REMARK    4  A    between atoms: C_4  and  C_6
REMARK    5  A    between atoms: C_19  and  C_20
REMARK    6  A    between atoms: C_20  and  N_21
REMARK                            x       y       z     vdW  Elec       q    Type
REMARK                         _______ _______ _______ _____ _____    ______ ____
ROOT
ATOM      1  C   UNL     1      48.869   7.112  14.583  0.00  0.00    +0.000 C 
ENDROOT
BRANCH   1   2
ATOM      2  C   UNL     1      47.693   6.722  13.705  0.00  0.00    +0.000 A 
ATOM      3  C   UNL     1      47.188   7.634  12.766  0.00  0.00    +0.000 A 
ATOM      4  C   UNL     1      46.124   7.288  11.924  0.00  0.00    +0.000 A 
ATOM      5  C   UNL     1      45.526   6.023  12.004  0.00  0.00    +0.000 A 
ATOM      6  C   UNL     1      46.030   5.105  12.934  0.00  0.00    +0.000 A 
ATOM      7  C   UNL     1      47.092   5.452  13.779  0.00  0.00    +0.000 A 
BRANCH   5   8
ATOM      8  C   UNL     1      44.365   5.657  11.113  0.00  0.00    +0.000 C 
BRANCH   8   9
ATOM      9  N   UNL     1      44.801   5.021   9.888  0.00  0.00    +0.000 N 
ATOM     10  C   UNL     1      44.803   3.650   9.803  0.00  0.00    +0.000 C 
ATOM     11  O   UNL     1      44.473   2.940  10.747  0.00  0.00    +0.000 OA
ATOM     12  N   UNL     1      45.190   3.144   8.571  0.00  0.00    +0.000 N 
ATOM     13  C   UNL     1      45.075   1.705   8.320  0.00  0.00    +0.000 C 
ATOM     14  C   UNL     1      46.444   1.071   8.083  0.00  0.00    +0.000 C 
ATOM     15  C   UNL     1      47.220   1.812   6.996  0.00  0.00    +0.000 C 
ATOM     16  C   UNL     1      47.289   3.308   7.299  0.00  0.00    +0.000 C 
ATOM     17  C   UNL     1      45.896   3.894   7.532  0.00  0.00    +0.000 C 
ATOM     18  H   UNL     1      44.507   5.482   9.043  0.00  0.00    +0.000 HD
ENDBRANCH   8   9
ENDBRANCH   5   8
ENDBRANCH   1   2
BRANCH   1  19
ATOM     19  N   UNL     1      50.053   7.328  13.810  0.00  0.00    +0.000 N 
ATOM     20  C   UNL     1      50.714   8.529  13.787  0.00  0.00    +0.000 C 
ATOM     21  O   UNL     1      50.360   9.486  14.468  0.00  0.00    +0.000 OA
ATOM     22  H   UNL     1      50.211   6.677  13.048  0.00  0.00    +0.000 HD
BRANCH  20  23
ATOM     23  C   UNL     1      51.938   8.583  12.976  0.00  0.00    +0.000 A 
ATOM     24  C   UNL     1      53.092   9.140  13.514  0.00  0.00    +0.000 A 
ATOM     25  S   UNL     1      54.437   9.072  12.468  0.00  0.00    +0.000 S 
ATOM     26  C   UNL     1      53.512   8.348  11.237  0.00  0.00    +0.000 A 
ATOM     27  N   UNL     1      54.064   8.043  10.032  0.00  0.00    +0.000 NA
ATOM     28  C   UNL     1      53.239   7.533   9.180  0.00  0.00    +0.000 A 
ATOM     29  N   UNL     1      51.914   7.288   9.428  0.00  0.00    +0.000 N 
ATOM     30  C   UNL     1      51.324   7.537  10.644  0.00  0.00    +0.000 A 
ATOM     31  O   UNL     1      50.153   7.243  10.860  0.00  0.00    +0.000 OA
ATOM     32  C   UNL     1      52.201   8.138  11.629  0.00  0.00    +0.000 A 
ATOM     33  H   UNL     1      51.325   6.870   8.723  0.00  0.00    +0.000 HD
ENDBRANCH  20  23
ENDBRANCH   1  19
BRANCH   1  34
ATOM     34  N   UNL     1      49.217   6.059  15.516  0.00  0.00    +0.000 NA
ATOM     35  H   UNL     1      50.226   6.104  15.643  0.00  0.00    +0.000 HD
ATOM     36  H   UNL     1      49.038   5.168  15.063  0.00  0.00    +0.000 HD
ENDBRANCH   1  34
TORSDOF 6
ENDMDL
MODEL 5
REMARK VINA RESULT:    -6.656      4.062      9.179
REMARK INTER + INTRA:         -10.051
REMARK INTER:                  -8.834
REMARK INTRA:                  -1.218
REMARK UNBOUND:                -1.255
REMARK  Name = 
REMARK  6 active torsions:
REMARK  status: ('A' for Active; 'I' for Inactive)
REMARK    1  A    between atoms: N_1  and  C_2
REMARK    2  A    between atoms: C_2  and  N_3
REMARK    3  A    between atoms: C_2  and  C_16
REMARK    4  A    between atoms: C_4  and  C_6
REMARK    5  A    between atoms: C_19  and  C_20
REMARK    6  A    between atoms: C_20  and  N_21
REMARK                            x       y       z     vdW  Elec       q    Type
REMARK                         _______ _______ _______ _____ _____    ______ ____
ROOT
ATOM      1  C   UNL     1      48.190   7.016  13.844  0.00  0.00    +0.000 C 
ENDROOT
BRANCH   1   2
ATOM      2  C   UNL     1      48.603   6.293  15.114  0.00  0.00    +0.000 A 
ATOM      3  C   UNL     1      47.873   5.179  15.554  0.00  0.00    +0.000 A 
ATOM      4  C   UNL     1      48.251   4.477  16.705  0.00  0.00    +0.000 A 
ATOM      5  C   UNL     1      49.363   4.877  17.458  0.00  0.00    +0.000 A 
ATOM      6  C   UNL     1      50.101   5.984  17.021  0.00  0.00    +0.000 A 
ATOM      7  C   UNL     1      49.722   6.689  15.870  0.00  0.00    +0.000 A 
BRANCH   5   8
ATOM      8  C   UNL     1      49.759   4.136  18.712  0.00  0.00    +0.000 C 
BRANCH   8   9
ATOM      9  N   UNL     1      51.186   3.907  18.779  0.00  0.00    +0.000 N 
ATOM     10  C   UNL     1      51.726   2.816  18.143  0.00  0.00    +0.000 C 
ATOM     11  O   UNL     1      51.030   2.006  17.540  0.00  0.00    +0.000 OA
ATOM     12  N   UNL     1      53.107   2.718  18.226  0.00  0.00    +0.000 N 
ATOM     13  C   UNL     1      53.799   1.684  17.453  0.00  0.00    +0.000 C 
ATOM     14  C   UNL     1      54.499   0.680  18.366  0.00  0.00    +0.000 C 
ATOM     15  C   UNL     1      55.405   1.384  19.376  0.00  0.00    +0.000 C 
ATOM     16  C   UNL     1      54.635   2.464  20.136  0.00  0.00    +0.000 C 
ATOM     17  C   UNL     1      53.951   3.439  19.179  0.00  0.00    +0.000 C 
ATOM     18  H   UNL     1      51.753   4.738  18.716  0.00  0.00    +0.000 HD
ENDBRANCH   8   9
ENDBRANCH   5   8
ENDBRANCH   1   2
BRANCH   1  19
ATOM     19  N   UNL     1      47.401   6.176  12.996  0.00  0.00    +0.000 N 
ATOM     20  C   UNL     1      46.590   6.673  12.009  0.00  0.00    +0.000 C 
ATOM     21  O   UNL     1      46.524   7.872  11.755  0.00  0.00    +0.000 OA
ATOM     22  H   UNL     1      47.220   5.240  13.341  0.00  0.00    +0.000 HD
BRANCH  20  23
ATOM     23  C   UNL     1      45.873   5.682  11.194  0.00  0.00    +0.000 A 
ATOM     24  C   UNL     1      45.964   5.739   9.809  0.00  0.00    +0.000 A 
ATOM     25  S   UNL     1      45.124   4.485   9.016  0.00  0.00    +0.000 S 
ATOM     26  C   UNL     1      44.561   3.854  10.492  0.00  0.00    +0.000 A 
ATOM     27  N   UNL     1      43.745   2.767  10.524  0.00  0.00    +0.000 NA
ATOM     28  C   UNL     1      43.365   2.419  11.708  0.00  0.00    +0.000 A 
ATOM     29  N   UNL     1      43.736   3.053  12.864  0.00  0.00    +0.000 N 
ATOM     30  C   UNL     1      44.594   4.126  12.884  0.00  0.00    +0.000 A 
ATOM     31  O   UNL     1      44.964   4.632  13.938  0.00  0.00    +0.000 OA
ATOM     32  C   UNL     1      45.029   4.576  11.577  0.00  0.00    +0.000 A 
ATOM     33  H   UNL     1      43.416   2.720  13.762  0.00  0.00    +0.000 HD
ENDBRANCH  20  23
ENDBRANCH   1  19
BRANCH   1  34
ATOM     34  N   UNL     1      49.337   7.389  13.040  0.00  0.00    +0.000 NA
ATOM     35  H   UNL     1      49.084   8.246  12.552  0.00  0.00    +0.000 HD
ATOM     36  H   UNL     1      49.454   6.687  12.316  0.00  0.00    +0.000 HD
ENDBRANCH   1  34
TORSDOF 6
ENDMDL
MODEL 6
REMARK VINA RESULT:    -6.643      1.708      1.913
REMARK INTER + INTRA:         -10.034
REMARK INTER:                  -8.801
REMARK INTRA:                  -1.233
REMARK UNBOUND:                -1.255
REMARK  Name = 
REMARK  6 active torsions:
REMARK  status: ('A' for Active; 'I' for Inactive)
REMARK    1  A    between atoms: N_1  and  C_2
REMARK    2  A    between atoms: C_2  and  N_3
REMARK    3  A    between atoms: C_2  and  C_16
REMARK    4  A    between atoms: C_4  and  C_6
REMARK    5  A    between atoms: C_19  and  C_20
REMARK    6  A    between atoms: C_20  and  N_21
REMARK                            x       y       z     vdW  Elec       q    Type
REMARK                         _______ _______ _______ _____ _____    ______ ____
ROOT
ATOM      1  C   UNL     1      50.293   7.685  13.887  0.00  0.00    +0.000 C 
ENDROOT
BRANCH   1   2
ATOM      2  C   UNL     1      48.974   7.392  13.194  0.00  0.00    +0.000 A 
ATOM      3  C   UNL     1      47.803   7.247  13.953  0.00  0.00    +0.000 A 
ATOM      4  C   UNL     1      46.568   7.006  13.337  0.00  0.00    +0.000 A 
ATOM      5  C   UNL     1      46.471   6.890  11.944  0.00  0.00    +0.000 A 
ATOM      6  C   UNL     1      47.635   7.042  11.179  0.00  0.00    +0.000 A 
ATOM      7  C   UNL     1      48.871   7.280  11.796  0.00  0.00    +0.000 A 
BRANCH   5   8
ATOM      8  C   UNL     1      45.146   6.608  11.279  0.00  0.00    +0.000 C 
BRANCH   8   9
ATOM      9  N   UNL     1      45.301   5.821  10.075  0.00  0.00    +0.000 N 
ATOM     10  C   UNL     1      45.040   4.472  10.111  0.00  0.00    +0.000 C 
ATOM     11  O   UNL     1      44.707   3.903  11.145  0.00  0.00    +0.000 OA
ATOM     12  N   UNL     1      45.169   3.822   8.892  0.00  0.00    +0.000 N 
ATOM     13  C   UNL     1      44.762   2.419   8.783  0.00  0.00    +0.000 C 
ATOM     14  C   UNL     1      45.950   1.519   8.453  0.00  0.00    +0.000 C 
ATOM     15  C   UNL     1      46.706   2.023   7.224  0.00  0.00    +0.000 C 
ATOM     16  C   UNL     1      47.086   3.495   7.386  0.00  0.00    +0.000 C 
ATOM     17  C   UNL     1      45.865   4.352   7.719  0.00  0.00    +0.000 C 
ATOM     18  H   UNL     1      44.993   6.273   9.230  0.00  0.00    +0.000 HD
ENDBRANCH   8   9
ENDBRANCH   5   8
ENDBRANCH   1   2
BRANCH   1  19
ATOM     19  N   UNL     1      50.264   7.288  15.261  0.00  0.00    +0.000 N 
ATOM     20  C   UNL     1      51.399   6.998  15.973  0.00  0.00    +0.000 C 
ATOM     21  O   UNL     1      52.522   7.107  15.489  0.00  0.00    +0.000 OA
ATOM     22  H   UNL     1      49.378   6.930  15.602  0.00  0.00    +0.000 HD
BRANCH  20  23
ATOM     23  C   UNL     1      51.210   6.644  17.386  0.00  0.00    +0.000 A 
ATOM     24  C   UNL     1      52.049   7.192  18.348  0.00  0.00    +0.000 A 
ATOM     25  S   UNL     1      51.659   6.728  19.941  0.00  0.00    +0.000 S 
ATOM     26  C   UNL     1      50.391   5.732  19.399  0.00  0.00    +0.000 A 
ATOM     27  N   UNL     1      49.647   5.004  20.275  0.00  0.00    +0.000 NA
ATOM     28  C   UNL     1      48.744   4.266  19.724  0.00  0.00    +0.000 A 
ATOM     29  N   UNL     1      48.509   4.196  18.376  0.00  0.00    +0.000 N 
ATOM     30  C   UNL     1      49.204   4.946  17.458  0.00  0.00    +0.000 A 
ATOM     31  O   UNL     1      48.926   4.916  16.263  0.00  0.00    +0.000 OA
ATOM     32  C   UNL     1      50.251   5.773  18.023  0.00  0.00    +0.000 A 
ATOM     33  H   UNL     1      47.774   3.609  18.008  0.00  0.00    +0.000 HD
ENDBRANCH  20  23
ENDBRANCH   1  19
BRANCH   1  34
ATOM     34  N   UNL     1      50.582   9.106  13.914  0.00  0.00    +0.000 NA
ATOM     35  H   UNL     1      51.561   9.199  14.179  0.00  0.00    +0.000 HD
ATOM     36  H   UNL     1      50.052   9.519  14.673  0.00  0.00    +0.000 HD
ENDBRANCH   1  34
TORSDOF 6
ENDMDL
MODEL 7
REMARK VINA RESULT:    -6.611      3.228      9.919
REMARK INTER + INTRA:          -9.992
REMARK INTER:                  -8.893
REMARK INTRA:                  -1.098
REMARK UNBOUND:                -1.255
REMARK  Name = 
REMARK  6 active torsions:
REMARK  status: ('A' for Active; 'I' for Inactive)
REMARK    1  A    between atoms: N_1  and  C_2
REMARK    2  A    between atoms: C_2  and  N_3
REMARK    3  A    between atoms: C_2  and  C_16
REMARK    4  A    between atoms: C_4  and  C_6
REMARK    5  A    between atoms: C_19  and  C_20
REMARK    6  A    between atoms: C_20  and  N_21
REMARK                            x       y       z     vdW  Elec       q    Type
REMARK                         _______ _______ _______ _____ _____    ______ ____
ROOT
ATOM      1  C   UNL     1      44.827   4.637  11.280  0.00  0.00    +0.000 C 
ENDROOT
BRANCH   1   2
ATOM      2  C   UNL     1      45.843   5.437  12.077  0.00  0.00    +0.000 A 
ATOM      3  C   UNL     1      46.372   4.909  13.264  0.00  0.00    +0.000 A 
ATOM      4  C   UNL     1      47.332   5.613  14.002  0.00  0.00    +0.000 A 
ATOM      5  C   UNL     1      47.781   6.872  13.581  0.00  0.00    +0.000 A 
ATOM      6  C   UNL     1      47.262   7.402  12.392  0.00  0.00    +0.000 A 
ATOM      7  C   UNL     1      46.300   6.699  11.656  0.00  0.00    +0.000 A 
BRANCH   5   8
ATOM      8  C   UNL     1      48.798   7.642  14.386  0.00  0.00    +0.000 C 
BRANCH   8   9
ATOM      9  N   UNL     1      48.566   7.521  15.810  0.00  0.00    +0.000 N 
ATOM     10  C   UNL     1      49.438   6.785  16.576  0.00  0.00    +0.000 C 
ATOM     11  O   UNL     1      50.396   6.198  16.086  0.00  0.00    +0.000 OA
ATOM     12  N   UNL     1      49.153   6.776  17.934  0.00  0.00    +0.000 N 
ATOM     13  C   UNL     1      50.104   6.156  18.860  0.00  0.00    +0.000 C 
ATOM     14  C   UNL     1      49.489   4.948  19.563  0.00  0.00    +0.000 C 
ATOM     15  C   UNL     1      48.156   5.305  20.219  0.00  0.00    +0.000 C 
ATOM     16  C   UNL     1      47.215   5.965  19.213  0.00  0.00    +0.000 C 
ATOM     17  C   UNL     1      47.877   7.164  18.534  0.00  0.00    +0.000 C 
ATOM     18  H   UNL     1      48.236   8.360  16.259  0.00  0.00    +0.000 HD
ENDBRANCH   8   9
ENDBRANCH   5   8
ENDBRANCH   1   2
BRANCH   1  19
ATOM     19  N   UNL     1      45.464   3.789  10.320  0.00  0.00    +0.000 N 
ATOM     20  C   UNL     1      44.820   2.741   9.715  0.00  0.00    +0.000 C 
ATOM     21  O   UNL     1      43.637   2.491   9.921  0.00  0.00    +0.000 OA
ATOM     22  H   UNL     1      46.479   3.788  10.331  0.00  0.00    +0.000 HD
BRANCH  20  23
ATOM     23  C   UNL     1      45.595   1.986   8.721  0.00  0.00    +0.000 A 
ATOM     24  C   UNL     1      45.577   0.597   8.749  0.00  0.00    +0.000 A 
ATOM     25  S   UNL     1      46.477  -0.125   7.494  0.00  0.00    +0.000 S 
ATOM     26  C   UNL     1      46.971   1.391   6.901  0.00  0.00    +0.000 A 
ATOM     27  N   UNL     1      47.801   1.488   5.828  0.00  0.00    +0.000 NA
ATOM     28  C   UNL     1      48.123   2.697   5.510  0.00  0.00    +0.000 A 
ATOM     29  N   UNL     1      47.681   3.819   6.160  0.00  0.00    +0.000 N 
ATOM     30  C   UNL     1      46.807   3.772   7.219  0.00  0.00    +0.000 A 
ATOM     31  O   UNL     1      46.373   4.795   7.739  0.00  0.00    +0.000 OA
ATOM     32  C   UNL     1      46.435   2.435   7.636  0.00  0.00    +0.000 A 
ATOM     33  H   UNL     1      47.958   4.739   5.850  0.00  0.00    +0.000 HD
ENDBRANCH  20  23
ENDBRANCH   1  19
BRANCH   1  34
ATOM     34  N   UNL     1      43.957   5.496  10.502  0.00  0.00    +0.000 NA
ATOM     35  H   UNL     1      43.215   4.903  10.135  0.00  0.00    +0.000 HD
ATOM     36  H   UNL     1      44.477   5.817   9.691  0.00  0.00    +0.000 HD
ENDBRANCH   1  34
TORSDOF 6
ENDMDL
MODEL 8
REMARK VINA RESULT:    -6.521      4.963      8.162
REMARK INTER + INTRA:          -9.872
REMARK INTER:                  -8.831
REMARK INTRA:                  -1.041
REMARK UNBOUND:                -1.255
REMARK  Name = 
REMARK  6 active torsions:
REMARK  status: ('A' for Active; 'I' for Inactive)
REMARK    1  A    between atoms: N_1  and  C_2
REMARK    2  A    between atoms: C_2  and  N_3
REMARK    3  A    between atoms: C_2  and  C_16
REMARK    4  A    between atoms: C_4  and  C_6
REMARK    5  A    between atoms: C_19  and  C_20
REMARK    6  A    between atoms: C_20  and  N_21
REMARK                            x       y       z     vdW  Elec       q    Type
REMARK                         _______ _______ _______ _____ _____    ______ ____
ROOT
ATOM      1  C   UNL     1      45.914   8.498  13.046  0.00  0.00    +0.000 C 
ENDROOT
BRANCH   1   2
ATOM      2  C   UNL     1      47.218   8.948  12.409  0.00  0.00    +0.000 A 
ATOM      3  C   UNL     1      47.350  10.264  11.942  0.00  0.00    +0.000 A 
ATOM      4  C   UNL     1      48.551  10.712  11.378  0.00  0.00    +0.000 A 
ATOM      5  C   UNL     1      49.651   9.854  11.253  0.00  0.00    +0.000 A 
ATOM      6  C   UNL     1      49.528   8.541  11.725  0.00  0.00    +0.000 A 
ATOM      7  C   UNL     1      48.326   8.090  12.286  0.00  0.00    +0.000 A 
BRANCH   5   8
ATOM      8  C   UNL     1      50.938  10.328  10.625  0.00  0.00    +0.000 C 
BRANCH   8   9
ATOM      9  N   UNL     1      51.938   9.283  10.582  0.00  0.00    +0.000 N 
ATOM     10  C   UNL     1      52.720   9.143   9.462  0.00  0.00    +0.000 C 
ATOM     11  O   UNL     1      52.578   9.859   8.477  0.00  0.00    +0.000 OA
ATOM     12  N   UNL     1      53.680   8.145   9.544  0.00  0.00    +0.000 N 
ATOM     13  C   UNL     1      54.670   8.013   8.472  0.00  0.00    +0.000 C 
ATOM     14  C   UNL     1      54.531   6.676   7.747  0.00  0.00    +0.000 C 
ATOM     15  C   UNL     1      54.550   5.506   8.730  0.00  0.00    +0.000 C 
ATOM     16  C   UNL     1      53.514   5.708   9.835  0.00  0.00    +0.000 C 
ATOM     17  C   UNL     1      53.692   7.060  10.525  0.00  0.00    +0.000 C 
ATOM     18  H   UNL     1      52.433   9.133  11.447  0.00  0.00    +0.000 HD
ENDBRANCH   8   9
ENDBRANCH   5   8
ENDBRANCH   1   2
BRANCH   1  19
ATOM     19  N   UNL     1      45.395   7.328  12.408  0.00  0.00    +0.000 N 
ATOM     20  C   UNL     1      45.607   6.064  12.894  0.00  0.00    +0.000 C 
ATOM     21  O   UNL     1      46.218   5.855  13.938  0.00  0.00    +0.000 OA
ATOM     22  H   UNL     1      45.134   7.431  11.434  0.00  0.00    +0.000 HD
BRANCH  20  23
ATOM     23  C   UNL     1      44.975   4.965  12.150  0.00  0.00    +0.000 A 
ATOM     24  C   UNL     1      44.183   4.046  12.827  0.00  0.00    +0.000 A 
ATOM     25  S   UNL     1      43.476   2.872  11.812  0.00  0.00    +0.000 S 
ATOM     26  C   UNL     1      44.249   3.515  10.440  0.00  0.00    +0.000 A 
ATOM     27  N   UNL     1      44.088   2.947   9.214  0.00  0.00    +0.000 NA
ATOM     28  C   UNL     1      44.761   3.515   8.270  0.00  0.00    +0.000 A 
ATOM     29  N   UNL     1      45.571   4.607   8.438  0.00  0.00    +0.000 N 
ATOM     30  C   UNL     1      45.728   5.241   9.647  0.00  0.00    +0.000 A 
ATOM     31  O   UNL     1      46.404   6.259   9.754  0.00  0.00    +0.000 OA
ATOM     32  C   UNL     1      45.015   4.626  10.748  0.00  0.00    +0.000 A 
ATOM     33  H   UNL     1      46.059   5.015   7.653  0.00  0.00    +0.000 HD
ENDBRANCH  20  23
ENDBRANCH   1  19
BRANCH   1  34
ATOM     34  N   UNL     1      44.873   9.496  12.903  0.00  0.00    +0.000 NA
ATOM     35  H   UNL     1      44.727   9.899  13.827  0.00  0.00    +0.000 HD
ATOM     36  H   UNL     1      44.008   9.017  12.674  0.00  0.00    +0.000 HD
ENDBRANCH   1  34
TORSDOF 6
ENDMDL
MODEL 9
REMARK VINA RESULT:    -6.312      3.891      5.993
REMARK INTER + INTRA:          -9.597
REMARK INTER:                  -8.612
REMARK INTRA:                  -0.985
REMARK UNBOUND:                -1.255
REMARK  Name = 
REMARK  6 active torsions:
REMARK  status: ('A' for Active; 'I' for Inactive)
REMARK    1  A    between atoms: N_1  and  C_2
REMARK    2  A    between atoms: C_2  and  N_3
REMARK    3  A    between atoms: C_2  and  C_16
REMARK    4  A    between atoms: C_4  and  C_6
REMARK    5  A    between atoms: C_19  and  C_20
REMARK    6  A    between atoms: C_20  and  N_21
REMARK                            x       y       z     vdW  Elec       q    Type
REMARK                         _______ _______ _______ _____ _____    ______ ____
ROOT
ATOM      1  C   UNL     1      49.647   4.854  19.514  0.00  0.00    +0.000 C 
ENDROOT
BRANCH   1   2
ATOM      2  C   UNL     1      49.186   5.285  18.132  0.00  0.00    +0.000 A 
ATOM      3  C   UNL     1      49.507   6.565  17.656  0.00  0.00    +0.000 A 
ATOM      4  C   UNL     1      49.120   6.975  16.374  0.00  0.00    +0.000 A 
ATOM      5  C   UNL     1      48.389   6.123  15.536  0.00  0.00    +0.000 A 
ATOM      6  C   UNL     1      48.071   4.841  16.003  0.00  0.00    +0.000 A 
ATOM      7  C   UNL     1      48.456   4.431  17.286  0.00  0.00    +0.000 A 
BRANCH   5   8
ATOM      8  C   UNL     1      47.951   6.572  14.164  0.00  0.00    +0.000 C 
BRANCH   8   9
ATOM      9  N   UNL     1      47.123   5.583  13.508  0.00  0.00    +0.000 N 
ATOM     10  C   UNL     1      46.389   5.941  12.404  0.00  0.00    +0.000 C 
ATOM     11  O   UNL     1      46.389   7.088  11.969  0.00  0.00    +0.000 OA
ATOM     12  N   UNL     1      45.670   4.907  11.822  0.00  0.00    +0.000 N 
ATOM     13  C   UNL     1      44.982   5.141  10.550  0.00  0.00    +0.000 C 
ATOM     14  C   UNL     1      43.469   5.003  10.703  0.00  0.00    +0.000 C 
ATOM     15  C   UNL     1      43.095   3.672  11.354  0.00  0.00    +0.000 C 
ATOM     16  C   UNL     1      43.858   3.473  12.663  0.00  0.00    +0.000 C 
ATOM     17  C   UNL     1      45.365   3.626  12.458  0.00  0.00    +0.000 C 
ATOM     18  H   UNL     1      47.528   4.663  13.448  0.00  0.00    +0.000 HD
ENDBRANCH   8   9
ENDBRANCH   5   8
ENDBRANCH   1   2
BRANCH   1  19
ATOM     19  N   UNL     1      50.793   4.002  19.443  0.00  0.00    +0.000 N 
ATOM     20  C   UNL     1      52.072   4.486  19.359  0.00  0.00    +0.000 C 
ATOM     21  O   UNL     1      52.322   5.687  19.387  0.00  0.00    +0.000 OA
ATOM     22  H   UNL     1      50.619   3.047  19.146  0.00  0.00    +0.000 HD
BRANCH  20  23
ATOM     23  C   UNL     1      53.148   3.485  19.333  0.00  0.00    +0.000 A 
ATOM     24  C   UNL     1      54.283   3.680  20.110  0.00  0.00    +0.000 A 
ATOM     25  S   UNL     1      55.406   2.401  20.013  0.00  0.00    +0.000 S 
ATOM     26  C   UNL     1      54.443   1.567  18.887  0.00  0.00    +0.000 A 
ATOM     27  N   UNL     1      54.847   0.380  18.360  0.00  0.00    +0.000 NA
ATOM     28  C   UNL     1      54.036  -0.123  17.491  0.00  0.00    +0.000 A 
ATOM     29  N   UNL     1      52.851   0.448  17.108  0.00  0.00    +0.000 N 
ATOM     30  C   UNL     1      52.381   1.622  17.645  0.00  0.00    +0.000 A 
ATOM     31  O   UNL     1      51.284   2.074  17.334  0.00  0.00    +0.000 OA
ATOM     32  C   UNL     1      53.268   2.244  18.607  0.00  0.00    +0.000 A 
ATOM     33  H   UNL     1      52.253  -0.006  16.433  0.00  0.00    +0.000 HD
ENDBRANCH  20  23
ENDBRANCH   1  19
BRANCH   1  34
ATOM     34  N   UNL     1      48.637   4.070  20.197  0.00  0.00    +0.000 NA
ATOM     35  H   UNL     1      48.604   4.409  21.157  0.00  0.00    +0.000 HD
ATOM     36  H   UNL     1      48.971   3.113  20.257  0.00  0.00    +0.000 HD
ENDBRANCH   1  34
TORSDOF 6
ENDMDL
