MODEL 1
REMARK VINA RESULT:    -7.762      0.000      0.000
REMARK INTER + INTRA:         -11.373
REMARK INTER:                 -10.485
REMARK INTRA:                  -0.889
REMARK UNBOUND:                -0.889
REMARK  Name = 
REMARK  6 active torsions:
REMARK  status: ('A' for Active; 'I' for Inactive)
REMARK    1  A    between atoms: C_2  and  C_19
REMARK    2  A    between atoms: N_3  and  C_4
REMARK    3  A    between atoms: C_4  and  C_5
REMARK    4  A    between atoms: C_8  and  O_9
REMARK    5  A    between atoms: O_9  and  C_10
REMARK    6  A    between atoms: C_10  and  C_11
REMARK                            x       y       z     vdW  Elec       q    Type
REMARK                         _______ _______ _______ _____ _____    ______ ____
ROOT
ATOM      1  O   UNL     1      48.443   8.401  16.265  0.00  0.00    +0.000 OA
ATOM      2  C   UNL     1      48.671   7.223  16.030  0.00  0.00    +0.000 C 
ATOM      3  N   UNL     1      48.241   6.538  14.915  0.00  0.00    +0.000 N 
ATOM      4  H   UNL     1      48.649   5.636  14.736  0.00  0.00    +0.000 HD
ENDROOT
BRANCH   2   5
ATOM      5  C   UNL     1      49.643   6.433  16.785  0.00  0.00    +0.000 A 
ATOM      6  C   UNL     1      50.908   6.901  17.095  0.00  0.00    +0.000 A 
ATOM      7  S   UNL     1      51.989   5.611  17.438  0.00  0.00    +0.000 S 
ATOM      8  C   UNL     1      50.740   4.455  17.308  0.00  0.00    +0.000 A 
ATOM      9  N   UNL     1      50.974   3.116  17.326  0.00  0.00    +0.000 NA
ATOM     10  C   UNL     1      49.904   2.390  17.269  0.00  0.00    +0.000 A 
ATOM     11  N   UNL     1      48.620   2.879  17.252  0.00  0.00    +0.000 N 
ATOM     12  C   UNL     1      48.335   4.223  17.237  0.00  0.00    +0.000 A 
ATOM     13  O   UNL     1      47.186   4.644  17.271  0.00  0.00    +0.000 OA
ATOM     14  C   UNL     1      49.512   5.062  17.168  0.00  0.00    +0.000 A 
ATOM     15  H   UNL     1      47.825   2.258  17.293  0.00  0.00    +0.000 HD
ENDBRANCH   2   5
BRANCH   3  16
ATOM     16  C   UNL     1      47.722   7.206  13.750  0.00  0.00    +0.000 C 
BRANCH  16  17
ATOM     17  C   UNL     1      46.840   6.262  12.982  0.00  0.00    +0.000 A 
ATOM     18  C   UNL     1      46.393   5.069  13.551  0.00  0.00    +0.000 A 
ATOM     19  C   UNL     1      45.566   4.222  12.818  0.00  0.00    +0.000 A 
ATOM     20  C   UNL     1      45.215   4.598  11.533  0.00  0.00    +0.000 A 
ATOM     21  N   UNL     1      45.576   5.772  10.969  0.00  0.00    +0.000 NA
ATOM     22  C   UNL     1      46.376   6.574  11.706  0.00  0.00    +0.000 A 
BRANCH  20  23
ATOM     23  O   UNL     1      44.460   3.699  10.814  0.00  0.00    +0.000 OA
BRANCH  23  24
ATOM     24  C   UNL     1      44.290   4.108   9.452  0.00  0.00    +0.000 C 
BRANCH  24  25
ATOM     25  C   UNL     1      45.271   3.361   8.576  0.00  0.00    +0.000 A 
ATOM     26  N   UNL     1      45.901   4.046   7.598  0.00  0.00    +0.000 NA
ATOM     27  C   UNL     1      46.780   3.348   6.853  0.00  0.00    +0.000 A 
ATOM     28  C   UNL     1      47.059   2.016   7.043  0.00  0.00    +0.000 A 
ATOM     29  C   UNL     1      46.362   1.408   8.059  0.00  0.00    +0.000 A 
ATOM     30  N   UNL     1      45.473   2.051   8.837  0.00  0.00    +0.000 NA
ENDBRANCH  24  25
ENDBRANCH  23  24
ENDBRANCH  20  23
ENDBRANCH  16  17
ENDBRANCH   3  16
TORSDOF 6
ENDMDL
MODEL 2
REMARK VINA RESULT:    -7.571      2.767      8.380
REMARK INTER + INTRA:         -11.115
REMARK INTER:                 -10.214
REMARK INTRA:                  -0.901
REMARK UNBOUND:                -0.889
REMARK  Name = 
REMARK  6 active torsions:
REMARK  status: ('A' for Active; 'I' for Inactive)
REMARK    1  A    between atoms: C_2  and  C_19
REMARK    2  A    between atoms: N_3  and  C_4
REMARK    3  A    between atoms: C_4  and  C_5
REMARK    4  A    between atoms: C_8  and  O_9
REMARK    5  A    between atoms: O_9  and  C_10
REMARK    6  A    between atoms: C_10  and  C_11
REMARK                            x       y       z     vdW  Elec       q    Type
REMARK                         _______ _______ _______ _____ _____    ______ ____
ROOT
ATOM      1  O   UNL     1      44.618   7.285  11.755  0.00  0.00    +0.000 OA
ATOM      2  C   UNL     1      45.174   6.246  11.427  0.00  0.00    +0.000 C 
ATOM      3  N   UNL     1      46.515   5.979  11.589  0.00  0.00    +0.000 N 
ATOM      4  H   UNL     1      46.818   5.028  11.462  0.00  0.00    +0.000 HD
ENDROOT
BRANCH   2   5
ATOM      5  C   UNL     1      44.444   5.041  11.036  0.00  0.00    +0.000 A 
ATOM      6  C   UNL     1      43.406   4.518  11.788  0.00  0.00    +0.000 A 
ATOM      7  S   UNL     1      43.149   2.857  11.434  0.00  0.00    +0.000 S 
ATOM      8  C   UNL     1      44.320   2.882  10.193  0.00  0.00    +0.000 A 
ATOM      9  N   UNL     1      44.741   1.756   9.558  0.00  0.00    +0.000 NA
ATOM     10  C   UNL     1      45.593   1.970   8.608  0.00  0.00    +0.000 A 
ATOM     11  N   UNL     1      46.021   3.210   8.199  0.00  0.00    +0.000 N 
ATOM     12  C   UNL     1      45.621   4.375   8.807  0.00  0.00    +0.000 A 
ATOM     13  O   UNL     1      45.973   5.475   8.400  0.00  0.00    +0.000 OA
ATOM     14  C   UNL     1      44.769   4.161   9.957  0.00  0.00    +0.000 A 
ATOM     15  H   UNL     1      46.624   3.314   7.395  0.00  0.00    +0.000 HD
ENDBRANCH   2   5
BRANCH   3  16
ATOM     16  C   UNL     1      47.365   6.776  12.434  0.00  0.00    +0.000 C 
BRANCH  16  17
ATOM     17  C   UNL     1      47.591   6.059  13.736  0.00  0.00    +0.000 A 
ATOM     18  C   UNL     1      48.324   6.648  14.766  0.00  0.00    +0.000 A 
ATOM     19  C   UNL     1      48.504   5.963  15.965  0.00  0.00    +0.000 A 
ATOM     20  C   UNL     1      47.941   4.705  16.093  0.00  0.00    +0.000 A 
ATOM     21  N   UNL     1      47.173   4.126  15.144  0.00  0.00    +0.000 NA
ATOM     22  C   UNL     1      47.015   4.816  13.992  0.00  0.00    +0.000 A 
BRANCH  20  23
ATOM     23  O   UNL     1      48.204   4.030  17.263  0.00  0.00    +0.000 OA
BRANCH  23  24
ATOM     24  C   UNL     1      48.623   2.682  17.023  0.00  0.00    +0.000 C 
BRANCH  24  25
ATOM     25  C   UNL     1      50.086   2.537  17.378  0.00  0.00    +0.000 A 
ATOM     26  N   UNL     1      50.700   1.371  17.086  0.00  0.00    +0.000 NA
ATOM     27  C   UNL     1      52.007   1.291  17.401  0.00  0.00    +0.000 A 
ATOM     28  C   UNL     1      52.721   2.312  17.981  0.00  0.00    +0.000 A 
ATOM     29  C   UNL     1      52.005   3.455  18.244  0.00  0.00    +0.000 A 
ATOM     30  N   UNL     1      50.699   3.595  17.952  0.00  0.00    +0.000 NA
ENDBRANCH  24  25
ENDBRANCH  23  24
ENDBRANCH  20  23
ENDBRANCH  16  17
ENDBRANCH   3  16
TORSDOF 6
ENDMDL
MODEL 3
REMARK VINA RESULT:    -7.366      3.656      8.670
REMARK INTER + INTRA:         -10.838
REMARK INTER:                 -10.096
REMARK INTRA:                  -0.742
REMARK UNBOUND:                -0.889
REMARK  Name = 
REMARK  6 active torsions:
REMARK  status: ('A' for Active; 'I' for Inactive)
REMARK    1  A    between atoms: C_2  and  C_19
REMARK    2  A    between atoms: N_3  and  C_4
REMARK    3  A    between atoms: C_4  and  C_5
REMARK    4  A    between atoms: C_8  and  O_9
REMARK    5  A    between atoms: O_9  and  C_10
REMARK    6  A    between atoms: C_10  and  C_11
REMARK                            x       y       z     vdW  Elec       q    Type
REMARK                         _______ _______ _______ _____ _____    ______ ____
ROOT
ATOM      1  O   UNL     1      48.778   6.271  14.183  0.00  0.00    +0.000 OA
ATOM      2  C   UNL     1      47.649   5.801  14.206  0.00  0.00    +0.000 C 
ATOM      3  N   UNL     1      47.090   5.132  15.272  0.00  0.00    +0.000 N 
ATOM      4  H   UNL     1      46.099   4.963  15.247  0.00  0.00    +0.000 HD
ENDROOT
BRANCH   2   5
ATOM      5  C   UNL     1      46.642   6.097  13.188  0.00  0.00    +0.000 A 
ATOM      6  C   UNL     1      46.517   7.343  12.600  0.00  0.00    +0.000 A 
ATOM      7  S   UNL     1      44.954   7.564  11.924  0.00  0.00    +0.000 S 
ATOM      8  C   UNL     1      44.504   5.961  12.296  0.00  0.00    +0.000 A 
ATOM      9  N   UNL     1      43.234   5.500  12.143  0.00  0.00    +0.000 NA
ATOM     10  C   UNL     1      43.088   4.245  12.424  0.00  0.00    +0.000 A 
ATOM     11  N   UNL     1      44.105   3.396  12.788  0.00  0.00    +0.000 N 
ATOM     12  C   UNL     1      45.403   3.815  12.952  0.00  0.00    +0.000 A 
ATOM     13  O   UNL     1      46.307   3.037  13.230  0.00  0.00    +0.000 OA
ATOM     14  C   UNL     1      45.575   5.240  12.772  0.00  0.00    +0.000 A 
ATOM     15  H   UNL     1      43.939   2.407  12.912  0.00  0.00    +0.000 HD
ENDBRANCH   2   5
BRANCH   3  16
ATOM     16  C   UNL     1      47.664   5.165  16.592  0.00  0.00    +0.000 C 
BRANCH  16  17
ATOM     17  C   UNL     1      48.651   4.041  16.737  0.00  0.00    +0.000 A 
ATOM     18  C   UNL     1      49.817   4.197  17.488  0.00  0.00    +0.000 A 
ATOM     19  C   UNL     1      50.705   3.132  17.614  0.00  0.00    +0.000 A 
ATOM     20  C   UNL     1      50.396   1.941  16.980  0.00  0.00    +0.000 A 
ATOM     21  N   UNL     1      49.250   1.730  16.296  0.00  0.00    +0.000 NA
ATOM     22  C   UNL     1      48.406   2.782  16.193  0.00  0.00    +0.000 A 
BRANCH  20  23
ATOM     23  O   UNL     1      51.334   0.937  17.065  0.00  0.00    +0.000 OA
BRANCH  23  24
ATOM     24  C   UNL     1      52.529   1.373  17.724  0.00  0.00    +0.000 C 
BRANCH  24  25
ATOM     25  C   UNL     1      53.548   0.255  17.710  0.00  0.00    +0.000 A 
ATOM     26  N   UNL     1      54.408   0.191  16.671  0.00  0.00    +0.000 NA
ATOM     27  C   UNL     1      55.311  -0.809  16.706  0.00  0.00    +0.000 A 
ATOM     28  C   UNL     1      55.397  -1.729  17.723  0.00  0.00    +0.000 A 
ATOM     29  C   UNL     1      54.474  -1.582  18.730  0.00  0.00    +0.000 A 
ATOM     30  N   UNL     1      53.549  -0.605  18.751  0.00  0.00    +0.000 NA
ENDBRANCH  24  25
ENDBRANCH  23  24
ENDBRANCH  20  23
ENDBRANCH  16  17
ENDBRANCH   3  16
TORSDOF 6
ENDMDL
MODEL 4
REMARK VINA RESULT:    -7.322      2.069      2.664
REMARK INTER + INTRA:         -10.779
REMARK INTER:                 -10.163
REMARK INTRA:                  -0.616
REMARK UNBOUND:                -0.889
REMARK  Name = 
REMARK  6 active torsions:
REMARK  status: ('A' for Active; 'I' for Inactive)
REMARK    1  A    between atoms: C_2  and  C_19
REMARK    2  A    between atoms: N_3  and  C_4
REMARK    3  A    between atoms: C_4  and  C_5
REMARK    4  A    between atoms: C_8  and  O_9
REMARK    5  A    between atoms: O_9  and  C_10
REMARK    6  A    between atoms: C_10  and  C_11
REMARK                            x       y       z     vdW  Elec       q    Type
REMARK                         _______ _______ _______ _____ _____    ______ ____
ROOT
ATOM      1  O   UNL     1      49.007   6.629  13.277  0.00  0.00    +0.000 OA
ATOM      2  C   UNL     1      48.124   6.530  14.116  0.00  0.00    +0.000 C 
ATOM      3  N   UNL     1      46.897   7.154  14.054  0.00  0.00    +0.000 N 
ATOM      4  H   UNL     1      46.186   6.847  14.697  0.00  0.00    +0.000 HD
ENDROOT
BRANCH   2   5
ATOM      5  C   UNL     1      48.152   5.539  15.191  0.00  0.00    +0.000 A 
ATOM      6  C   UNL     1      47.317   4.436  15.212  0.00  0.00    +0.000 A 
ATOM      7  S   UNL     1      47.150   3.805  16.801  0.00  0.00    +0.000 S 
ATOM      8  C   UNL     1      48.291   4.912  17.421  0.00  0.00    +0.000 A 
ATOM      9  N   UNL     1      48.530   5.052  18.753  0.00  0.00    +0.000 NA
ATOM     10  C   UNL     1      49.465   5.901  19.037  0.00  0.00    +0.000 A 
ATOM     11  N   UNL     1      50.220   6.580  18.112  0.00  0.00    +0.000 N 
ATOM     12  C   UNL     1      50.017   6.468  16.758  0.00  0.00    +0.000 A 
ATOM     13  O   UNL     1      50.730   7.043  15.944  0.00  0.00    +0.000 OA
ATOM     14  C   UNL     1      48.893   5.627  16.411  0.00  0.00    +0.000 A 
ATOM     15  H   UNL     1      50.992   7.166  18.398  0.00  0.00    +0.000 HD
ENDBRANCH   2   5
BRANCH   3  16
ATOM     16  C   UNL     1      46.399   7.760  12.847  0.00  0.00    +0.000 C 
BRANCH  16  17
ATOM     17  C   UNL     1      45.787   6.702  11.972  0.00  0.00    +0.000 A 
ATOM     18  C   UNL     1      46.253   6.479  10.676  0.00  0.00    +0.000 A 
ATOM     19  C   UNL     1      45.673   5.482   9.896  0.00  0.00    +0.000 A 
ATOM     20  C   UNL     1      44.640   4.739  10.440  0.00  0.00    +0.000 A 
ATOM     21  N   UNL     1      44.202   4.882  11.710  0.00  0.00    +0.000 NA
ATOM     22  C   UNL     1      44.785   5.856  12.444  0.00  0.00    +0.000 A 
BRANCH  20  23
ATOM     23  O   UNL     1      44.044   3.816   9.612  0.00  0.00    +0.000 OA
BRANCH  23  24
ATOM     24  C   UNL     1      44.663   2.528   9.708  0.00  0.00    +0.000 C 
BRANCH  24  25
ATOM     25  C   UNL     1      45.540   2.300   8.498  0.00  0.00    +0.000 A 
ATOM     26  N   UNL     1      45.602   3.273   7.563  0.00  0.00    +0.000 NA
ATOM     27  C   UNL     1      46.409   3.037   6.511  0.00  0.00    +0.000 A 
ATOM     28  C   UNL     1      47.152   1.892   6.355  0.00  0.00    +0.000 A 
ATOM     29  C   UNL     1      47.016   0.960   7.356  0.00  0.00    +0.000 A 
ATOM     30  N   UNL     1      46.227   1.138   8.431  0.00  0.00    +0.000 NA
ENDBRANCH  24  25
ENDBRANCH  23  24
ENDBRANCH  20  23
ENDBRANCH  16  17
ENDBRANCH   3  16
TORSDOF 6
ENDMDL
MODEL 5
REMARK VINA RESULT:    -7.103      1.996      3.454
REMARK INTER + INTRA:         -10.483
REMARK INTER:                  -9.684
REMARK INTRA:                  -0.799
REMARK UNBOUND:                -0.889
REMARK  Name = 
REMARK  6 active torsions:
REMARK  status: ('A' for Active; 'I' for Inactive)
REMARK    1  A    between atoms: C_2  and  C_19
REMARK    2  A    between atoms: N_3  and  C_4
REMARK    3  A    between atoms: C_4  and  C_5
REMARK    4  A    between atoms: C_8  and  O_9
REMARK    5  A    between atoms: O_9  and  C_10
REMARK    6  A    between atoms: C_10  and  C_11
REMARK                            x       y       z     vdW  Elec       q    Type
REMARK                         _______ _______ _______ _____ _____    ______ ____
ROOT
ATOM      1  O   UNL     1      48.836   4.217  16.877  0.00  0.00    +0.000 OA
ATOM      2  C   UNL     1      48.443   5.272  16.398  0.00  0.00    +0.000 C 
ATOM      3  N   UNL     1      47.553   5.387  15.354  0.00  0.00    +0.000 N 
ATOM      4  H   UNL     1      47.159   6.296  15.177  0.00  0.00    +0.000 HD
ENDROOT
BRANCH   2   5
ATOM      5  C   UNL     1      48.678   6.570  17.030  0.00  0.00    +0.000 A 
ATOM      6  C   UNL     1      48.402   6.813  18.364  0.00  0.00    +0.000 A 
ATOM      7  S   UNL     1      48.213   8.492  18.670  0.00  0.00    +0.000 S 
ATOM      8  C   UNL     1      48.633   8.890  17.065  0.00  0.00    +0.000 A 
ATOM      9  N   UNL     1      48.526  10.152  16.568  0.00  0.00    +0.000 NA
ATOM     10  C   UNL     1      48.939  10.278  15.348  0.00  0.00    +0.000 A 
ATOM     11  N   UNL     1      49.500   9.272  14.598  0.00  0.00    +0.000 N 
ATOM     12  C   UNL     1      49.631   7.985  15.058  0.00  0.00    +0.000 A 
ATOM     13  O   UNL     1      50.178   7.111  14.396  0.00  0.00    +0.000 OA
ATOM     14  C   UNL     1      49.060   7.780  16.371  0.00  0.00    +0.000 A 
ATOM     15  H   UNL     1      49.880   9.456  13.680  0.00  0.00    +0.000 HD
ENDBRANCH   2   5
BRANCH   3  16
ATOM     16  C   UNL     1      46.752   4.282  14.896  0.00  0.00    +0.000 C 
BRANCH  16  17
ATOM     17  C   UNL     1      46.309   4.537  13.482  0.00  0.00    +0.000 A 
ATOM     18  C   UNL     1      45.395   3.694  12.849  0.00  0.00    +0.000 A 
ATOM     19  C   UNL     1      44.995   3.965  11.544  0.00  0.00    +0.000 A 
ATOM     20  C   UNL     1      45.527   5.075  10.911  0.00  0.00    +0.000 A 
ATOM     21  N   UNL     1      46.366   5.950  11.509  0.00  0.00    +0.000 NA
ATOM     22  C   UNL     1      46.735   5.661  12.778  0.00  0.00    +0.000 A 
BRANCH  20  23
ATOM     23  O   UNL     1      45.166   5.266   9.597  0.00  0.00    +0.000 OA
BRANCH  23  24
ATOM     24  C   UNL     1      44.520   4.114   9.044  0.00  0.00    +0.000 C 
BRANCH  24  25
ATOM     25  C   UNL     1      45.510   3.337   8.205  0.00  0.00    +0.000 A 
ATOM     26  N   UNL     1      46.140   3.984   7.200  0.00  0.00    +0.000 NA
ATOM     27  C   UNL     1      47.026   3.260   6.489  0.00  0.00    +0.000 A 
ATOM     28  C   UNL     1      47.313   1.939   6.737  0.00  0.00    +0.000 A 
ATOM     29  C   UNL     1      46.616   1.370   7.776  0.00  0.00    +0.000 A 
ATOM     30  N   UNL     1      45.719   2.040   8.522  0.00  0.00    +0.000 NA
ENDBRANCH  24  25
ENDBRANCH  23  24
ENDBRANCH  20  23
ENDBRANCH  16  17
ENDBRANCH   3  16
TORSDOF 6
ENDMDL
MODEL 6
REMARK VINA RESULT:    -6.850      1.813      2.432
REMARK INTER + INTRA:         -10.141
REMARK INTER:                  -9.417
REMARK INTRA:                  -0.725
REMARK UNBOUND:                -0.889
REMARK  Name = 
REMARK  6 active torsions:
REMARK  status: ('A' for Active; 'I' for Inactive)
REMARK    1  A    between atoms: C_2  and  C_19
REMARK    2  A    between atoms: N_3  and  C_4
REMARK    3  A    between atoms: C_4  and  C_5
REMARK    4  A    between atoms: C_8  and  O_9
REMARK    5  A    between atoms: O_9  and  C_10
REMARK    6  A    between atoms: C_10  and  C_11
REMARK                            x       y       z     vdW  Elec       q    Type
REMARK                         _______ _______ _______ _____ _____    ______ ____
ROOT
ATOM      1  O   UNL     1      48.567   9.647  15.360  0.00  0.00    +0.000 OA
ATOM      2  C   UNL     1      48.479   8.435  15.497  0.00  0.00    +0.000 C 
ATOM      3  N   UNL     1      47.764   7.593  14.675  0.00  0.00    +0.000 N 
ATOM      4  H   UNL     1      47.922   6.604  14.771  0.00  0.00    +0.000 HD
ENDROOT
BRANCH   2   5
ATOM      5  C   UNL     1      49.324   7.674  16.417  0.00  0.00    +0.000 A 
ATOM      6  C   UNL     1      50.471   7.018  16.008  0.00  0.00    +0.000 A 
ATOM      7  S   UNL     1      50.909   5.774  17.109  0.00  0.00    +0.000 S 
ATOM      8  C   UNL     1      49.656   6.206  18.184  0.00  0.00    +0.000 A 
ATOM      9  N   UNL     1      49.335   5.462  19.275  0.00  0.00    +0.000 NA
ATOM     10  C   UNL     1      48.394   5.970  20.005  0.00  0.00    +0.000 A 
ATOM     11  N   UNL     1      47.785   7.180  19.775  0.00  0.00    +0.000 N 
ATOM     12  C   UNL     1      48.079   7.967  18.689  0.00  0.00    +0.000 A 
ATOM     13  O   UNL     1      47.563   9.066  18.524  0.00  0.00    +0.000 OA
ATOM     14  C   UNL     1      49.034   7.367  17.783  0.00  0.00    +0.000 A 
ATOM     15  H   UNL     1      47.116   7.559  20.430  0.00  0.00    +0.000 HD
ENDBRANCH   2   5
BRANCH   3  16
ATOM     16  C   UNL     1      47.276   8.004  13.385  0.00  0.00    +0.000 C 
BRANCH  16  17
ATOM     17  C   UNL     1      46.569   6.852  12.727  0.00  0.00    +0.000 A 
ATOM     18  C   UNL     1      45.956   6.997  11.482  0.00  0.00    +0.000 A 
ATOM     19  C   UNL     1      45.320   5.907  10.894  0.00  0.00    +0.000 A 
ATOM     20  C   UNL     1      45.319   4.702  11.575  0.00  0.00    +0.000 A 
ATOM     21  N   UNL     1      45.953   4.504  12.752  0.00  0.00    +0.000 NA
ATOM     22  C   UNL     1      46.563   5.580  13.297  0.00  0.00    +0.000 A 
BRANCH  20  23
ATOM     23  O   UNL     1      44.616   3.670  10.996  0.00  0.00    +0.000 OA
BRANCH  23  24
ATOM     24  C   UNL     1      44.267   3.953   9.637  0.00  0.00    +0.000 C 
BRANCH  24  25
ATOM     25  C   UNL     1      45.266   3.293   8.712  0.00  0.00    +0.000 A 
ATOM     26  N   UNL     1      45.533   1.982   8.894  0.00  0.00    +0.000 NA
ATOM     27  C   UNL     1      46.414   1.429   8.038  0.00  0.00    +0.000 A 
ATOM     28  C   UNL     1      47.026   2.116   7.018  0.00  0.00    +0.000 A 
ATOM     29  C   UNL     1      46.692   3.445   6.919  0.00  0.00    +0.000 A 
ATOM     30  N   UNL     1      45.820   4.053   7.743  0.00  0.00    +0.000 NA
ENDBRANCH  24  25
ENDBRANCH  23  24
ENDBRANCH  20  23
ENDBRANCH  16  17
ENDBRANCH   3  16
TORSDOF 6
ENDMDL
MODEL 7
REMARK VINA RESULT:    -6.749      2.928      4.441
REMARK INTER + INTRA:         -10.005
REMARK INTER:                  -9.092
REMARK INTRA:                  -0.914
REMARK UNBOUND:                -0.889
REMARK  Name = 
REMARK  6 active torsions:
REMARK  status: ('A' for Active; 'I' for Inactive)
REMARK    1  A    between atoms: C_2  and  C_19
REMARK    2  A    between atoms: N_3  and  C_4
REMARK    3  A    between atoms: C_4  and  C_5
REMARK    4  A    between atoms: C_8  and  O_9
REMARK    5  A    between atoms: O_9  and  C_10
REMARK    6  A    between atoms: C_10  and  C_11
REMARK                            x       y       z     vdW  Elec       q    Type
REMARK                         _______ _______ _______ _____ _____    ______ ____
ROOT
ATOM      1  O   UNL     1      48.365   7.997  15.622  0.00  0.00    +0.000 OA
ATOM      2  C   UNL     1      48.645   7.718  14.465  0.00  0.00    +0.000 C 
ATOM      3  N   UNL     1      48.343   6.529  13.840  0.00  0.00    +0.000 N 
ATOM      4  H   UNL     1      48.449   6.489  12.840  0.00  0.00    +0.000 HD
ENDROOT
BRANCH   2   5
ATOM      5  C   UNL     1      49.127   8.707  13.502  0.00  0.00    +0.000 A 
ATOM      6  C   UNL     1      48.280   9.566  12.824  0.00  0.00    +0.000 A 
ATOM      7  S   UNL     1      49.011  10.167  11.391  0.00  0.00    +0.000 S 
ATOM      8  C   UNL     1      50.489   9.396  11.753  0.00  0.00    +0.000 A 
ATOM      9  N   UNL     1      51.527   9.348  10.876  0.00  0.00    +0.000 NA
ATOM     10  C   UNL     1      52.587   8.768  11.340  0.00  0.00    +0.000 A 
ATOM     11  N   UNL     1      52.723   8.281  12.618  0.00  0.00    +0.000 N 
ATOM     12  C   UNL     1      51.704   8.310  13.538  0.00  0.00    +0.000 A 
ATOM     13  O   UNL     1      51.855   7.916  14.688  0.00  0.00    +0.000 OA
ATOM     14  C   UNL     1      50.463   8.835  13.009  0.00  0.00    +0.000 A 
ATOM     15  H   UNL     1      53.605   7.914  12.944  0.00  0.00    +0.000 HD
ENDBRANCH   2   5
BRANCH   3  16
ATOM     16  C   UNL     1      47.402   5.586  14.386  0.00  0.00    +0.000 C 
BRANCH  16  17
ATOM     17  C   UNL     1      46.515   5.071  13.286  0.00  0.00    +0.000 A 
ATOM     18  C   UNL     1      46.130   3.731  13.238  0.00  0.00    +0.000 A 
ATOM     19  C   UNL     1      45.297   3.289  12.214  0.00  0.00    +0.000 A 
ATOM     20  C   UNL     1      44.876   4.207  11.267  0.00  0.00    +0.000 A 
ATOM     21  N   UNL     1      45.175   5.523  11.314  0.00  0.00    +0.000 NA
ATOM     22  C   UNL     1      45.984   5.924  12.320  0.00  0.00    +0.000 A 
BRANCH  20  23
ATOM     23  O   UNL     1      44.116   3.716  10.230  0.00  0.00    +0.000 OA
BRANCH  23  24
ATOM     24  C   UNL     1      44.501   4.276   8.970  0.00  0.00    +0.000 C 
BRANCH  24  25
ATOM     25  C   UNL     1      45.520   3.375   8.308  0.00  0.00    +0.000 A 
ATOM     26  N   UNL     1      45.511   2.063   8.625  0.00  0.00    +0.000 NA
ATOM     27  C   UNL     1      46.423   1.293   8.000  0.00  0.00    +0.000 A 
ATOM     28  C   UNL     1      47.327   1.767   7.080  0.00  0.00    +0.000 A 
ATOM     29  C   UNL     1      47.259   3.117   6.831  0.00  0.00    +0.000 A 
ATOM     30  N   UNL     1      46.372   3.937   7.422  0.00  0.00    +0.000 NA
ENDBRANCH  24  25
ENDBRANCH  23  24
ENDBRANCH  20  23
ENDBRANCH  16  17
ENDBRANCH   3  16
TORSDOF 6
ENDMDL
MODEL 8
REMARK VINA RESULT:    -6.490      2.987      7.824
REMARK INTER + INTRA:          -9.655
REMARK INTER:                  -8.681
REMARK INTRA:                  -0.973
REMARK UNBOUND:                -0.889
REMARK  Name = 
REMARK  6 active torsions:
REMARK  status: ('A' for Active; 'I' for Inactive)
REMARK    1  A    between atoms: C_2  and  C_19
REMARK    2  A    between atoms: N_3  and  C_4
REMARK    3  A    between atoms: C_4  and  C_5
REMARK    4  A    between atoms: C_8  and  O_9
REMARK    5  A    between atoms: O_9  and  C_10
REMARK    6  A    between atoms: C_10  and  C_11
REMARK                            x       y       z     vdW  Elec       q    Type
REMARK                         _______ _______ _______ _____ _____    ______ ____
ROOT
ATOM      1  O   UNL     1      44.337   7.552  11.904  0.00  0.00    +0.000 OA
ATOM      2  C   UNL     1      45.350   7.087  11.402  0.00  0.00    +0.000 C 
ATOM      3  N   UNL     1      46.610   7.634  11.507  0.00  0.00    +0.000 N 
ATOM      4  H   UNL     1      47.389   7.066  11.219  0.00  0.00    +0.000 HD
ENDROOT
BRANCH   2   5
ATOM      5  C   UNL     1      45.409   5.747  10.819  0.00  0.00    +0.000 A 
ATOM      6  C   UNL     1      45.844   5.513   9.527  0.00  0.00    +0.000 A 
ATOM      7  S   UNL     1      45.266   4.009   8.932  0.00  0.00    +0.000 S 
ATOM      8  C   UNL     1      44.561   3.621  10.437  0.00  0.00    +0.000 A 
ATOM      9  N   UNL     1      43.756   2.539  10.614  0.00  0.00    +0.000 NA
ATOM     10  C   UNL     1      43.354   2.372  11.833  0.00  0.00    +0.000 A 
ATOM     11  N   UNL     1      43.727   3.152  12.900  0.00  0.00    +0.000 N 
ATOM     12  C   UNL     1      44.540   4.252  12.770  0.00  0.00    +0.000 A 
ATOM     13  O   UNL     1      44.904   4.909  13.738  0.00  0.00    +0.000 OA
ATOM     14  C   UNL     1      44.902   4.543  11.400  0.00  0.00    +0.000 A 
ATOM     15  H   UNL     1      43.445   2.918  13.841  0.00  0.00    +0.000 HD
ENDBRANCH   2   5
BRANCH   3  16
ATOM     16  C   UNL     1      46.931   8.656  12.468  0.00  0.00    +0.000 C 
BRANCH  16  17
ATOM     17  C   UNL     1      47.597   8.030  13.661  0.00  0.00    +0.000 A 
ATOM     18  C   UNL     1      47.893   6.667  13.690  0.00  0.00    +0.000 A 
ATOM     19  C   UNL     1      48.521   6.121  14.805  0.00  0.00    +0.000 A 
ATOM     20  C   UNL     1      48.833   6.960  15.861  0.00  0.00    +0.000 A 
ATOM     21  N   UNL     1      48.620   8.294  15.847  0.00  0.00    +0.000 NA
ATOM     22  C   UNL     1      48.010   8.796  14.750  0.00  0.00    +0.000 A 
BRANCH  20  23
ATOM     23  O   UNL     1      49.384   6.369  16.975  0.00  0.00    +0.000 OA
BRANCH  23  24
ATOM     24  C   UNL     1      48.751   5.124  17.292  0.00  0.00    +0.000 C 
BRANCH  24  25
ATOM     25  C   UNL     1      49.796   4.033  17.368  0.00  0.00    +0.000 A 
ATOM     26  N   UNL     1      50.982   4.326  17.944  0.00  0.00    +0.000 NA
ATOM     27  C   UNL     1      51.877   3.321  18.008  0.00  0.00    +0.000 A 
ATOM     28  C   UNL     1      51.642   2.052  17.535  0.00  0.00    +0.000 A 
ATOM     29  C   UNL     1      50.408   1.857  16.962  0.00  0.00    +0.000 A 
ATOM     30  N   UNL     1      49.473   2.820  16.869  0.00  0.00    +0.000 NA
ENDBRANCH  24  25
ENDBRANCH  23  24
ENDBRANCH  20  23
ENDBRANCH  16  17
ENDBRANCH   3  16
TORSDOF 6
ENDMDL
MODEL 9
REMARK VINA RESULT:    -6.474      1.559      2.147
REMARK INTER + INTRA:          -9.634
REMARK INTER:                  -8.796
REMARK INTRA:                  -0.837
REMARK UNBOUND:                -0.889
REMARK  Name = 
REMARK  6 active torsions:
REMARK  status: ('A' for Active; 'I' for Inactive)
REMARK    1  A    between atoms: C_2  and  C_19
REMARK    2  A    between atoms: N_3  and  C_4
REMARK    3  A    between atoms: C_4  and  C_5
REMARK    4  A    between atoms: C_8  and  O_9
REMARK    5  A    between atoms: O_9  and  C_10
REMARK    6  A    between atoms: C_10  and  C_11
REMARK                            x       y       z     vdW  Elec       q    Type
REMARK                         _______ _______ _______ _____ _____    ______ ____
ROOT
ATOM      1  O   UNL     1      48.247   6.847  17.726  0.00  0.00    +0.000 OA
ATOM      2  C   UNL     1      49.174   6.269  17.177  0.00  0.00    +0.000 C 
ATOM      3  N   UNL     1      49.643   6.546  15.912  0.00  0.00    +0.000 N 
ATOM      4  H   UNL     1      50.526   6.142  15.644  0.00  0.00    +0.000 HD
ENDROOT
BRANCH   2   5
ATOM      5  C   UNL     1      50.078   5.361  17.882  0.00  0.00    +0.000 A 
ATOM      6  C   UNL     1      51.101   5.809  18.699  0.00  0.00    +0.000 A 
ATOM      7  S   UNL     1      52.313   4.610  18.903  0.00  0.00    +0.000 S 
ATOM      8  C   UNL     1      51.407   3.463  18.021  0.00  0.00    +0.000 A 
ATOM      9  N   UNL     1      51.908   2.252  17.661  0.00  0.00    +0.000 NA
ATOM     10  C   UNL     1      51.062   1.491  17.042  0.00  0.00    +0.000 A 
ATOM     11  N   UNL     1      49.747   1.809  16.801  0.00  0.00    +0.000 N 
ATOM     12  C   UNL     1      49.197   3.019  17.149  0.00  0.00    +0.000 A 
ATOM     13  O   UNL     1      48.011   3.269  16.971  0.00  0.00    +0.000 OA
ATOM     14  C   UNL     1      50.151   3.941  17.725  0.00  0.00    +0.000 A 
ATOM     15  H   UNL     1      49.116   1.137  16.388  0.00  0.00    +0.000 HD
ENDBRANCH   2   5
BRANCH   3  16
ATOM     16  C   UNL     1      49.289   7.747  15.202  0.00  0.00    +0.000 C 
BRANCH  16  17
ATOM     17  C   UNL     1      48.366   7.404  14.066  0.00  0.00    +0.000 A 
ATOM     18  C   UNL     1      48.090   8.326  13.057  0.00  0.00    +0.000 A 
ATOM     19  C   UNL     1      47.240   7.973  12.012  0.00  0.00    +0.000 A 
ATOM     20  C   UNL     1      46.692   6.702  12.013  0.00  0.00    +0.000 A 
ATOM     21  N   UNL     1      46.983   5.760  12.937  0.00  0.00    +0.000 NA
ATOM     22  C   UNL     1      47.812   6.132  13.938  0.00  0.00    +0.000 A 
BRANCH  20  23
ATOM     23  O   UNL     1      45.799   6.417  11.005  0.00  0.00    +0.000 OA
BRANCH  23  24
ATOM     24  C   UNL     1      45.060   5.218  11.264  0.00  0.00    +0.000 C 
BRANCH  24  25
ATOM     25  C   UNL     1      45.179   4.286  10.078  0.00  0.00    +0.000 A 
ATOM     26  N   UNL     1      45.617   4.798   8.908  0.00  0.00    +0.000 NA
ATOM     27  C   UNL     1      45.726   3.931   7.883  0.00  0.00    +0.000 A 
ATOM     28  C   UNL     1      45.428   2.593   7.974  0.00  0.00    +0.000 A 
ATOM     29  C   UNL     1      44.985   2.171   9.205  0.00  0.00    +0.000 A 
ATOM     30  N   UNL     1      44.856   2.988  10.266  0.00  0.00    +0.000 NA
ENDBRANCH  24  25
ENDBRANCH  23  24
ENDBRANCH  20  23
ENDBRANCH  16  17
ENDBRANCH   3  16
TORSDOF 6
ENDMDL
