MODEL 1
REMARK VINA RESULT:    -8.281      0.000      0.000
REMARK INTER + INTRA:         -13.185
REMARK INTER:                 -12.396
REMARK INTRA:                  -0.788
REMARK UNBOUND:                -0.788
REMARK  Name = 
REMARK  11 active torsions:
REMARK  status: ('A' for Active; 'I' for Inactive)
REMARK    1  A    between atoms: C_1  and  C_2
REMARK    2  A    between atoms: C_2  and  N_3
REMARK    3  A    between atoms: C_2  and  C_21
REMARK    4  A    between atoms: N_3  and  C_4
REMARK    5  A    between atoms: C_4  and  C_5
REMARK    6  A    between atoms: C_8  and  C_9
REMARK    7  A    between atoms: C_9  and  O_10
REMARK    8  A    between atoms: C_9  and  C_11
REMARK    9  A    between atoms: C_11  and  N_12
REMARK   10  A    between atoms: N_12  and  C_13
REMARK   11  A    between atoms: N_16  and  C_17
REMARK                            x       y       z     vdW  Elec       q    Type
REMARK                         _______ _______ _______ _____ _____    ______ ____
ROOT
ATOM      1  C   UNL     1      46.829   5.122  13.710  0.00  0.00    +0.000 A 
ATOM      2  C   UNL     1      46.691   3.745  13.487  0.00  0.00    +0.000 A 
ATOM      3  C   UNL     1      45.760   3.264  12.566  0.00  0.00    +0.000 A 
ATOM      4  C   UNL     1      44.955   4.152  11.840  0.00  0.00    +0.000 A 
ATOM      5  C   UNL     1      45.125   5.532  12.038  0.00  0.00    +0.000 A 
ATOM      6  C   UNL     1      46.050   6.012  12.964  0.00  0.00    +0.000 A 
ENDROOT
BRANCH   1   7
ATOM      7  C   UNL     1      47.734   5.630  14.806  0.00  0.00    +0.000 C 
BRANCH   7   8
ATOM      8  N   UNL     1      48.322   4.539  15.572  0.00  0.00    +0.000 NA
ATOM      9  H   UNL     1      49.331   4.547  15.410  0.00  0.00    +0.000 HD
BRANCH   8  11
ATOM     10  C   UNL     1      47.102   3.628  17.577  0.00  0.00    +0.000 C 
ATOM     11  C   UNL     1      48.088   4.663  17.016  0.00  0.00    +0.000 C 
BRANCH  11  12
ATOM     12  C   UNL     1      49.445   4.515  17.672  0.00  0.00    +0.000 A 
ATOM     13  C   UNL     1      50.014   5.474  18.500  0.00  0.00    +0.000 A 
ATOM     14  S   UNL     1      51.553   5.033  19.084  0.00  0.00    +0.000 S 
ATOM     15  C   UNL     1      51.500   3.542  18.267  0.00  0.00    +0.000 A 
ATOM     16  N   UNL     1      52.528   2.656  18.356  0.00  0.00    +0.000 NA
ATOM     17  C   UNL     1      52.340   1.561  17.693  0.00  0.00    +0.000 A 
ATOM     18  N   UNL     1      51.228   1.272  16.950  0.00  0.00    +0.000 N 
ATOM     19  C   UNL     1      50.163   2.139  16.819  0.00  0.00    +0.000 A 
ATOM     20  O   UNL     1      49.190   1.851  16.134  0.00  0.00    +0.000 OA
ATOM     21  C   UNL     1      50.326   3.381  17.552  0.00  0.00    +0.000 A 
ATOM     22  H   UNL     1      51.149   0.397  16.452  0.00  0.00    +0.000 HD
ENDBRANCH  11  12
ENDBRANCH   8  11
ENDBRANCH   7   8
ENDBRANCH   1   7
BRANCH   4  23
ATOM     23  C   UNL     1      43.940   3.621  10.850  0.00  0.00    +0.000 C 
BRANCH  23  24
ATOM     24  O   UNL     1      42.614   3.775  11.368  0.00  0.00    +0.000 OA
ATOM     25  H   UNL     1      42.008   3.326  10.755  0.00  0.00    +0.000 HD
ENDBRANCH  23  24
BRANCH  23  26
ATOM     26  C   UNL     1      44.009   4.328   9.481  0.00  0.00    +0.000 C 
BRANCH  26  27
ATOM     27  N   UNL     1      44.340   3.425   8.373  0.00  0.00    +0.000 NA
ATOM     28  H   UNL     1      44.055   3.842   7.487  0.00  0.00    +0.000 HD
BRANCH  27  29
ATOM     29  C   UNL     1      45.769   3.110   8.347  0.00  0.00    +0.000 C 
ATOM     30  C   UNL     1      46.010   1.605   8.517  0.00  0.00    +0.000 C 
ATOM     31  C   UNL     1      46.766   1.185   7.263  0.00  0.00    +0.000 C 
ATOM     32  N   UNL     1      47.469   2.408   6.872  0.00  0.00    +0.000 NA
ATOM     33  C   UNL     1      47.985   2.348   5.513  0.00  0.00    +0.000 C 
ATOM     34  C   UNL     1      46.466   3.461   7.021  0.00  0.00    +0.000 C 
ENDBRANCH  27  29
ENDBRANCH  26  27
ENDBRANCH  23  26
ENDBRANCH   4  23
TORSDOF 9
ENDMDL
MODEL 2
REMARK VINA RESULT:    -8.017      2.180      2.926
REMARK INTER + INTRA:         -12.788
REMARK INTER:                 -11.638
REMARK INTRA:                  -1.151
REMARK UNBOUND:                -0.788
REMARK  Name = 
REMARK  11 active torsions:
REMARK  status: ('A' for Active; 'I' for Inactive)
REMARK    1  A    between atoms: C_1  and  C_2
REMARK    2  A    between atoms: C_2  and  N_3
REMARK    3  A    between atoms: C_2  and  C_21
REMARK    4  A    between atoms: N_3  and  C_4
REMARK    5  A    between atoms: C_4  and  C_5
REMARK    6  A    between atoms: C_8  and  C_9
REMARK    7  A    between atoms: C_9  and  O_10
REMARK    8  A    between atoms: C_9  and  C_11
REMARK    9  A    between atoms: C_11  and  N_12
REMARK   10  A    between atoms: N_12  and  C_13
REMARK   11  A    between atoms: N_16  and  C_17
REMARK                            x       y       z     vdW  Elec       q    Type
REMARK                         _______ _______ _______ _____ _____    ______ ____
ROOT
ATOM      1  C   UNL     1      47.300   6.052  12.987  0.00  0.00    +0.000 A 
ATOM      2  C   UNL     1      46.606   5.041  13.666  0.00  0.00    +0.000 A 
ATOM      3  C   UNL     1      45.395   4.555  13.172  0.00  0.00    +0.000 A 
ATOM      4  C   UNL     1      44.859   5.065  11.981  0.00  0.00    +0.000 A 
ATOM      5  C   UNL     1      45.578   6.049  11.284  0.00  0.00    +0.000 A 
ATOM      6  C   UNL     1      46.784   6.539  11.783  0.00  0.00    +0.000 A 
ENDROOT
BRANCH   1   7
ATOM      7  C   UNL     1      48.534   6.671  13.597  0.00  0.00    +0.000 C 
BRANCH   7   8
ATOM      8  N   UNL     1      48.755   6.208  14.961  0.00  0.00    +0.000 NA
ATOM      9  H   UNL     1      49.178   5.279  14.914  0.00  0.00    +0.000 HD
BRANCH   8  11
ATOM     10  C   UNL     1      49.795   8.493  15.135  0.00  0.00    +0.000 C 
ATOM     11  C   UNL     1      49.652   7.083  15.725  0.00  0.00    +0.000 C 
BRANCH  11  12
ATOM     12  C   UNL     1      49.078   7.147  17.125  0.00  0.00    +0.000 A 
ATOM     13  C   UNL     1      48.455   8.269  17.656  0.00  0.00    +0.000 A 
ATOM     14  S   UNL     1      47.917   8.046  19.258  0.00  0.00    +0.000 S 
ATOM     15  C   UNL     1      48.482   6.441  19.286  0.00  0.00    +0.000 A 
ATOM     16  N   UNL     1      48.326   5.662  20.389  0.00  0.00    +0.000 NA
ATOM     17  C   UNL     1      48.791   4.463  20.258  0.00  0.00    +0.000 A 
ATOM     18  N   UNL     1      49.399   3.973  19.135  0.00  0.00    +0.000 N 
ATOM     19  C   UNL     1      49.592   4.725  17.993  0.00  0.00    +0.000 A 
ATOM     20  O   UNL     1      50.152   4.256  17.011  0.00  0.00    +0.000 OA
ATOM     21  C   UNL     1      49.078   6.078  18.091  0.00  0.00    +0.000 A 
ATOM     22  H   UNL     1      49.746   3.024  19.102  0.00  0.00    +0.000 HD
ENDBRANCH  11  12
ENDBRANCH   8  11
ENDBRANCH   7   8
ENDBRANCH   1   7
BRANCH   4  23
ATOM     23  C   UNL     1      43.539   4.539  11.458  0.00  0.00    +0.000 C 
BRANCH  23  24
ATOM     24  O   UNL     1      43.049   5.384  10.410  0.00  0.00    +0.000 OA
ATOM     25  H   UNL     1      43.356   6.286  10.596  0.00  0.00    +0.000 HD
ENDBRANCH  23  24
BRANCH  23  26
ATOM     26  C   UNL     1      43.639   3.100  10.910  0.00  0.00    +0.000 C 
BRANCH  26  27
ATOM     27  N   UNL     1      44.972   2.761  10.400  0.00  0.00    +0.000 NA
ATOM     28  H   UNL     1      45.306   1.905  10.842  0.00  0.00    +0.000 HD
BRANCH  27  29
ATOM     29  C   UNL     1      44.967   2.608   8.944  0.00  0.00    +0.000 C 
ATOM     30  C   UNL     1      45.234   3.946   8.243  0.00  0.00    +0.000 C 
ATOM     31  C   UNL     1      46.486   3.708   7.409  0.00  0.00    +0.000 C 
ATOM     32  N   UNL     1      46.431   2.273   7.126  0.00  0.00    +0.000 NA
ATOM     33  C   UNL     1      47.694   1.748   6.632  0.00  0.00    +0.000 C 
ATOM     34  C   UNL     1      46.061   1.670   8.406  0.00  0.00    +0.000 C 
ENDBRANCH  27  29
ENDBRANCH  26  27
ENDBRANCH  23  26
ENDBRANCH   4  23
TORSDOF 9
ENDMDL
MODEL 3
REMARK VINA RESULT:    -7.871      1.066      1.316
REMARK INTER + INTRA:         -12.571
REMARK INTER:                 -11.908
REMARK INTRA:                  -0.662
REMARK UNBOUND:                -0.788
REMARK  Name = 
REMARK  11 active torsions:
REMARK  status: ('A' for Active; 'I' for Inactive)
REMARK    1  A    between atoms: C_1  and  C_2
REMARK    2  A    between atoms: C_2  and  N_3
REMARK    3  A    between atoms: C_2  and  C_21
REMARK    4  A    between atoms: N_3  and  C_4
REMARK    5  A    between atoms: C_4  and  C_5
REMARK    6  A    between atoms: C_8  and  C_9
REMARK    7  A    between atoms: C_9  and  O_10
REMARK    8  A    between atoms: C_9  and  C_11
REMARK    9  A    between atoms: C_11  and  N_12
REMARK   10  A    between atoms: N_12  and  C_13
REMARK   11  A    between atoms: N_16  and  C_17
REMARK                            x       y       z     vdW  Elec       q    Type
REMARK                         _______ _______ _______ _____ _____    ______ ____
ROOT
ATOM      1  C   UNL     1      47.008   5.782  13.736  0.00  0.00    +0.000 A 
ATOM      2  C   UNL     1      46.324   4.593  14.019  0.00  0.00    +0.000 A 
ATOM      3  C   UNL     1      45.205   4.221  13.273  0.00  0.00    +0.000 A 
ATOM      4  C   UNL     1      44.754   5.029  12.220  0.00  0.00    +0.000 A 
ATOM      5  C   UNL     1      45.467   6.200  11.915  0.00  0.00    +0.000 A 
ATOM      6  C   UNL     1      46.580   6.574  12.666  0.00  0.00    +0.000 A 
ENDROOT
BRANCH   1   7
ATOM      7  C   UNL     1      48.129   6.249  14.633  0.00  0.00    +0.000 C 
BRANCH   7   8
ATOM      8  N   UNL     1      48.589   5.189  15.521  0.00  0.00    +0.000 NA
ATOM      9  H   UNL     1      49.520   4.901  15.213  0.00  0.00    +0.000 HD
BRANCH   8  11
ATOM     10  C   UNL     1      47.540   5.090  17.807  0.00  0.00    +0.000 C 
ATOM     11  C   UNL     1      48.679   5.616  16.922  0.00  0.00    +0.000 C 
BRANCH  11  12
ATOM     12  C   UNL     1      50.018   5.117  17.424  0.00  0.00    +0.000 A 
ATOM     13  C   UNL     1      50.975   5.930  18.016  0.00  0.00    +0.000 A 
ATOM     14  S   UNL     1      52.386   5.088  18.473  0.00  0.00    +0.000 S 
ATOM     15  C   UNL     1      51.755   3.610  17.912  0.00  0.00    +0.000 A 
ATOM     16  N   UNL     1      52.470   2.459  18.015  0.00  0.00    +0.000 NA
ATOM     17  C   UNL     1      51.857   1.415  17.560  0.00  0.00    +0.000 A 
ATOM     18  N   UNL     1      50.603   1.415  17.012  0.00  0.00    +0.000 N 
ATOM     19  C   UNL     1      49.841   2.557  16.875  0.00  0.00    +0.000 A 
ATOM     20  O   UNL     1      48.727   2.520  16.367  0.00  0.00    +0.000 OA
ATOM     21  C   UNL     1      50.486   3.755  17.379  0.00  0.00    +0.000 A 
ATOM     22  H   UNL     1      50.185   0.561  16.670  0.00  0.00    +0.000 HD
ENDBRANCH  11  12
ENDBRANCH   8  11
ENDBRANCH   7   8
ENDBRANCH   1   7
BRANCH   4  23
ATOM     23  C   UNL     1      43.532   4.624  11.422  0.00  0.00    +0.000 C 
BRANCH  23  24
ATOM     24  O   UNL     1      43.340   5.518  10.320  0.00  0.00    +0.000 OA
ATOM     25  H   UNL     1      43.022   4.991   9.569  0.00  0.00    +0.000 HD
ENDBRANCH  23  24
BRANCH  23  26
ATOM     26  C   UNL     1      43.626   3.188  10.867  0.00  0.00    +0.000 C 
BRANCH  26  27
ATOM     27  N   UNL     1      44.965   2.835  10.383  0.00  0.00    +0.000 NA
ATOM     28  H   UNL     1      45.289   1.986  10.846  0.00  0.00    +0.000 HD
BRANCH  27  29
ATOM     29  C   UNL     1      44.981   2.656   8.931  0.00  0.00    +0.000 C 
ATOM     30  C   UNL     1      45.320   3.967   8.212  0.00  0.00    +0.000 C 
ATOM     31  C   UNL     1      46.576   3.660   7.407  0.00  0.00    +0.000 C 
ATOM     32  N   UNL     1      46.464   2.224   7.149  0.00  0.00    +0.000 NA
ATOM     33  C   UNL     1      47.713   1.636   6.690  0.00  0.00    +0.000 C 
ATOM     34  C   UNL     1      46.044   1.661   8.431  0.00  0.00    +0.000 C 
ENDBRANCH  27  29
ENDBRANCH  26  27
ENDBRANCH  23  26
ENDBRANCH   4  23
TORSDOF 9
ENDMDL
MODEL 4
REMARK VINA RESULT:    -7.307      2.510      3.140
REMARK INTER + INTRA:         -11.727
REMARK INTER:                 -10.695
REMARK INTRA:                  -1.032
REMARK UNBOUND:                -0.788
REMARK  Name = 
REMARK  11 active torsions:
REMARK  status: ('A' for Active; 'I' for Inactive)
REMARK    1  A    between atoms: C_1  and  C_2
REMARK    2  A    between atoms: C_2  and  N_3
REMARK    3  A    between atoms: C_2  and  C_21
REMARK    4  A    between atoms: N_3  and  C_4
REMARK    5  A    between atoms: C_4  and  C_5
REMARK    6  A    between atoms: C_8  and  C_9
REMARK    7  A    between atoms: C_9  and  O_10
REMARK    8  A    between atoms: C_9  and  C_11
REMARK    9  A    between atoms: C_11  and  N_12
REMARK   10  A    between atoms: N_12  and  C_13
REMARK   11  A    between atoms: N_16  and  C_17
REMARK                            x       y       z     vdW  Elec       q    Type
REMARK                         _______ _______ _______ _____ _____    ______ ____
ROOT
ATOM      1  C   UNL     1      47.536   6.419  12.578  0.00  0.00    +0.000 A 
ATOM      2  C   UNL     1      47.384   5.287  13.390  0.00  0.00    +0.000 A 
ATOM      3  C   UNL     1      46.147   4.651  13.499  0.00  0.00    +0.000 A 
ATOM      4  C   UNL     1      45.038   5.130  12.789  0.00  0.00    +0.000 A 
ATOM      5  C   UNL     1      45.205   6.240  11.946  0.00  0.00    +0.000 A 
ATOM      6  C   UNL     1      46.440   6.879  11.843  0.00  0.00    +0.000 A 
ENDROOT
BRANCH   1   7
ATOM      7  C   UNL     1      48.837   7.184  12.573  0.00  0.00    +0.000 C 
BRANCH   7   8
ATOM      8  N   UNL     1      49.656   6.870  13.738  0.00  0.00    +0.000 NA
ATOM      9  H   UNL     1      50.528   6.454  13.407  0.00  0.00    +0.000 HD
BRANCH   8  11
ATOM     10  C   UNL     1      48.858   8.495  15.486  0.00  0.00    +0.000 C 
ATOM     11  C   UNL     1      49.984   8.053  14.542  0.00  0.00    +0.000 C 
BRANCH  11  12
ATOM     12  C   UNL     1      51.227   7.689  15.327  0.00  0.00    +0.000 A 
ATOM     13  C   UNL     1      52.426   8.386  15.247  0.00  0.00    +0.000 A 
ATOM     14  S   UNL     1      53.650   7.739  16.241  0.00  0.00    +0.000 S 
ATOM     15  C   UNL     1      52.613   6.522  16.823  0.00  0.00    +0.000 A 
ATOM     16  N   UNL     1      53.044   5.611  17.736  0.00  0.00    +0.000 NA
ATOM     17  C   UNL     1      52.143   4.757  18.096  0.00  0.00    +0.000 A 
ATOM     18  N   UNL     1      50.857   4.725  17.628  0.00  0.00    +0.000 N 
ATOM     19  C   UNL     1      50.373   5.618  16.694  0.00  0.00    +0.000 A 
ATOM     20  O   UNL     1      49.220   5.550  16.288  0.00  0.00    +0.000 OA
ATOM     21  C   UNL     1      51.350   6.602  16.265  0.00  0.00    +0.000 A 
ATOM     22  H   UNL     1      50.204   4.024  17.949  0.00  0.00    +0.000 HD
ENDBRANCH  11  12
ENDBRANCH   8  11
ENDBRANCH   7   8
ENDBRANCH   1   7
BRANCH   4  23
ATOM     23  C   UNL     1      43.697   4.441  12.922  0.00  0.00    +0.000 C 
BRANCH  23  24
ATOM     24  O   UNL     1      42.687   5.387  13.291  0.00  0.00    +0.000 OA
ATOM     25  H   UNL     1      42.228   5.655  12.477  0.00  0.00    +0.000 HD
ENDBRANCH  23  24
BRANCH  23  26
ATOM     26  C   UNL     1      43.249   3.740  11.622  0.00  0.00    +0.000 C 
BRANCH  26  27
ATOM     27  N   UNL     1      44.246   2.806  11.088  0.00  0.00    +0.000 NA
ATOM     28  H   UNL     1      44.065   1.867  11.441  0.00  0.00    +0.000 HD
BRANCH  27  29
ATOM     29  C   UNL     1      44.251   2.804   9.624  0.00  0.00    +0.000 C 
ATOM     30  C   UNL     1      44.533   4.205   9.067  0.00  0.00    +0.000 C 
ATOM     31  C   UNL     1      45.789   4.044   8.221  0.00  0.00    +0.000 C 
ATOM     32  N   UNL     1      45.726   2.646   7.792  0.00  0.00    +0.000 NA
ATOM     33  C   UNL     1      46.990   2.165   7.256  0.00  0.00    +0.000 C 
ATOM     34  C   UNL     1      45.343   1.918   9.000  0.00  0.00    +0.000 C 
ENDBRANCH  27  29
ENDBRANCH  26  27
ENDBRANCH  23  26
ENDBRANCH   4  23
TORSDOF 9
ENDMDL
MODEL 5
REMARK VINA RESULT:    -6.735      3.660      5.221
REMARK INTER + INTRA:         -10.870
REMARK INTER:                  -8.720
REMARK INTRA:                  -2.149
REMARK UNBOUND:                -0.788
REMARK  Name = 
REMARK  11 active torsions:
REMARK  status: ('A' for Active; 'I' for Inactive)
REMARK    1  A    between atoms: C_1  and  C_2
REMARK    2  A    between atoms: C_2  and  N_3
REMARK    3  A    between atoms: C_2  and  C_21
REMARK    4  A    between atoms: N_3  and  C_4
REMARK    5  A    between atoms: C_4  and  C_5
REMARK    6  A    between atoms: C_8  and  C_9
REMARK    7  A    between atoms: C_9  and  O_10
REMARK    8  A    between atoms: C_9  and  C_11
REMARK    9  A    between atoms: C_11  and  N_12
REMARK   10  A    between atoms: N_12  and  C_13
REMARK   11  A    between atoms: N_16  and  C_17
REMARK                            x       y       z     vdW  Elec       q    Type
REMARK                         _______ _______ _______ _____ _____    ______ ____
ROOT
ATOM      1  C   UNL     1      49.370   8.296  17.009  0.00  0.00    +0.000 A 
ATOM      2  C   UNL     1      50.336   7.559  16.310  0.00  0.00    +0.000 A 
ATOM      3  C   UNL     1      50.215   7.351  14.936  0.00  0.00    +0.000 A 
ATOM      4  C   UNL     1      49.128   7.884  14.230  0.00  0.00    +0.000 A 
ATOM      5  C   UNL     1      48.184   8.655  14.927  0.00  0.00    +0.000 A 
ATOM      6  C   UNL     1      48.302   8.857  16.301  0.00  0.00    +0.000 A 
ENDROOT
BRANCH   1   7
ATOM      7  C   UNL     1      49.430   8.400  18.513  0.00  0.00    +0.000 C 
BRANCH   7   8
ATOM      8  N   UNL     1      49.976   7.191  19.118  0.00  0.00    +0.000 NA
ATOM      9  H   UNL     1      50.651   7.473  19.832  0.00  0.00    +0.000 HD
BRANCH   8  11
ATOM     10  C   UNL     1      47.680   7.126  20.147  0.00  0.00    +0.000 C 
ATOM     11  C   UNL     1      48.951   6.358  19.757  0.00  0.00    +0.000 C 
BRANCH  11  12
ATOM     12  C   UNL     1      48.627   5.263  18.762  0.00  0.00    +0.000 A 
ATOM     13  C   UNL     1      47.397   5.128  18.131  0.00  0.00    +0.000 A 
ATOM     14  S   UNL     1      47.325   3.796  17.070  0.00  0.00    +0.000 S 
ATOM     15  C   UNL     1      48.938   3.369  17.405  0.00  0.00    +0.000 A 
ATOM     16  N   UNL     1      49.520   2.298  16.802  0.00  0.00    +0.000 NA
ATOM     17  C   UNL     1      50.752   2.105  17.143  0.00  0.00    +0.000 A 
ATOM     18  N   UNL     1      51.453   2.877  18.029  0.00  0.00    +0.000 N 
ATOM     19  C   UNL     1      50.908   3.968  18.675  0.00  0.00    +0.000 A 
ATOM     20  O   UNL     1      51.563   4.627  19.472  0.00  0.00    +0.000 OA
ATOM     21  C   UNL     1      49.525   4.228  18.317  0.00  0.00    +0.000 A 
ATOM     22  H   UNL     1      52.416   2.666  18.255  0.00  0.00    +0.000 HD
ENDBRANCH  11  12
ENDBRANCH   8  11
ENDBRANCH   7   8
ENDBRANCH   1   7
BRANCH   4  23
ATOM     23  C   UNL     1      48.999   7.643  12.741  0.00  0.00    +0.000 C 
BRANCH  23  24
ATOM     24  O   UNL     1      50.193   7.041  12.230  0.00  0.00    +0.000 OA
ATOM     25  H   UNL     1      50.535   6.444  12.916  0.00  0.00    +0.000 HD
ENDBRANCH  23  24
BRANCH  23  26
ATOM     26  C   UNL     1      47.807   6.731  12.380  0.00  0.00    +0.000 C 
BRANCH  26  27
ATOM     27  N   UNL     1      47.794   5.466  13.123  0.00  0.00    +0.000 NA
ATOM     28  H   UNL     1      48.454   5.512  13.899  0.00  0.00    +0.000 HD
BRANCH  27  29
ATOM     29  C   UNL     1      46.453   5.149  13.618  0.00  0.00    +0.000 C 
ATOM     30  C   UNL     1      45.424   6.179  13.137  0.00  0.00    +0.000 C 
ATOM     31  C   UNL     1      44.398   5.371  12.353  0.00  0.00    +0.000 C 
ATOM     32  N   UNL     1      44.471   4.047  12.974  0.00  0.00    +0.000 NA
ATOM     33  C   UNL     1      43.829   3.016  12.174  0.00  0.00    +0.000 C 
ATOM     34  C   UNL     1      45.904   3.800  13.123  0.00  0.00    +0.000 C 
ENDBRANCH  27  29
ENDBRANCH  26  27
ENDBRANCH  23  26
ENDBRANCH   4  23
TORSDOF 9
ENDMDL
MODEL 6
REMARK VINA RESULT:    -6.517      3.237      4.761
REMARK INTER + INTRA:         -10.544
REMARK INTER:                  -8.838
REMARK INTRA:                  -1.705
REMARK UNBOUND:                -0.788
REMARK  Name = 
REMARK  11 active torsions:
REMARK  status: ('A' for Active; 'I' for Inactive)
REMARK    1  A    between atoms: C_1  and  C_2
REMARK    2  A    between atoms: C_2  and  N_3
REMARK    3  A    between atoms: C_2  and  C_21
REMARK    4  A    between atoms: N_3  and  C_4
REMARK    5  A    between atoms: C_4  and  C_5
REMARK    6  A    between atoms: C_8  and  C_9
REMARK    7  A    between atoms: C_9  and  O_10
REMARK    8  A    between atoms: C_9  and  C_11
REMARK    9  A    between atoms: C_11  and  N_12
REMARK   10  A    between atoms: N_12  and  C_13
REMARK   11  A    between atoms: N_16  and  C_17
REMARK                            x       y       z     vdW  Elec       q    Type
REMARK                         _______ _______ _______ _____ _____    ______ ____
ROOT
ATOM      1  C   UNL     1      49.833   8.468  13.541  0.00  0.00    +0.000 A 
ATOM      2  C   UNL     1      49.757   7.738  12.348  0.00  0.00    +0.000 A 
ATOM      3  C   UNL     1      48.520   7.379  11.811  0.00  0.00    +0.000 A 
ATOM      4  C   UNL     1      47.332   7.752  12.455  0.00  0.00    +0.000 A 
ATOM      5  C   UNL     1      47.413   8.518  13.629  0.00  0.00    +0.000 A 
ATOM      6  C   UNL     1      48.649   8.870  14.167  0.00  0.00    +0.000 A 
ENDROOT
BRANCH   1   7
ATOM      7  C   UNL     1      51.170   8.732  14.190  0.00  0.00    +0.000 C 
BRANCH   7   8
ATOM      8  N   UNL     1      51.140   8.462  15.622  0.00  0.00    +0.000 NA
ATOM      9  H   UNL     1      50.218   8.728  15.974  0.00  0.00    +0.000 HD
BRANCH   8  11
ATOM     10  C   UNL     1      52.847   6.663  16.051  0.00  0.00    +0.000 C 
ATOM     11  C   UNL     1      51.365   7.048  15.943  0.00  0.00    +0.000 C 
BRANCH  11  12
ATOM     12  C   UNL     1      50.654   6.801  17.257  0.00  0.00    +0.000 A 
ATOM     13  C   UNL     1      51.149   7.198  18.492  0.00  0.00    +0.000 A 
ATOM     14  S   UNL     1      50.133   6.776  19.794  0.00  0.00    +0.000 S 
ATOM     15  C   UNL     1      48.992   6.068  18.749  0.00  0.00    +0.000 A 
ATOM     16  N   UNL     1      47.849   5.513  19.231  0.00  0.00    +0.000 NA
ATOM     17  C   UNL     1      47.072   5.027  18.318  0.00  0.00    +0.000 A 
ATOM     18  N   UNL     1      47.331   5.041  16.975  0.00  0.00    +0.000 N 
ATOM     19  C   UNL     1      48.480   5.583  16.435  0.00  0.00    +0.000 A 
ATOM     20  O   UNL     1      48.683   5.565  15.228  0.00  0.00    +0.000 OA
ATOM     21  C   UNL     1      49.381   6.147  17.423  0.00  0.00    +0.000 A 
ATOM     22  H   UNL     1      46.681   4.638  16.315  0.00  0.00    +0.000 HD
ENDBRANCH  11  12
ENDBRANCH   8  11
ENDBRANCH   7   8
ENDBRANCH   1   7
BRANCH   4  23
ATOM     23  C   UNL     1      45.994   7.349  11.871  0.00  0.00    +0.000 C 
BRANCH  23  24
ATOM     24  O   UNL     1      46.176   6.365  10.846  0.00  0.00    +0.000 OA
ATOM     25  H   UNL     1      45.720   6.687  10.051  0.00  0.00    +0.000 HD
ENDBRANCH  23  24
BRANCH  23  26
ATOM     26  C   UNL     1      45.027   6.773  12.927  0.00  0.00    +0.000 C 
BRANCH  26  27
ATOM     27  N   UNL     1      45.478   5.499  13.498  0.00  0.00    +0.000 NA
ATOM     28  H   UNL     1      45.540   5.576  14.512  0.00  0.00    +0.000 HD
BRANCH  27  29
ATOM     29  C   UNL     1      44.586   4.399  13.128  0.00  0.00    +0.000 C 
ATOM     30  C   UNL     1      43.267   4.924  12.548  0.00  0.00    +0.000 C 
ATOM     31  C   UNL     1      43.189   4.326  11.149  0.00  0.00    +0.000 C 
ATOM     32  N   UNL     1      43.959   3.087  11.272  0.00  0.00    +0.000 NA
ATOM     33  C   UNL     1      44.312   2.514   9.982  0.00  0.00    +0.000 C 
ATOM     34  C   UNL     1      45.146   3.477  12.031  0.00  0.00    +0.000 C 
ENDBRANCH  27  29
ENDBRANCH  26  27
ENDBRANCH  23  26
ENDBRANCH   4  23
TORSDOF 9
ENDMDL
MODEL 7
REMARK VINA RESULT:    -6.407      2.418      3.091
REMARK INTER + INTRA:         -10.379
REMARK INTER:                  -9.405
REMARK INTRA:                  -0.975
REMARK UNBOUND:                -0.788
REMARK  Name = 
REMARK  11 active torsions:
REMARK  status: ('A' for Active; 'I' for Inactive)
REMARK    1  A    between atoms: C_1  and  C_2
REMARK    2  A    between atoms: C_2  and  N_3
REMARK    3  A    between atoms: C_2  and  C_21
REMARK    4  A    between atoms: N_3  and  C_4
REMARK    5  A    between atoms: C_4  and  C_5
REMARK    6  A    between atoms: C_8  and  C_9
REMARK    7  A    between atoms: C_9  and  O_10
REMARK    8  A    between atoms: C_9  and  C_11
REMARK    9  A    between atoms: C_11  and  N_12
REMARK   10  A    between atoms: N_12  and  C_13
REMARK   11  A    between atoms: N_16  and  C_17
REMARK                            x       y       z     vdW  Elec       q    Type
REMARK                         _______ _______ _______ _____ _____    ______ ____
ROOT
ATOM      1  C   UNL     1      47.047   6.177  13.301  0.00  0.00    +0.000 A 
ATOM      2  C   UNL     1      46.002   6.751  12.564  0.00  0.00    +0.000 A 
ATOM      3  C   UNL     1      44.946   5.966  12.099  0.00  0.00    +0.000 A 
ATOM      4  C   UNL     1      44.909   4.592  12.371  0.00  0.00    +0.000 A 
ATOM      5  C   UNL     1      45.938   4.030  13.143  0.00  0.00    +0.000 A 
ATOM      6  C   UNL     1      46.996   4.813  13.601  0.00  0.00    +0.000 A 
ENDROOT
BRANCH   1   7
ATOM      7  C   UNL     1      48.254   7.001  13.681  0.00  0.00    +0.000 C 
BRANCH   7   8
ATOM      8  N   UNL     1      49.110   6.300  14.630  0.00  0.00    +0.000 NA
ATOM      9  H   UNL     1      49.972   6.042  14.147  0.00  0.00    +0.000 HD
BRANCH   8  11
ATOM     10  C   UNL     1      48.595   8.377  15.957  0.00  0.00    +0.000 C 
ATOM     11  C   UNL     1      49.463   7.121  15.795  0.00  0.00    +0.000 C 
BRANCH  11  12
ATOM     12  C   UNL     1      49.321   6.215  17.000  0.00  0.00    +0.000 A 
ATOM     13  C   UNL     1      48.308   5.277  17.148  0.00  0.00    +0.000 A 
ATOM     14  S   UNL     1      48.400   4.410  18.613  0.00  0.00    +0.000 S 
ATOM     15  C   UNL     1      49.805   5.246  19.085  0.00  0.00    +0.000 A 
ATOM     16  N   UNL     1      50.420   4.972  20.266  0.00  0.00    +0.000 NA
ATOM     17  C   UNL     1      51.484   5.675  20.483  0.00  0.00    +0.000 A 
ATOM     18  N   UNL     1      51.985   6.626  19.636  0.00  0.00    +0.000 N 
ATOM     19  C   UNL     1      51.394   6.949  18.432  0.00  0.00    +0.000 A 
ATOM     20  O   UNL     1      51.864   7.815  17.706  0.00  0.00    +0.000 OA
ATOM     21  C   UNL     1      50.199   6.179  18.142  0.00  0.00    +0.000 A 
ATOM     22  H   UNL     1      52.820   7.144  19.871  0.00  0.00    +0.000 HD
ENDBRANCH  11  12
ENDBRANCH   8  11
ENDBRANCH   7   8
ENDBRANCH   1   7
BRANCH   4  23
ATOM     23  C   UNL     1      43.765   3.746  11.852  0.00  0.00    +0.000 C 
BRANCH  23  24
ATOM     24  O   UNL     1      42.593   4.550  11.680  0.00  0.00    +0.000 OA
ATOM     25  H   UNL     1      42.638   4.944  10.793  0.00  0.00    +0.000 HD
ENDBRANCH  23  24
BRANCH  23  26
ATOM     26  C   UNL     1      44.084   3.064  10.506  0.00  0.00    +0.000 C 
BRANCH  26  27
ATOM     27  N   UNL     1      44.523   4.000   9.465  0.00  0.00    +0.000 NA
ATOM     28  H   UNL     1      45.328   4.532   9.794  0.00  0.00    +0.000 HD
BRANCH  27  29
ATOM     29  C   UNL     1      44.851   3.304   8.220  0.00  0.00    +0.000 C 
ATOM     30  C   UNL     1      46.032   3.970   7.504  0.00  0.00    +0.000 C 
ATOM     31  C   UNL     1      47.089   2.879   7.393  0.00  0.00    +0.000 C 
ATOM     32  N   UNL     1      46.297   1.648   7.368  0.00  0.00    +0.000 NA
ATOM     33  C   UNL     1      47.099   0.459   7.608  0.00  0.00    +0.000 C 
ATOM     34  C   UNL     1      45.297   1.844   8.416  0.00  0.00    +0.000 C 
ENDBRANCH  27  29
ENDBRANCH  26  27
ENDBRANCH  23  26
ENDBRANCH   4  23
TORSDOF 9
ENDMDL
MODEL 8
REMARK VINA RESULT:    -5.953      2.670      3.682
REMARK INTER + INTRA:          -9.699
REMARK INTER:                  -8.946
REMARK INTRA:                  -0.754
REMARK UNBOUND:                -0.788
REMARK  Name = 
REMARK  11 active torsions:
REMARK  status: ('A' for Active; 'I' for Inactive)
REMARK    1  A    between atoms: C_1  and  C_2
REMARK    2  A    between atoms: C_2  and  N_3
REMARK    3  A    between atoms: C_2  and  C_21
REMARK    4  A    between atoms: N_3  and  C_4
REMARK    5  A    between atoms: C_4  and  C_5
REMARK    6  A    between atoms: C_8  and  C_9
REMARK    7  A    between atoms: C_9  and  O_10
REMARK    8  A    between atoms: C_9  and  C_11
REMARK    9  A    between atoms: C_11  and  N_12
REMARK   10  A    between atoms: N_12  and  C_13
REMARK   11  A    between atoms: N_16  and  C_17
REMARK                            x       y       z     vdW  Elec       q    Type
REMARK                         _______ _______ _______ _____ _____    ______ ____
ROOT
ATOM      1  C   UNL     1      48.227   5.530  15.757  0.00  0.00    +0.000 A 
ATOM      2  C   UNL     1      47.237   4.737  15.160  0.00  0.00    +0.000 A 
ATOM      3  C   UNL     1      46.583   5.167  14.005  0.00  0.00    +0.000 A 
ATOM      4  C   UNL     1      46.913   6.396  13.418  0.00  0.00    +0.000 A 
ATOM      5  C   UNL     1      47.933   7.168  13.998  0.00  0.00    +0.000 A 
ATOM      6  C   UNL     1      48.581   6.741  15.156  0.00  0.00    +0.000 A 
ENDROOT
BRANCH   1   7
ATOM      7  C   UNL     1      48.830   5.127  17.081  0.00  0.00    +0.000 C 
BRANCH   7   8
ATOM      8  N   UNL     1      50.260   4.865  16.967  0.00  0.00    +0.000 NA
ATOM      9  H   UNL     1      50.638   5.486  16.249  0.00  0.00    +0.000 HD
BRANCH   8  11
ATOM     10  C   UNL     1      50.227   4.671  19.476  0.00  0.00    +0.000 C 
ATOM     11  C   UNL     1      50.988   5.110  18.218  0.00  0.00    +0.000 C 
BRANCH  11  12
ATOM     12  C   UNL     1      52.294   4.354  18.093  0.00  0.00    +0.000 A 
ATOM     13  C   UNL     1      53.544   4.936  18.257  0.00  0.00    +0.000 A 
ATOM     14  S   UNL     1      54.832   3.837  18.050  0.00  0.00    +0.000 S 
ATOM     15  C   UNL     1      53.760   2.549  17.754  0.00  0.00    +0.000 A 
ATOM     16  N   UNL     1      54.223   1.295  17.506  0.00  0.00    +0.000 NA
ATOM     17  C   UNL     1      53.293   0.417  17.315  0.00  0.00    +0.000 A 
ATOM     18  N   UNL     1      51.950   0.675  17.343  0.00  0.00    +0.000 N 
ATOM     19  C   UNL     1      51.428   1.930  17.580  0.00  0.00    +0.000 A 
ATOM     20  O   UNL     1      50.220   2.125  17.584  0.00  0.00    +0.000 OA
ATOM     21  C   UNL     1      52.437   2.949  17.808  0.00  0.00    +0.000 A 
ATOM     22  H   UNL     1      51.275  -0.060  17.179  0.00  0.00    +0.000 HD
ENDBRANCH  11  12
ENDBRANCH   8  11
ENDBRANCH   7   8
ENDBRANCH   1   7
BRANCH   4  23
ATOM     23  C   UNL     1      46.191   6.860  12.171  0.00  0.00    +0.000 C 
BRANCH  23  24
ATOM     24  O   UNL     1      46.747   6.231  11.012  0.00  0.00    +0.000 OA
ATOM     25  H   UNL     1      46.154   6.417  10.266  0.00  0.00    +0.000 HD
ENDBRANCH  23  24
BRANCH  23  26
ATOM     26  C   UNL     1      44.678   6.557  12.205  0.00  0.00    +0.000 C 
BRANCH  26  27
ATOM     27  N   UNL     1      44.043   6.606  10.883  0.00  0.00    +0.000 NA
ATOM     28  H   UNL     1      44.747   6.778  10.166  0.00  0.00    +0.000 HD
BRANCH  27  29
ATOM     29  C   UNL     1      43.316   5.370  10.591  0.00  0.00    +0.000 C 
ATOM     30  C   UNL     1      44.053   4.523   9.547  0.00  0.00    +0.000 C 
ATOM     31  C   UNL     1      44.324   3.194  10.239  0.00  0.00    +0.000 C 
ATOM     32  N   UNL     1      43.234   3.096  11.212  0.00  0.00    +0.000 NA
ATOM     33  C   UNL     1      43.472   2.077  12.222  0.00  0.00    +0.000 C 
ATOM     34  C   UNL     1      43.159   4.432  11.801  0.00  0.00    +0.000 C 
ENDBRANCH  27  29
ENDBRANCH  26  27
ENDBRANCH  23  26
ENDBRANCH   4  23
TORSDOF 9
ENDMDL
MODEL 9
REMARK VINA RESULT:    -5.740      3.184      4.536
REMARK INTER + INTRA:          -9.381
REMARK INTER:                  -7.732
REMARK INTRA:                  -1.649
REMARK UNBOUND:                -0.788
REMARK  Name = 
REMARK  11 active torsions:
REMARK  status: ('A' for Active; 'I' for Inactive)
REMARK    1  A    between atoms: C_1  and  C_2
REMARK    2  A    between atoms: C_2  and  N_3
REMARK    3  A    between atoms: C_2  and  C_21
REMARK    4  A    between atoms: N_3  and  C_4
REMARK    5  A    between atoms: C_4  and  C_5
REMARK    6  A    between atoms: C_8  and  C_9
REMARK    7  A    between atoms: C_9  and  O_10
REMARK    8  A    between atoms: C_9  and  C_11
REMARK    9  A    between atoms: C_11  and  N_12
REMARK   10  A    between atoms: N_12  and  C_13
REMARK   11  A    between atoms: N_16  and  C_17
REMARK                            x       y       z     vdW  Elec       q    Type
REMARK                         _______ _______ _______ _____ _____    ______ ____
ROOT
ATOM      1  C   UNL     1      47.019   8.321  13.161  0.00  0.00    +0.000 A 
ATOM      2  C   UNL     1      47.740   7.331  12.481  0.00  0.00    +0.000 A 
ATOM      3  C   UNL     1      47.136   6.576  11.475  0.00  0.00    +0.000 A 
ATOM      4  C   UNL     1      45.799   6.805  11.122  0.00  0.00    +0.000 A 
ATOM      5  C   UNL     1      45.093   7.826  11.779  0.00  0.00    +0.000 A 
ATOM      6  C   UNL     1      45.696   8.574  12.789  0.00  0.00    +0.000 A 
ENDROOT
BRANCH   1   7
ATOM      7  C   UNL     1      47.632   9.036  14.341  0.00  0.00    +0.000 C 
BRANCH   7   8
ATOM      8  N   UNL     1      48.198   8.102  15.307  0.00  0.00    +0.000 NA
ATOM      9  H   UNL     1      48.936   7.573  14.839  0.00  0.00    +0.000 HD
BRANCH   8  11
ATOM     10  C   UNL     1      48.131  10.122  16.807  0.00  0.00    +0.000 C 
ATOM     11  C   UNL     1      48.781   8.771  16.476  0.00  0.00    +0.000 C 
BRANCH  11  12
ATOM     12  C   UNL     1      48.619   7.805  17.631  0.00  0.00    +0.000 A 
ATOM     13  C   UNL     1      47.750   8.008  18.694  0.00  0.00    +0.000 A 
ATOM     14  S   UNL     1      47.791   6.753  19.848  0.00  0.00    +0.000 S 
ATOM     15  C   UNL     1      48.956   5.892  18.955  0.00  0.00    +0.000 A 
ATOM     16  N   UNL     1      49.431   4.696  19.392  0.00  0.00    +0.000 NA
ATOM     17  C   UNL     1      50.300   4.153  18.602  0.00  0.00    +0.000 A 
ATOM     18  N   UNL     1      50.740   4.694  17.425  0.00  0.00    +0.000 N 
ATOM     19  C   UNL     1      50.298   5.909  16.942  0.00  0.00    +0.000 A 
ATOM     20  O   UNL     1      50.725   6.367  15.890  0.00  0.00    +0.000 OA
ATOM     21  C   UNL     1      49.314   6.553  17.793  0.00  0.00    +0.000 A 
ATOM     22  H   UNL     1      51.426   4.217  16.858  0.00  0.00    +0.000 HD
ENDBRANCH  11  12
ENDBRANCH   8  11
ENDBRANCH   7   8
ENDBRANCH   1   7
BRANCH   4  23
ATOM     23  C   UNL     1      45.148   5.974  10.036  0.00  0.00    +0.000 C 
BRANCH  23  24
ATOM     24  O   UNL     1      46.060   5.773   8.951  0.00  0.00    +0.000 OA
ATOM     25  H   UNL     1      45.712   6.259   8.185  0.00  0.00    +0.000 HD
ENDBRANCH  23  24
BRANCH  23  26
ATOM     26  C   UNL     1      44.682   4.590  10.536  0.00  0.00    +0.000 C 
BRANCH  26  27
ATOM     27  N   UNL     1      43.784   4.659  11.694  0.00  0.00    +0.000 NA
ATOM     28  H   UNL     1      42.872   4.276  11.449  0.00  0.00    +0.000 HD
BRANCH  27  29
ATOM     29  C   UNL     1      44.339   3.948  12.846  0.00  0.00    +0.000 C 
ATOM     30  C   UNL     1      45.399   2.928  12.414  0.00  0.00    +0.000 C 
ATOM     31  C   UNL     1      46.669   3.349  13.141  0.00  0.00    +0.000 C 
ATOM     32  N   UNL     1      46.160   4.014  14.342  0.00  0.00    +0.000 NA
ATOM     33  C   UNL     1      47.178   4.799  15.024  0.00  0.00    +0.000 C 
ATOM     34  C   UNL     1      45.070   4.855  13.852  0.00  0.00    +0.000 C 
ENDBRANCH  27  29
ENDBRANCH  26  27
ENDBRANCH  23  26
ENDBRANCH   4  23
TORSDOF 9
ENDMDL
