MODEL 1
REMARK VINA RESULT:    -7.292      0.000      0.000
REMARK INTER + INTRA:          -9.588
REMARK INTER:                  -9.210
REMARK INTRA:                  -0.377
REMARK UNBOUND:                -0.377
REMARK  Name = 
REMARK  5 active torsions:
REMARK  status: ('A' for Active; 'I' for Inactive)
REMARK    1  A    between atoms: N_1  and  C_2
REMARK    2  A    between atoms: C_2  and  C_3
REMARK    3  A    between atoms: C_3  and  C_4
REMARK    4  A    between atoms: N_8  and  C_9
REMARK    5  A    between atoms: C_9  and  C_10
REMARK                            x       y       z     vdW  Elec       q    Type
REMARK                         _______ _______ _______ _____ _____    ______ ____
ROOT
ATOM      1  C   UNL     1      46.048   2.293   8.001  0.00  0.00    +0.000 A 
ATOM      2  C   UNL     1      45.224   1.946   9.047  0.00  0.00    +0.000 A 
ATOM      3  N   UNL     1      44.426   2.815   9.696  0.00  0.00    +0.000 NA
ATOM      4  C   UNL     1      44.444   4.089   9.283  0.00  0.00    +0.000 A 
ATOM      5  N   UNL     1      43.627   5.028   9.881  0.00  0.00    +0.000 N 
ATOM      6  N   UNL     1      45.211   4.531   8.279  0.00  0.00    +0.000 NA
ATOM      7  C   UNL     1      45.995   3.625   7.656  0.00  0.00    +0.000 A 
ATOM      8  H   UNL     1      43.907   5.951   9.580  0.00  0.00    +0.000 HD
ENDROOT
BRANCH   1   9
ATOM      9  C   UNL     1      46.894   1.292   7.277  0.00  0.00    +0.000 C 
BRANCH   9  10
ATOM     10  C   UNL     1      48.235   1.889   6.836  0.00  0.00    +0.000 C 
BRANCH  10  11
ATOM     11  N   UNL     1      48.355   1.887   5.381  0.00  0.00    +0.000 NA
ATOM     12  H   UNL     1      47.440   1.701   4.968  0.00  0.00    +0.000 HD
ATOM     13  H   UNL     1      48.957   1.120   5.081  0.00  0.00    +0.000 HD
ENDBRANCH  10  11
ENDBRANCH   9  10
ENDBRANCH   1   9
BRANCH   5  14
ATOM     14  C   UNL     1      43.344   4.853  11.290  0.00  0.00    +0.000 C 
BRANCH  14  15
ATOM     15  C   UNL     1      44.524   5.268  12.140  0.00  0.00    +0.000 A 
ATOM     16  C   UNL     1      45.113   4.369  13.035  0.00  0.00    +0.000 A 
ATOM     17  C   UNL     1      46.231   4.773  13.750  0.00  0.00    +0.000 A 
ATOM     18  N   UNL     1      46.793   5.995  13.638  0.00  0.00    +0.000 NA
ATOM     19  C   UNL     1      46.212   6.851  12.771  0.00  0.00    +0.000 A 
ATOM     20  C   UNL     1      45.096   6.539  12.009  0.00  0.00    +0.000 A 
ENDBRANCH  14  15
ENDBRANCH   5  14
TORSDOF 5
ENDMDL
MODEL 2
REMARK VINA RESULT:    -6.809      1.471      6.390
REMARK INTER + INTRA:          -8.978
REMARK INTER:                  -8.643
REMARK INTRA:                  -0.335
REMARK UNBOUND:                -0.377
REMARK  Name = 
REMARK  5 active torsions:
REMARK  status: ('A' for Active; 'I' for Inactive)
REMARK    1  A    between atoms: N_1  and  C_2
REMARK    2  A    between atoms: C_2  and  C_3
REMARK    3  A    between atoms: C_3  and  C_4
REMARK    4  A    between atoms: N_8  and  C_9
REMARK    5  A    between atoms: C_9  and  C_10
REMARK                            x       y       z     vdW  Elec       q    Type
REMARK                         _______ _______ _______ _____ _____    ______ ____
ROOT
ATOM      1  C   UNL     1      46.207   4.925  12.945  0.00  0.00    +0.000 A 
ATOM      2  C   UNL     1      46.066   5.650  11.784  0.00  0.00    +0.000 A 
ATOM      3  N   UNL     1      45.453   5.186  10.678  0.00  0.00    +0.000 NA
ATOM      4  C   UNL     1      44.950   3.945  10.731  0.00  0.00    +0.000 A 
ATOM      5  N   UNL     1      44.279   3.418   9.645  0.00  0.00    +0.000 N 
ATOM      6  N   UNL     1      45.036   3.157  11.810  0.00  0.00    +0.000 NA
ATOM      7  C   UNL     1      45.659   3.663  12.896  0.00  0.00    +0.000 A 
ATOM      8  H   UNL     1      44.141   2.427   9.790  0.00  0.00    +0.000 HD
ENDROOT
BRANCH   1   9
ATOM      9  C   UNL     1      46.862   5.487  14.169  0.00  0.00    +0.000 C 
BRANCH   9  10
ATOM     10  C   UNL     1      47.225   4.390  15.177  0.00  0.00    +0.000 C 
BRANCH  10  11
ATOM     11  N   UNL     1      47.164   4.898  16.545  0.00  0.00    +0.000 NA
ATOM     12  H   UNL     1      47.754   4.320  17.145  0.00  0.00    +0.000 HD
ATOM     13  H   UNL     1      46.217   4.802  16.911  0.00  0.00    +0.000 HD
ENDBRANCH  10  11
ENDBRANCH   9  10
ENDBRANCH   1   9
BRANCH   5  14
ATOM     14  C   UNL     1      44.720   3.836   8.331  0.00  0.00    +0.000 C 
BRANCH  14  15
ATOM     15  C   UNL     1      45.805   2.925   7.804  0.00  0.00    +0.000 A 
ATOM     16  C   UNL     1      46.820   3.423   6.980  0.00  0.00    +0.000 A 
ATOM     17  C   UNL     1      47.828   2.563   6.569  0.00  0.00    +0.000 A 
ATOM     18  N   UNL     1      47.893   1.260   6.915  0.00  0.00    +0.000 NA
ATOM     19  C   UNL     1      46.905   0.795   7.708  0.00  0.00    +0.000 A 
ATOM     20  C   UNL     1      45.857   1.577   8.175  0.00  0.00    +0.000 A 
ENDBRANCH  14  15
ENDBRANCH   5  14
TORSDOF 5
ENDMDL
MODEL 3
REMARK VINA RESULT:    -6.618      1.593      6.205
REMARK INTER + INTRA:          -8.736
REMARK INTER:                  -8.349
REMARK INTRA:                  -0.387
REMARK UNBOUND:                -0.377
REMARK  Name = 
REMARK  5 active torsions:
REMARK  status: ('A' for Active; 'I' for Inactive)
REMARK    1  A    between atoms: N_1  and  C_2
REMARK    2  A    between atoms: C_2  and  C_3
REMARK    3  A    between atoms: C_3  and  C_4
REMARK    4  A    between atoms: N_8  and  C_9
REMARK    5  A    between atoms: C_9  and  C_10
REMARK                            x       y       z     vdW  Elec       q    Type
REMARK                         _______ _______ _______ _____ _____    ______ ____
ROOT
ATOM      1  C   UNL     1      46.637   5.169  13.149  0.00  0.00    +0.000 A 
ATOM      2  C   UNL     1      46.316   5.849  11.996  0.00  0.00    +0.000 A 
ATOM      3  N   UNL     1      45.601   5.319  10.985  0.00  0.00    +0.000 NA
ATOM      4  C   UNL     1      45.180   4.055  11.129  0.00  0.00    +0.000 A 
ATOM      5  N   UNL     1      44.415   3.460  10.147  0.00  0.00    +0.000 N 
ATOM      6  N   UNL     1      45.441   3.307  12.208  0.00  0.00    +0.000 NA
ATOM      7  C   UNL     1      46.160   3.879  13.197  0.00  0.00    +0.000 A 
ATOM      8  H   UNL     1      44.352   2.468  10.331  0.00  0.00    +0.000 HD
ENDROOT
BRANCH   1   9
ATOM      9  C   UNL     1      47.401   5.803  14.270  0.00  0.00    +0.000 C 
BRANCH   9  10
ATOM     10  C   UNL     1      48.167   7.048  13.807  0.00  0.00    +0.000 C 
BRANCH  10  11
ATOM     11  N   UNL     1      49.606   6.801  13.793  0.00  0.00    +0.000 NA
ATOM     12  H   UNL     1      50.083   7.615  13.404  0.00  0.00    +0.000 HD
ATOM     13  H   UNL     1      49.821   6.026  13.167  0.00  0.00    +0.000 HD
ENDBRANCH  10  11
ENDBRANCH   9  10
ENDBRANCH   1   9
BRANCH   5  14
ATOM     14  C   UNL     1      44.669   3.860   8.779  0.00  0.00    +0.000 C 
BRANCH  14  15
ATOM     15  C   UNL     1      45.699   2.964   8.130  0.00  0.00    +0.000 A 
ATOM     16  C   UNL     1      46.696   3.498   7.306  0.00  0.00    +0.000 A 
ATOM     17  C   UNL     1      47.656   2.646   6.781  0.00  0.00    +0.000 A 
ATOM     18  N   UNL     1      47.690   1.317   7.014  0.00  0.00    +0.000 NA
ATOM     19  C   UNL     1      46.721   0.817   7.809  0.00  0.00    +0.000 A 
ATOM     20  C   UNL     1      45.720   1.588   8.385  0.00  0.00    +0.000 A 
ENDBRANCH  14  15
ENDBRANCH   5  14
TORSDOF 5
ENDMDL
MODEL 4
REMARK VINA RESULT:    -6.606      1.682      6.347
REMARK INTER + INTRA:          -8.721
REMARK INTER:                  -8.351
REMARK INTRA:                  -0.371
REMARK UNBOUND:                -0.377
REMARK  Name = 
REMARK  5 active torsions:
REMARK  status: ('A' for Active; 'I' for Inactive)
REMARK    1  A    between atoms: N_1  and  C_2
REMARK    2  A    between atoms: C_2  and  C_3
REMARK    3  A    between atoms: C_3  and  C_4
REMARK    4  A    between atoms: N_8  and  C_9
REMARK    5  A    between atoms: C_9  and  C_10
REMARK                            x       y       z     vdW  Elec       q    Type
REMARK                         _______ _______ _______ _____ _____    ______ ____
ROOT
ATOM      1  C   UNL     1      45.696   6.478  12.251  0.00  0.00    +0.000 A 
ATOM      2  C   UNL     1      44.886   6.424  11.140  0.00  0.00    +0.000 A 
ATOM      3  N   UNL     1      44.543   5.282  10.514  0.00  0.00    +0.000 NA
ATOM      4  C   UNL     1      45.023   4.138  11.020  0.00  0.00    +0.000 A 
ATOM      5  N   UNL     1      44.685   2.928  10.448  0.00  0.00    +0.000 N 
ATOM      6  N   UNL     1      45.821   4.081  12.093  0.00  0.00    +0.000 NA
ATOM      7  C   UNL     1      46.139   5.251  12.689  0.00  0.00    +0.000 A 
ATOM      8  H   UNL     1      45.278   2.204  10.831  0.00  0.00    +0.000 HD
ENDROOT
BRANCH   1   9
ATOM      9  C   UNL     1      46.026   7.764  12.944  0.00  0.00    +0.000 C 
BRANCH   9  10
ATOM     10  C   UNL     1      45.680   8.983  12.082  0.00  0.00    +0.000 C 
BRANCH  10  11
ATOM     11  N   UNL     1      44.578   9.741  12.668  0.00  0.00    +0.000 NA
ATOM     12  H   UNL     1      44.954  10.438  13.312  0.00  0.00    +0.000 HD
ATOM     13  H   UNL     1      43.993   9.126  13.233  0.00  0.00    +0.000 HD
ENDBRANCH  10  11
ENDBRANCH   9  10
ENDBRANCH   1   9
BRANCH   5  14
ATOM     14  C   UNL     1      44.467   2.912   9.018  0.00  0.00    +0.000 C 
BRANCH  14  15
ATOM     15  C   UNL     1      45.704   2.447   8.282  0.00  0.00    +0.000 A 
ATOM     16  C   UNL     1      46.058   1.094   8.258  0.00  0.00    +0.000 A 
ATOM     17  C   UNL     1      47.167   0.706   7.521  0.00  0.00    +0.000 A 
ATOM     18  N   UNL     1      47.939   1.561   6.818  0.00  0.00    +0.000 NA
ATOM     19  C   UNL     1      47.585   2.863   6.853  0.00  0.00    +0.000 A 
ATOM     20  C   UNL     1      46.492   3.348   7.557  0.00  0.00    +0.000 A 
ENDBRANCH  14  15
ENDBRANCH   5  14
TORSDOF 5
ENDMDL
MODEL 5
REMARK VINA RESULT:    -5.848      1.773      2.498
REMARK INTER + INTRA:          -7.764
REMARK INTER:                  -7.466
REMARK INTRA:                  -0.297
REMARK UNBOUND:                -0.377
REMARK  Name = 
REMARK  5 active torsions:
REMARK  status: ('A' for Active; 'I' for Inactive)
REMARK    1  A    between atoms: N_1  and  C_2
REMARK    2  A    between atoms: C_2  and  C_3
REMARK    3  A    between atoms: C_3  and  C_4
REMARK    4  A    between atoms: N_8  and  C_9
REMARK    5  A    between atoms: C_9  and  C_10
REMARK                            x       y       z     vdW  Elec       q    Type
REMARK                         _______ _______ _______ _____ _____    ______ ____
ROOT
ATOM      1  C   UNL     1      45.193   2.686   9.079  0.00  0.00    +0.000 A 
ATOM      2  C   UNL     1      44.573   2.918  10.286  0.00  0.00    +0.000 A 
ATOM      3  N   UNL     1      44.465   4.133  10.855  0.00  0.00    +0.000 NA
ATOM      4  C   UNL     1      44.993   5.170  10.190  0.00  0.00    +0.000 A 
ATOM      5  N   UNL     1      44.890   6.449  10.699  0.00  0.00    +0.000 N 
ATOM      6  N   UNL     1      45.619   5.053   9.013  0.00  0.00    +0.000 NA
ATOM      7  C   UNL     1      45.703   3.815   8.479  0.00  0.00    +0.000 A 
ATOM      8  H   UNL     1      45.498   7.064  10.175  0.00  0.00    +0.000 HD
ENDROOT
BRANCH   1   9
ATOM      9  C   UNL     1      45.260   1.326   8.458  0.00  0.00    +0.000 C 
BRANCH   9  10
ATOM     10  C   UNL     1      46.636   1.048   7.840  0.00  0.00    +0.000 C 
BRANCH  10  11
ATOM     11  N   UNL     1      46.875  -0.388   7.723  0.00  0.00    +0.000 NA
ATOM     12  H   UNL     1      47.197  -0.599   6.777  0.00  0.00    +0.000 HD
ATOM     13  H   UNL     1      46.000  -0.899   7.839  0.00  0.00    +0.000 HD
ENDBRANCH  10  11
ENDBRANCH   9  10
ENDBRANCH   1   9
BRANCH   5  14
ATOM     14  C   UNL     1      44.896   6.589  12.139  0.00  0.00    +0.000 C 
BRANCH  14  15
ATOM     15  C   UNL     1      46.228   7.110  12.632  0.00  0.00    +0.000 A 
ATOM     16  C   UNL     1      46.375   8.446  13.018  0.00  0.00    +0.000 A 
ATOM     17  C   UNL     1      47.599   8.865  13.520  0.00  0.00    +0.000 A 
ATOM     18  N   UNL     1      48.670   8.057  13.659  0.00  0.00    +0.000 NA
ATOM     19  C   UNL     1      48.512   6.771  13.280  0.00  0.00    +0.000 A 
ATOM     20  C   UNL     1      47.328   6.257  12.772  0.00  0.00    +0.000 A 
ENDBRANCH  14  15
ENDBRANCH   5  14
TORSDOF 5
ENDMDL
MODEL 6
REMARK VINA RESULT:    -5.654      3.860      6.444
REMARK INTER + INTRA:          -7.519
REMARK INTER:                  -7.227
REMARK INTRA:                  -0.292
REMARK UNBOUND:                -0.377
REMARK  Name = 
REMARK  5 active torsions:
REMARK  status: ('A' for Active; 'I' for Inactive)
REMARK    1  A    between atoms: N_1  and  C_2
REMARK    2  A    between atoms: C_2  and  C_3
REMARK    3  A    between atoms: C_3  and  C_4
REMARK    4  A    between atoms: N_8  and  C_9
REMARK    5  A    between atoms: C_9  and  C_10
REMARK                            x       y       z     vdW  Elec       q    Type
REMARK                         _______ _______ _______ _____ _____    ______ ____
ROOT
ATOM      1  C   UNL     1      46.216   5.602  12.222  0.00  0.00    +0.000 A 
ATOM      2  C   UNL     1      47.336   5.923  12.956  0.00  0.00    +0.000 A 
ATOM      3  N   UNL     1      47.669   5.329  14.117  0.00  0.00    +0.000 NA
ATOM      4  C   UNL     1      46.855   4.365  14.568  0.00  0.00    +0.000 A 
ATOM      5  N   UNL     1      47.154   3.690  15.735  0.00  0.00    +0.000 N 
ATOM      6  N   UNL     1      45.741   3.980  13.934  0.00  0.00    +0.000 NA
ATOM      7  C   UNL     1      45.445   4.603  12.773  0.00  0.00    +0.000 A 
ATOM      8  H   UNL     1      46.351   3.145  16.018  0.00  0.00    +0.000 HD
ENDROOT
BRANCH   1   9
ATOM      9  C   UNL     1      45.896   6.258  10.915  0.00  0.00    +0.000 C 
BRANCH   9  10
ATOM     10  C   UNL     1      45.245   5.280   9.930  0.00  0.00    +0.000 C 
BRANCH  10  11
ATOM     11  N   UNL     1      45.974   5.252   8.665  0.00  0.00    +0.000 NA
ATOM     12  H   UNL     1      46.870   5.727   8.781  0.00  0.00    +0.000 HD
ATOM     13  H   UNL     1      45.467   5.784   7.958  0.00  0.00    +0.000 HD
ENDBRANCH  10  11
ENDBRANCH   9  10
ENDBRANCH   1   9
BRANCH   5  14
ATOM     14  C   UNL     1      47.842   4.433  16.770  0.00  0.00    +0.000 C 
BRANCH  14  15
ATOM     15  C   UNL     1      49.191   3.822  17.076  0.00  0.00    +0.000 A 
ATOM     16  C   UNL     1      50.252   4.616  17.524  0.00  0.00    +0.000 A 
ATOM     17  C   UNL     1      51.453   4.003  17.850  0.00  0.00    +0.000 A 
ATOM     18  N   UNL     1      51.667   2.674  17.760  0.00  0.00    +0.000 NA
ATOM     19  C   UNL     1      50.634   1.923  17.324  0.00  0.00    +0.000 A 
ATOM     20  C   UNL     1      49.394   2.441  16.979  0.00  0.00    +0.000 A 
ENDBRANCH  14  15
ENDBRANCH   5  14
TORSDOF 5
ENDMDL
MODEL 7
REMARK VINA RESULT:    -5.627      3.870      8.184
REMARK INTER + INTRA:          -7.484
REMARK INTER:                  -7.205
REMARK INTRA:                  -0.279
REMARK UNBOUND:                -0.377
REMARK  Name = 
REMARK  5 active torsions:
REMARK  status: ('A' for Active; 'I' for Inactive)
REMARK    1  A    between atoms: N_1  and  C_2
REMARK    2  A    between atoms: C_2  and  C_3
REMARK    3  A    between atoms: C_3  and  C_4
REMARK    4  A    between atoms: N_8  and  C_9
REMARK    5  A    between atoms: C_9  and  C_10
REMARK                            x       y       z     vdW  Elec       q    Type
REMARK                         _______ _______ _______ _____ _____    ______ ____
ROOT
ATOM      1  C   UNL     1      49.124   4.161  17.634  0.00  0.00    +0.000 A 
ATOM      2  C   UNL     1      48.348   5.152  17.076  0.00  0.00    +0.000 A 
ATOM      3  N   UNL     1      47.574   4.978  15.988  0.00  0.00    +0.000 NA
ATOM      4  C   UNL     1      47.564   3.760  15.431  0.00  0.00    +0.000 A 
ATOM      5  N   UNL     1      46.768   3.502  14.334  0.00  0.00    +0.000 N 
ATOM      6  N   UNL     1      48.284   2.729  15.892  0.00  0.00    +0.000 NA
ATOM      7  C   UNL     1      49.046   2.949  16.986  0.00  0.00    +0.000 A 
ATOM      8  H   UNL     1      47.027   2.608  13.939  0.00  0.00    +0.000 HD
ENDROOT
BRANCH   1   9
ATOM      9  C   UNL     1      49.944   4.380  18.867  0.00  0.00    +0.000 C 
BRANCH   9  10
ATOM     10  C   UNL     1      49.077   4.778  20.066  0.00  0.00    +0.000 C 
BRANCH  10  11
ATOM     11  N   UNL     1      48.332   3.630  20.577  0.00  0.00    +0.000 NA
ATOM     12  H   UNL     1      48.949   2.817  20.610  0.00  0.00    +0.000 HD
ATOM     13  H   UNL     1      47.583   3.385  19.931  0.00  0.00    +0.000 HD
ENDBRANCH  10  11
ENDBRANCH   9  10
ENDBRANCH   1   9
BRANCH   5  14
ATOM     14  C   UNL     1      46.547   4.592  13.407  0.00  0.00    +0.000 C 
BRANCH  14  15
ATOM     15  C   UNL     1      45.231   4.433  12.681  0.00  0.00    +0.000 A 
ATOM     16  C   UNL     1      45.017   3.360  11.810  0.00  0.00    +0.000 A 
ATOM     17  C   UNL     1      43.773   3.222  11.212  0.00  0.00    +0.000 A 
ATOM     18  N   UNL     1      42.743   4.069  11.416  0.00  0.00    +0.000 NA
ATOM     19  C   UNL     1      42.966   5.100  12.257  0.00  0.00    +0.000 A 
ATOM     20  C   UNL     1      44.172   5.321  12.906  0.00  0.00    +0.000 A 
ENDBRANCH  14  15
ENDBRANCH   5  14
TORSDOF 5
ENDMDL
MODEL 8
REMARK VINA RESULT:    -5.448      3.314      7.772
REMARK INTER + INTRA:          -7.259
REMARK INTER:                  -7.007
REMARK INTRA:                  -0.252
REMARK UNBOUND:                -0.377
REMARK  Name = 
REMARK  5 active torsions:
REMARK  status: ('A' for Active; 'I' for Inactive)
REMARK    1  A    between atoms: N_1  and  C_2
REMARK    2  A    between atoms: C_2  and  C_3
REMARK    3  A    between atoms: C_3  and  C_4
REMARK    4  A    between atoms: N_8  and  C_9
REMARK    5  A    between atoms: C_9  and  C_10
REMARK                            x       y       z     vdW  Elec       q    Type
REMARK                         _______ _______ _______ _____ _____    ______ ____
ROOT
ATOM      1  C   UNL     1      48.507   4.474  16.973  0.00  0.00    +0.000 A 
ATOM      2  C   UNL     1      47.503   3.694  16.447  0.00  0.00    +0.000 A 
ATOM      3  N   UNL     1      46.846   3.981  15.307  0.00  0.00    +0.000 NA
ATOM      4  C   UNL     1      47.210   5.093  14.654  0.00  0.00    +0.000 A 
ATOM      5  N   UNL     1      46.602   5.431  13.461  0.00  0.00    +0.000 N 
ATOM      6  N   UNL     1      48.171   5.922  15.081  0.00  0.00    +0.000 NA
ATOM      7  C   UNL     1      48.802   5.594  16.230  0.00  0.00    +0.000 A 
ATOM      8  H   UNL     1      46.859   6.378  13.215  0.00  0.00    +0.000 HD
ENDROOT
BRANCH   1   9
ATOM      9  C   UNL     1      49.241   4.104  18.224  0.00  0.00    +0.000 C 
BRANCH   9  10
ATOM     10  C   UNL     1      48.567   4.681  19.474  0.00  0.00    +0.000 C 
BRANCH  10  11
ATOM     11  N   UNL     1      48.380   3.649  20.490  0.00  0.00    +0.000 NA
ATOM     12  H   UNL     1      47.381   3.495  20.633  0.00  0.00    +0.000 HD
ATOM     13  H   UNL     1      48.743   3.972  21.387  0.00  0.00    +0.000 HD
ENDBRANCH  10  11
ENDBRANCH   9  10
ENDBRANCH   1   9
BRANCH   5  14
ATOM     14  C   UNL     1      45.211   5.065  13.302  0.00  0.00    +0.000 C 
BRANCH  14  15
ATOM     15  C   UNL     1      44.938   4.551  11.906  0.00  0.00    +0.000 A 
ATOM     16  C   UNL     1      45.382   5.258  10.784  0.00  0.00    +0.000 A 
ATOM     17  C   UNL     1      45.160   4.719   9.525  0.00  0.00    +0.000 A 
ATOM     18  N   UNL     1      44.535   3.543   9.310  0.00  0.00    +0.000 NA
ATOM     19  C   UNL     1      44.111   2.875  10.404  0.00  0.00    +0.000 A 
ATOM     20  C   UNL     1      44.289   3.328  11.703  0.00  0.00    +0.000 A 
ENDBRANCH  14  15
ENDBRANCH   5  14
TORSDOF 5
ENDMDL
MODEL 9
REMARK VINA RESULT:    -5.433      3.126      5.024
REMARK INTER + INTRA:          -7.239
REMARK INTER:                  -6.988
REMARK INTRA:                  -0.250
REMARK UNBOUND:                -0.377
REMARK  Name = 
REMARK  5 active torsions:
REMARK  status: ('A' for Active; 'I' for Inactive)
REMARK    1  A    between atoms: N_1  and  C_2
REMARK    2  A    between atoms: C_2  and  C_3
REMARK    3  A    between atoms: C_3  and  C_4
REMARK    4  A    between atoms: N_8  and  C_9
REMARK    5  A    between atoms: C_9  and  C_10
REMARK                            x       y       z     vdW  Elec       q    Type
REMARK                         _______ _______ _______ _____ _____    ______ ____
ROOT
ATOM      1  C   UNL     1      44.894   4.525  11.018  0.00  0.00    +0.000 A 
ATOM      2  C   UNL     1      44.863   3.573  12.012  0.00  0.00    +0.000 A 
ATOM      3  N   UNL     1      45.466   3.715  13.207  0.00  0.00    +0.000 NA
ATOM      4  C   UNL     1      46.124   4.860  13.430  0.00  0.00    +0.000 A 
ATOM      5  N   UNL     1      46.737   5.087  14.646  0.00  0.00    +0.000 N 
ATOM      6  N   UNL     1      46.217   5.847  12.531  0.00  0.00    +0.000 NA
ATOM      7  C   UNL     1      45.597   5.662  11.345  0.00  0.00    +0.000 A 
ATOM      8  H   UNL     1      47.334   5.899  14.570  0.00  0.00    +0.000 HD
ENDROOT
BRANCH   1   9
ATOM      9  C   UNL     1      44.180   4.349   9.714  0.00  0.00    +0.000 C 
BRANCH   9  10
ATOM     10  C   UNL     1      45.002   3.518   8.721  0.00  0.00    +0.000 C 
BRANCH  10  11
ATOM     11  N   UNL     1      45.899   4.370   7.944  0.00  0.00    +0.000 NA
ATOM     12  H   UNL     1      45.439   5.262   7.759  0.00  0.00    +0.000 HD
ATOM     13  H   UNL     1      46.073   3.952   7.031  0.00  0.00    +0.000 HD
ENDBRANCH  10  11
ENDBRANCH   9  10
ENDBRANCH   1   9
BRANCH   5  14
ATOM     14  C   UNL     1      47.276   3.936  15.338  0.00  0.00    +0.000 C 
BRANCH  14  15
ATOM     15  C   UNL     1      47.923   4.337  16.645  0.00  0.00    +0.000 A 
ATOM     16  C   UNL     1      47.936   3.463  17.736  0.00  0.00    +0.000 A 
ATOM     17  C   UNL     1      48.593   3.850  18.895  0.00  0.00    +0.000 A 
ATOM     18  N   UNL     1      49.227   5.033  19.040  0.00  0.00    +0.000 NA
ATOM     19  C   UNL     1      49.203   5.866  17.978  0.00  0.00    +0.000 A 
ATOM     20  C   UNL     1      48.577   5.567  16.776  0.00  0.00    +0.000 A 
ENDBRANCH  14  15
ENDBRANCH   5  14
TORSDOF 5
ENDMDL
