MODEL 1
REMARK VINA RESULT:    -7.716      0.000      0.000
REMARK INTER + INTRA:         -11.448
REMARK INTER:                 -10.422
REMARK INTRA:                  -1.026
REMARK UNBOUND:                -1.026
REMARK  Name = 
REMARK  9 active torsions:
REMARK  status: ('A' for Active; 'I' for Inactive)
REMARK    1  A    between atoms: C_1  and  C_2
REMARK    2  A    between atoms: C_2  and  N_3
REMARK    3  A    between atoms: C_2  and  C_17
REMARK    4  A    between atoms: C_4  and  C_6
REMARK    5  A    between atoms: N_12  and  C_13
REMARK    6  A    between atoms: C_20  and  C_21
REMARK    7  A    between atoms: C_21  and  N_22
REMARK    8  A    between atoms: C_23  and  C_25
REMARK    9  A    between atoms: N_29  and  C_30
REMARK                            x       y       z     vdW  Elec       q    Type
REMARK                         _______ _______ _______ _____ _____    ______ ____
ROOT
ATOM      1  C   UNL     1      45.908   9.191  13.228  0.00  0.00    +0.000 C 
ATOM      2  C   UNL     1      46.813   7.966  13.086  0.00  0.00    +0.000 C 
ENDROOT
BRANCH   2   3
ATOM      3  C   UNL     1      46.029   6.803  12.515  0.00  0.00    +0.000 A 
ATOM      4  C   UNL     1      45.785   5.677  13.304  0.00  0.00    +0.000 A 
ATOM      5  C   UNL     1      45.112   4.581  12.770  0.00  0.00    +0.000 A 
ATOM      6  C   UNL     1      44.698   4.624  11.443  0.00  0.00    +0.000 A 
ATOM      7  N   UNL     1      44.906   5.709  10.654  0.00  0.00    +0.000 NA
ATOM      8  C   UNL     1      45.573   6.756  11.199  0.00  0.00    +0.000 A 
BRANCH   6   9
ATOM      9  C   UNL     1      43.992   3.441  10.826  0.00  0.00    +0.000 C 
BRANCH   9  10
ATOM     10  N   UNL     1      44.884   2.610  10.045  0.00  0.00    +0.000 N 
ATOM     11  C   UNL     1      45.052   2.787   8.693  0.00  0.00    +0.000 C 
ATOM     12  O   UNL     1      44.450   3.663   8.080  0.00  0.00    +0.000 OA
ATOM     13  H   UNL     1      45.509   2.008  10.559  0.00  0.00    +0.000 HD
BRANCH  11  14
ATOM     14  C   UNL     1      45.972   1.864   8.064  0.00  0.00    +0.000 A 
ATOM     15  C   UNL     1      46.037   0.478   8.089  0.00  0.00    +0.000 A 
ATOM     16  C   UNL     1      47.122   0.132   7.269  0.00  0.00    +0.000 A 
ATOM     17  N   UNL     1      47.720   1.201   6.749  0.00  0.00    +0.000 NA
ATOM     18  N   UNL     1      47.013   2.240   7.242  0.00  0.00    +0.000 N 
ATOM     19  C   UNL     1      47.405   3.582   6.874  0.00  0.00    +0.000 C 
ENDBRANCH  11  14
ENDBRANCH   9  10
ENDBRANCH   6   9
ENDBRANCH   2   3
BRANCH   2  20
ATOM     20  N   UNL     1      47.434   7.626  14.350  0.00  0.00    +0.000 N 
ATOM     21  C   UNL     1      48.771   7.343  14.478  0.00  0.00    +0.000 C 
ATOM     22  O   UNL     1      49.511   7.182  13.515  0.00  0.00    +0.000 OA
ATOM     23  H   UNL     1      46.946   7.924  15.184  0.00  0.00    +0.000 HD
BRANCH  21  24
ATOM     24  C   UNL     1      49.260   7.210  15.858  0.00  0.00    +0.000 A 
ATOM     25  C   UNL     1      50.016   8.221  16.432  0.00  0.00    +0.000 A 
ATOM     26  S   UNL     1      50.462   7.899  18.049  0.00  0.00    +0.000 S 
ATOM     27  C   UNL     1      49.624   6.418  18.045  0.00  0.00    +0.000 A 
ATOM     28  N   UNL     1      49.558   5.646  19.161  0.00  0.00    +0.000 NA
ATOM     29  C   UNL     1      48.868   4.562  19.025  0.00  0.00    +0.000 A 
ATOM     30  N   UNL     1      48.243   4.152  17.866  0.00  0.00    +0.000 N 
ATOM     31  C   UNL     1      47.527   2.894  17.808  0.00  0.00    +0.000 C 
ATOM     32  C   UNL     1      48.336   4.892  16.693  0.00  0.00    +0.000 A 
ATOM     33  O   UNL     1      47.879   4.496  15.623  0.00  0.00    +0.000 OA
ATOM     34  C   UNL     1      49.057   6.146  16.816  0.00  0.00    +0.000 A 
ENDBRANCH  21  24
ENDBRANCH   2  20
TORSDOF 6
ENDMDL
MODEL 2
REMARK VINA RESULT:    -7.257      2.138      4.057
REMARK INTER + INTRA:         -10.828
REMARK INTER:                 -10.081
REMARK INTRA:                  -0.747
REMARK UNBOUND:                -1.026
REMARK  Name = 
REMARK  9 active torsions:
REMARK  status: ('A' for Active; 'I' for Inactive)
REMARK    1  A    between atoms: C_1  and  C_2
REMARK    2  A    between atoms: C_2  and  N_3
REMARK    3  A    between atoms: C_2  and  C_17
REMARK    4  A    between atoms: C_4  and  C_6
REMARK    5  A    between atoms: N_12  and  C_13
REMARK    6  A    between atoms: C_20  and  C_21
REMARK    7  A    between atoms: C_21  and  N_22
REMARK    8  A    between atoms: C_23  and  C_25
REMARK    9  A    between atoms: N_29  and  C_30
REMARK                            x       y       z     vdW  Elec       q    Type
REMARK                         _______ _______ _______ _____ _____    ______ ____
ROOT
ATOM      1  C   UNL     1      47.486   3.762  15.595  0.00  0.00    +0.000 C 
ATOM      2  C   UNL     1      47.050   5.097  14.987  0.00  0.00    +0.000 C 
ENDROOT
BRANCH   2   3
ATOM      3  C   UNL     1      46.270   4.857  13.711  0.00  0.00    +0.000 A 
ATOM      4  C   UNL     1      46.027   3.551  13.281  0.00  0.00    +0.000 A 
ATOM      5  C   UNL     1      45.358   3.322  12.081  0.00  0.00    +0.000 A 
ATOM      6  C   UNL     1      44.946   4.411  11.320  0.00  0.00    +0.000 A 
ATOM      7  N   UNL     1      45.153   5.692  11.716  0.00  0.00    +0.000 NA
ATOM      8  C   UNL     1      45.816   5.883  12.884  0.00  0.00    +0.000 A 
BRANCH   6   9
ATOM      9  C   UNL     1      44.245   4.196  10.001  0.00  0.00    +0.000 C 
BRANCH   9  10
ATOM     10  N   UNL     1      45.167   3.896   8.925  0.00  0.00    +0.000 N 
ATOM     11  C   UNL     1      45.339   2.620   8.445  0.00  0.00    +0.000 C 
ATOM     12  O   UNL     1      44.717   1.670   8.908  0.00  0.00    +0.000 OA
ATOM     13  H   UNL     1      45.549   4.682   8.423  0.00  0.00    +0.000 HD
BRANCH  11  14
ATOM     14  C   UNL     1      46.306   2.494   7.375  0.00  0.00    +0.000 A 
ATOM     15  C   UNL     1      46.797   3.425   6.472  0.00  0.00    +0.000 A 
ATOM     16  C   UNL     1      47.737   2.737   5.687  0.00  0.00    +0.000 A 
ATOM     17  N   UNL     1      47.852   1.461   6.046  0.00  0.00    +0.000 NA
ATOM     18  N   UNL     1      46.979   1.330   7.067  0.00  0.00    +0.000 N 
ATOM     19  C   UNL     1      46.843   0.039   7.702  0.00  0.00    +0.000 C 
ENDBRANCH  11  14
ENDBRANCH   9  10
ENDBRANCH   6   9
ENDBRANCH   2   3
BRANCH   2  20
ATOM     20  N   UNL     1      48.187   5.967  14.765  0.00  0.00    +0.000 N 
ATOM     21  C   UNL     1      48.883   6.568  15.783  0.00  0.00    +0.000 C 
ATOM     22  O   UNL     1      48.497   6.563  16.946  0.00  0.00    +0.000 OA
ATOM     23  H   UNL     1      48.666   5.860  13.880  0.00  0.00    +0.000 HD
BRANCH  21  24
ATOM     24  C   UNL     1      50.119   7.257  15.383  0.00  0.00    +0.000 A 
ATOM     25  C   UNL     1      51.309   7.001  16.049  0.00  0.00    +0.000 A 
ATOM     26  S   UNL     1      52.638   7.869  15.420  0.00  0.00    +0.000 S 
ATOM     27  C   UNL     1      51.674   8.583  14.213  0.00  0.00    +0.000 A 
ATOM     28  N   UNL     1      52.214   9.412  13.282  0.00  0.00    +0.000 NA
ATOM     29  C   UNL     1      51.373   9.861  12.410  0.00  0.00    +0.000 A 
ATOM     30  N   UNL     1      50.023   9.579  12.381  0.00  0.00    +0.000 N 
ATOM     31  C   UNL     1      49.159  10.171  11.381  0.00  0.00    +0.000 C 
ATOM     32  C   UNL     1      49.430   8.778  13.350  0.00  0.00    +0.000 A 
ATOM     33  O   UNL     1      48.216   8.599  13.407  0.00  0.00    +0.000 OA
ATOM     34  C   UNL     1      50.350   8.207  14.318  0.00  0.00    +0.000 A 
ENDBRANCH  21  24
ENDBRANCH   2  20
TORSDOF 6
ENDMDL
MODEL 3
REMARK VINA RESULT:    -7.149      4.971      9.464
REMARK INTER + INTRA:         -10.683
REMARK INTER:                 -10.220
REMARK INTRA:                  -0.463
REMARK UNBOUND:                -1.026
REMARK  Name = 
REMARK  9 active torsions:
REMARK  status: ('A' for Active; 'I' for Inactive)
REMARK    1  A    between atoms: C_1  and  C_2
REMARK    2  A    between atoms: C_2  and  N_3
REMARK    3  A    between atoms: C_2  and  C_17
REMARK    4  A    between atoms: C_4  and  C_6
REMARK    5  A    between atoms: N_12  and  C_13
REMARK    6  A    between atoms: C_20  and  C_21
REMARK    7  A    between atoms: C_21  and  N_22
REMARK    8  A    between atoms: C_23  and  C_25
REMARK    9  A    between atoms: N_29  and  C_30
REMARK                            x       y       z     vdW  Elec       q    Type
REMARK                         _______ _______ _______ _____ _____    ______ ____
ROOT
ATOM      1  C   UNL     1      47.261   5.055  18.441  0.00  0.00    +0.000 C 
ATOM      2  C   UNL     1      47.698   4.218  17.237  0.00  0.00    +0.000 C 
ENDROOT
BRANCH   2   3
ATOM      3  C   UNL     1      49.125   3.747  17.421  0.00  0.00    +0.000 A 
ATOM      4  C   UNL     1      49.451   2.409  17.186  0.00  0.00    +0.000 A 
ATOM      5  C   UNL     1      50.749   1.956  17.405  0.00  0.00    +0.000 A 
ATOM      6  C   UNL     1      51.708   2.852  17.867  0.00  0.00    +0.000 A 
ATOM      7  N   UNL     1      51.428   4.161  18.091  0.00  0.00    +0.000 NA
ATOM      8  C   UNL     1      50.153   4.569  17.879  0.00  0.00    +0.000 A 
BRANCH   6   9
ATOM      9  C   UNL     1      53.116   2.385  18.142  0.00  0.00    +0.000 C 
BRANCH   9  10
ATOM     10  N   UNL     1      53.231   0.942  18.146  0.00  0.00    +0.000 N 
ATOM     11  C   UNL     1      54.395   0.302  18.497  0.00  0.00    +0.000 C 
ATOM     12  O   UNL     1      55.399   0.928  18.824  0.00  0.00    +0.000 OA
ATOM     13  H   UNL     1      52.374   0.419  18.050  0.00  0.00    +0.000 HD
BRANCH  11  14
ATOM     14  C   UNL     1      54.342  -1.143  18.437  0.00  0.00    +0.000 A 
ATOM     15  C   UNL     1      53.847  -2.078  19.335  0.00  0.00    +0.000 A 
ATOM     16  C   UNL     1      54.038  -3.329  18.727  0.00  0.00    +0.000 A 
ATOM     17  N   UNL     1      54.612  -3.224  17.531  0.00  0.00    +0.000 NA
ATOM     18  N   UNL     1      54.790  -1.895  17.371  0.00  0.00    +0.000 N 
ATOM     19  C   UNL     1      55.407  -1.419  16.154  0.00  0.00    +0.000 C 
ENDBRANCH  11  14
ENDBRANCH   9  10
ENDBRANCH   6   9
ENDBRANCH   2   3
BRANCH   2  20
ATOM     20  N   UNL     1      47.531   4.954  16.000  0.00  0.00    +0.000 N 
ATOM     21  C   UNL     1      47.351   4.346  14.783  0.00  0.00    +0.000 C 
ATOM     22  O   UNL     1      47.493   3.141  14.615  0.00  0.00    +0.000 OA
ATOM     23  H   UNL     1      47.213   5.910  16.088  0.00  0.00    +0.000 HD
BRANCH  21  24
ATOM     24  C   UNL     1      47.006   5.245  13.672  0.00  0.00    +0.000 A 
ATOM     25  C   UNL     1      47.559   6.516  13.603  0.00  0.00    +0.000 A 
ATOM     26  S   UNL     1      47.066   7.395  12.225  0.00  0.00    +0.000 S 
ATOM     27  C   UNL     1      46.130   6.092  11.657  0.00  0.00    +0.000 A 
ATOM     28  N   UNL     1      45.470   6.165  10.472  0.00  0.00    +0.000 NA
ATOM     29  C   UNL     1      44.821   5.095  10.151  0.00  0.00    +0.000 A 
ATOM     30  N   UNL     1      44.745   3.947  10.912  0.00  0.00    +0.000 N 
ATOM     31  C   UNL     1      43.952   2.815  10.478  0.00  0.00    +0.000 C 
ATOM     32  C   UNL     1      45.363   3.859  12.153  0.00  0.00    +0.000 A 
ATOM     33  O   UNL     1      45.222   2.890  12.895  0.00  0.00    +0.000 OA
ATOM     34  C   UNL     1      46.150   5.021  12.528  0.00  0.00    +0.000 A 
ENDBRANCH  21  24
ENDBRANCH   2  20
TORSDOF 6
ENDMDL
MODEL 4
REMARK VINA RESULT:    -7.106      2.384      3.331
REMARK INTER + INTRA:         -10.624
REMARK INTER:                  -9.894
REMARK INTRA:                  -0.730
REMARK UNBOUND:                -1.026
REMARK  Name = 
REMARK  9 active torsions:
REMARK  status: ('A' for Active; 'I' for Inactive)
REMARK    1  A    between atoms: C_1  and  C_2
REMARK    2  A    between atoms: C_2  and  N_3
REMARK    3  A    between atoms: C_2  and  C_17
REMARK    4  A    between atoms: C_4  and  C_6
REMARK    5  A    between atoms: N_12  and  C_13
REMARK    6  A    between atoms: C_20  and  C_21
REMARK    7  A    between atoms: C_21  and  N_22
REMARK    8  A    between atoms: C_23  and  C_25
REMARK    9  A    between atoms: N_29  and  C_30
REMARK                            x       y       z     vdW  Elec       q    Type
REMARK                         _______ _______ _______ _____ _____    ______ ____
ROOT
ATOM      1  C   UNL     1      47.327   4.361  15.288  0.00  0.00    +0.000 C 
ATOM      2  C   UNL     1      47.094   5.646  14.490  0.00  0.00    +0.000 C 
ENDROOT
BRANCH   2   3
ATOM      3  C   UNL     1      46.282   5.346  13.248  0.00  0.00    +0.000 A 
ATOM      4  C   UNL     1      45.585   4.140  13.148  0.00  0.00    +0.000 A 
ATOM      5  C   UNL     1      44.880   3.833  11.987  0.00  0.00    +0.000 A 
ATOM      6  C   UNL     1      44.891   4.739  10.931  0.00  0.00    +0.000 A 
ATOM      7  N   UNL     1      45.546   5.925  11.002  0.00  0.00    +0.000 NA
ATOM      8  C   UNL     1      46.231   6.191  12.141  0.00  0.00    +0.000 A 
BRANCH   6   9
ATOM      9  C   UNL     1      44.162   4.422   9.649  0.00  0.00    +0.000 C 
BRANCH   9  10
ATOM     10  N   UNL     1      45.061   4.043   8.579  0.00  0.00    +0.000 N 
ATOM     11  C   UNL     1      45.449   2.740   8.377  0.00  0.00    +0.000 C 
ATOM     12  O   UNL     1      45.050   1.832   9.100  0.00  0.00    +0.000 OA
ATOM     13  H   UNL     1      45.254   4.743   7.880  0.00  0.00    +0.000 HD
BRANCH  11  14
ATOM     14  C   UNL     1      46.359   2.536   7.271  0.00  0.00    +0.000 A 
ATOM     15  C   UNL     1      46.818   3.406   6.292  0.00  0.00    +0.000 A 
ATOM     16  C   UNL     1      47.706   2.659   5.503  0.00  0.00    +0.000 A 
ATOM     17  N   UNL     1      47.819   1.403   5.927  0.00  0.00    +0.000 NA
ATOM     18  N   UNL     1      46.997   1.345   6.996  0.00  0.00    +0.000 N 
ATOM     19  C   UNL     1      46.873   0.094   7.710  0.00  0.00    +0.000 C 
ENDBRANCH  11  14
ENDBRANCH   9  10
ENDBRANCH   6   9
ENDBRANCH   2   3
BRANCH   2  20
ATOM     20  N   UNL     1      48.348   6.296  14.168  0.00  0.00    +0.000 N 
ATOM     21  C   UNL     1      48.552   7.646  14.306  0.00  0.00    +0.000 C 
ATOM     22  O   UNL     1      47.643   8.434  14.542  0.00  0.00    +0.000 OA
ATOM     23  H   UNL     1      49.170   5.706  14.160  0.00  0.00    +0.000 HD
BRANCH  21  24
ATOM     24  C   UNL     1      49.937   8.099  14.117  0.00  0.00    +0.000 A 
ATOM     25  C   UNL     1      50.237   9.049  13.151  0.00  0.00    +0.000 A 
ATOM     26  S   UNL     1      51.890   9.472  13.107  0.00  0.00    +0.000 S 
ATOM     27  C   UNL     1      52.251   8.430  14.403  0.00  0.00    +0.000 A 
ATOM     28  N   UNL     1      53.508   8.351  14.912  0.00  0.00    +0.000 NA
ATOM     29  C   UNL     1      53.634   7.541  15.911  0.00  0.00    +0.000 A 
ATOM     30  N   UNL     1      52.623   6.775  16.452  0.00  0.00    +0.000 N 
ATOM     31  C   UNL     1      52.881   5.864  17.548  0.00  0.00    +0.000 C 
ATOM     32  C   UNL     1      51.338   6.792  15.921  0.00  0.00    +0.000 A 
ATOM     33  O   UNL     1      50.449   6.042  16.316  0.00  0.00    +0.000 OA
ATOM     34  C   UNL     1      51.140   7.731  14.831  0.00  0.00    +0.000 A 
ENDBRANCH  21  24
ENDBRANCH   2  20
TORSDOF 6
ENDMDL
MODEL 5
REMARK VINA RESULT:    -6.783      2.113      3.341
REMARK INTER + INTRA:         -10.188
REMARK INTER:                  -9.009
REMARK INTRA:                  -1.179
REMARK UNBOUND:                -1.026
REMARK  Name = 
REMARK  9 active torsions:
REMARK  status: ('A' for Active; 'I' for Inactive)
REMARK    1  A    between atoms: C_1  and  C_2
REMARK    2  A    between atoms: C_2  and  N_3
REMARK    3  A    between atoms: C_2  and  C_17
REMARK    4  A    between atoms: C_4  and  C_6
REMARK    5  A    between atoms: N_12  and  C_13
REMARK    6  A    between atoms: C_20  and  C_21
REMARK    7  A    between atoms: C_21  and  N_22
REMARK    8  A    between atoms: C_23  and  C_25
REMARK    9  A    between atoms: N_29  and  C_30
REMARK                            x       y       z     vdW  Elec       q    Type
REMARK                         _______ _______ _______ _____ _____    ______ ____
ROOT
ATOM      1  C   UNL     1      49.639  10.419  14.756  0.00  0.00    +0.000 C 
ATOM      2  C   UNL     1      49.630   8.924  14.429  0.00  0.00    +0.000 C 
ENDROOT
BRANCH   2   3
ATOM      3  C   UNL     1      48.397   8.575  13.623  0.00  0.00    +0.000 A 
ATOM      4  C   UNL     1      47.749   9.565  12.881  0.00  0.00    +0.000 A 
ATOM      5  C   UNL     1      46.583   9.265  12.180  0.00  0.00    +0.000 A 
ATOM      6  C   UNL     1      46.074   7.972  12.240  0.00  0.00    +0.000 A 
ATOM      7  N   UNL     1      46.687   6.983  12.939  0.00  0.00    +0.000 NA
ATOM      8  C   UNL     1      47.814   7.309  13.619  0.00  0.00    +0.000 A 
BRANCH   6   9
ATOM      9  C   UNL     1      44.797   7.623  11.516  0.00  0.00    +0.000 C 
BRANCH   9  10
ATOM     10  N   UNL     1      44.882   6.354  10.823  0.00  0.00    +0.000 N 
ATOM     11  C   UNL     1      43.785   5.549  10.635  0.00  0.00    +0.000 C 
ATOM     12  O   UNL     1      42.675   5.868  11.050  0.00  0.00    +0.000 OA
ATOM     13  H   UNL     1      45.741   6.164  10.330  0.00  0.00    +0.000 HD
BRANCH  11  14
ATOM     14  C   UNL     1      44.047   4.311   9.932  0.00  0.00    +0.000 A 
ATOM     15  C   UNL     1      44.526   4.071   8.652  0.00  0.00    +0.000 A 
ATOM     16  C   UNL     1      44.604   2.674   8.531  0.00  0.00    +0.000 A 
ATOM     17  N   UNL     1      44.208   2.050   9.637  0.00  0.00    +0.000 NA
ATOM     18  N   UNL     1      43.874   3.056  10.474  0.00  0.00    +0.000 N 
ATOM     19  C   UNL     1      43.386   2.725  11.795  0.00  0.00    +0.000 C 
ENDBRANCH  11  14
ENDBRANCH   9  10
ENDBRANCH   6   9
ENDBRANCH   2   3
BRANCH   2  20
ATOM     20  N   UNL     1      49.727   8.125  15.633  0.00  0.00    +0.000 N 
ATOM     21  C   UNL     1      50.885   7.508  16.035  0.00  0.00    +0.000 C 
ATOM     22  O   UNL     1      51.880   7.434  15.322  0.00  0.00    +0.000 OA
ATOM     23  H   UNL     1      49.030   8.301  16.345  0.00  0.00    +0.000 HD
BRANCH  21  24
ATOM     24  C   UNL     1      50.849   6.904  17.374  0.00  0.00    +0.000 A 
ATOM     25  C   UNL     1      51.670   7.387  18.382  0.00  0.00    +0.000 A 
ATOM     26  S   UNL     1      51.461   6.581  19.872  0.00  0.00    +0.000 S 
ATOM     27  C   UNL     1      50.238   5.588  19.229  0.00  0.00    +0.000 A 
ATOM     28  N   UNL     1      49.583   4.687  20.007  0.00  0.00    +0.000 NA
ATOM     29  C   UNL     1      48.661   4.019  19.396  0.00  0.00    +0.000 A 
ATOM     30  N   UNL     1      48.332   4.145  18.063  0.00  0.00    +0.000 N 
ATOM     31  C   UNL     1      47.307   3.315  17.465  0.00  0.00    +0.000 C 
ATOM     32  C   UNL     1      49.019   5.018  17.227  0.00  0.00    +0.000 A 
ATOM     33  O   UNL     1      48.817   5.071  16.017  0.00  0.00    +0.000 OA
ATOM     34  C   UNL     1      50.027   5.829  17.886  0.00  0.00    +0.000 A 
ENDBRANCH  21  24
ENDBRANCH   2  20
TORSDOF 6
ENDMDL
MODEL 6
REMARK VINA RESULT:    -6.758      3.302      9.056
REMARK INTER + INTRA:         -10.155
REMARK INTER:                  -9.120
REMARK INTRA:                  -1.034
REMARK UNBOUND:                -1.026
REMARK  Name = 
REMARK  9 active torsions:
REMARK  status: ('A' for Active; 'I' for Inactive)
REMARK    1  A    between atoms: C_1  and  C_2
REMARK    2  A    between atoms: C_2  and  N_3
REMARK    3  A    between atoms: C_2  and  C_17
REMARK    4  A    between atoms: C_4  and  C_6
REMARK    5  A    between atoms: N_12  and  C_13
REMARK    6  A    between atoms: C_20  and  C_21
REMARK    7  A    between atoms: C_21  and  N_22
REMARK    8  A    between atoms: C_23  and  C_25
REMARK    9  A    between atoms: N_29  and  C_30
REMARK                            x       y       z     vdW  Elec       q    Type
REMARK                         _______ _______ _______ _____ _____    ______ ____
ROOT
ATOM      1  C   UNL     1      48.512   7.761  11.364  0.00  0.00    +0.000 C 
ATOM      2  C   UNL     1      47.734   7.439  12.641  0.00  0.00    +0.000 C 
ENDROOT
BRANCH   2   3
ATOM      3  C   UNL     1      48.692   7.226  13.794  0.00  0.00    +0.000 A 
ATOM      4  C   UNL     1      48.304   6.446  14.886  0.00  0.00    +0.000 A 
ATOM      5  C   UNL     1      49.158   6.290  15.974  0.00  0.00    +0.000 A 
ATOM      6  C   UNL     1      50.394   6.930  15.960  0.00  0.00    +0.000 A 
ATOM      7  N   UNL     1      50.807   7.683  14.909  0.00  0.00    +0.000 NA
ATOM      8  C   UNL     1      49.949   7.823  13.868  0.00  0.00    +0.000 A 
BRANCH   6   9
ATOM      9  C   UNL     1      51.330   6.805  17.137  0.00  0.00    +0.000 C 
BRANCH   9  10
ATOM     10  N   UNL     1      51.913   5.484  17.243  0.00  0.00    +0.000 N 
ATOM     11  C   UNL     1      51.546   4.599  18.228  0.00  0.00    +0.000 C 
ATOM     12  O   UNL     1      50.702   4.890  19.070  0.00  0.00    +0.000 OA
ATOM     13  H   UNL     1      52.471   5.171  16.464  0.00  0.00    +0.000 HD
BRANCH  11  14
ATOM     14  C   UNL     1      52.234   3.327  18.196  0.00  0.00    +0.000 A 
ATOM     15  C   UNL     1      53.489   2.954  18.655  0.00  0.00    +0.000 A 
ATOM     16  C   UNL     1      53.605   1.582  18.378  0.00  0.00    +0.000 A 
ATOM     17  N   UNL     1      52.517   1.096  17.785  0.00  0.00    +0.000 NA
ATOM     18  N   UNL     1      51.698   2.165  17.682  0.00  0.00    +0.000 N 
ATOM     19  C   UNL     1      50.403   1.988  17.066  0.00  0.00    +0.000 C 
ENDBRANCH  11  14
ENDBRANCH   9  10
ENDBRANCH   6   9
ENDBRANCH   2   3
BRANCH   2  20
ATOM     20  N   UNL     1      46.864   6.296  12.449  0.00  0.00    +0.000 N 
ATOM     21  C   UNL     1      45.645   6.375  11.826  0.00  0.00    +0.000 C 
ATOM     22  O   UNL     1      45.114   7.442  11.540  0.00  0.00    +0.000 OA
ATOM     23  H   UNL     1      47.307   5.386  12.478  0.00  0.00    +0.000 HD
BRANCH  21  24
ATOM     24  C   UNL     1      44.990   5.089  11.549  0.00  0.00    +0.000 A 
ATOM     25  C   UNL     1      44.177   4.497  12.505  0.00  0.00    +0.000 A 
ATOM     26  S   UNL     1      43.481   3.028  11.986  0.00  0.00    +0.000 S 
ATOM     27  C   UNL     1      44.210   3.155  10.454  0.00  0.00    +0.000 A 
ATOM     28  N   UNL     1      43.978   2.230   9.487  0.00  0.00    +0.000 NA
ATOM     29  C   UNL     1      44.574   2.465   8.364  0.00  0.00    +0.000 A 
ATOM     30  N   UNL     1      45.407   3.535   8.109  0.00  0.00    +0.000 N 
ATOM     31  C   UNL     1      46.061   3.682   6.825  0.00  0.00    +0.000 C 
ATOM     32  C   UNL     1      45.707   4.469   9.094  0.00  0.00    +0.000 A 
ATOM     33  O   UNL     1      46.527   5.368   8.924  0.00  0.00    +0.000 OA
ATOM     34  C   UNL     1      45.014   4.273  10.355  0.00  0.00    +0.000 A 
ENDBRANCH  21  24
ENDBRANCH   2  20
TORSDOF 6
ENDMDL
MODEL 7
REMARK VINA RESULT:    -6.713      4.529      7.787
REMARK INTER + INTRA:         -10.094
REMARK INTER:                  -9.916
REMARK INTRA:                  -0.178
REMARK UNBOUND:                -1.026
REMARK  Name = 
REMARK  9 active torsions:
REMARK  status: ('A' for Active; 'I' for Inactive)
REMARK    1  A    between atoms: C_1  and  C_2
REMARK    2  A    between atoms: C_2  and  N_3
REMARK    3  A    between atoms: C_2  and  C_17
REMARK    4  A    between atoms: C_4  and  C_6
REMARK    5  A    between atoms: N_12  and  C_13
REMARK    6  A    between atoms: C_20  and  C_21
REMARK    7  A    between atoms: C_21  and  N_22
REMARK    8  A    between atoms: C_23  and  C_25
REMARK    9  A    between atoms: N_29  and  C_30
REMARK                            x       y       z     vdW  Elec       q    Type
REMARK                         _______ _______ _______ _____ _____    ______ ____
ROOT
ATOM      1  C   UNL     1      45.330   9.388  12.476  0.00  0.00    +0.000 C 
ATOM      2  C   UNL     1      46.222   8.280  13.041  0.00  0.00    +0.000 C 
ENDROOT
BRANCH   2   3
ATOM      3  C   UNL     1      47.619   8.394  12.470  0.00  0.00    +0.000 A 
ATOM      4  C   UNL     1      48.481   7.297  12.519  0.00  0.00    +0.000 A 
ATOM      5  C   UNL     1      49.786   7.410  12.045  0.00  0.00    +0.000 A 
ATOM      6  C   UNL     1      50.215   8.631  11.535  0.00  0.00    +0.000 A 
ATOM      7  N   UNL     1      49.399   9.712  11.460  0.00  0.00    +0.000 NA
ATOM      8  C   UNL     1      48.138   9.573  11.938  0.00  0.00    +0.000 A 
BRANCH   6   9
ATOM      9  C   UNL     1      51.632   8.794  11.042  0.00  0.00    +0.000 C 
BRANCH   9  10
ATOM     10  N   UNL     1      51.993   7.797  10.055  0.00  0.00    +0.000 N 
ATOM     11  C   UNL     1      53.155   7.878   9.325  0.00  0.00    +0.000 C 
ATOM     12  O   UNL     1      53.944   8.806   9.475  0.00  0.00    +0.000 OA
ATOM     13  H   UNL     1      51.448   6.949  10.046  0.00  0.00    +0.000 HD
BRANCH  11  14
ATOM     14  C   UNL     1      53.357   6.806   8.375  0.00  0.00    +0.000 A 
ATOM     15  C   UNL     1      53.720   5.479   8.557  0.00  0.00    +0.000 A 
ATOM     16  C   UNL     1      53.730   4.907   7.275  0.00  0.00    +0.000 A 
ATOM     17  N   UNL     1      53.404   5.785   6.330  0.00  0.00    +0.000 NA
ATOM     18  N   UNL     1      53.182   6.929   7.013  0.00  0.00    +0.000 N 
ATOM     19  C   UNL     1      52.804   8.114   6.276  0.00  0.00    +0.000 C 
ENDBRANCH  11  14
ENDBRANCH   9  10
ENDBRANCH   6   9
ENDBRANCH   2   3
BRANCH   2  20
ATOM     20  N   UNL     1      45.648   6.972  12.797  0.00  0.00    +0.000 N 
ATOM     21  C   UNL     1      44.830   6.698  11.729  0.00  0.00    +0.000 C 
ATOM     22  O   UNL     1      44.376   7.571  10.999  0.00  0.00    +0.000 OA
ATOM     23  H   UNL     1      46.122   6.188  13.226  0.00  0.00    +0.000 HD
BRANCH  21  24
ATOM     24  C   UNL     1      44.500   5.279  11.533  0.00  0.00    +0.000 A 
ATOM     25  C   UNL     1      43.739   4.601  12.474  0.00  0.00    +0.000 A 
ATOM     26  S   UNL     1      43.432   2.975  12.054  0.00  0.00    +0.000 S 
ATOM     27  C   UNL     1      44.271   3.137  10.583  0.00  0.00    +0.000 A 
ATOM     28  N   UNL     1      44.346   2.107   9.700  0.00  0.00    +0.000 NA
ATOM     29  C   UNL     1      44.990   2.376   8.612  0.00  0.00    +0.000 A 
ATOM     30  N   UNL     1      45.594   3.581   8.318  0.00  0.00    +0.000 N 
ATOM     31  C   UNL     1      46.331   3.765   7.084  0.00  0.00    +0.000 C 
ATOM     32  C   UNL     1      45.583   4.636   9.223  0.00  0.00    +0.000 A 
ATOM     33  O   UNL     1      46.203   5.679   9.030  0.00  0.00    +0.000 OA
ATOM     34  C   UNL     1      44.822   4.394  10.435  0.00  0.00    +0.000 A 
ENDBRANCH  21  24
ENDBRANCH   2  20
TORSDOF 6
ENDMDL
MODEL 8
REMARK VINA RESULT:    -6.657      5.078      9.228
REMARK INTER + INTRA:         -10.018
REMARK INTER:                  -8.881
REMARK INTRA:                  -1.137
REMARK UNBOUND:                -1.026
REMARK  Name = 
REMARK  9 active torsions:
REMARK  status: ('A' for Active; 'I' for Inactive)
REMARK    1  A    between atoms: C_1  and  C_2
REMARK    2  A    between atoms: C_2  and  N_3
REMARK    3  A    between atoms: C_2  and  C_17
REMARK    4  A    between atoms: C_4  and  C_6
REMARK    5  A    between atoms: N_12  and  C_13
REMARK    6  A    between atoms: C_20  and  C_21
REMARK    7  A    between atoms: C_21  and  N_22
REMARK    8  A    between atoms: C_23  and  C_25
REMARK    9  A    between atoms: N_29  and  C_30
REMARK                            x       y       z     vdW  Elec       q    Type
REMARK                         _______ _______ _______ _____ _____    ______ ____
ROOT
ATOM      1  C   UNL     1      47.143   4.884  18.323  0.00  0.00    +0.000 C 
ATOM      2  C   UNL     1      47.640   4.109  17.101  0.00  0.00    +0.000 C 
ENDROOT
BRANCH   2   3
ATOM      3  C   UNL     1      49.080   3.686  17.303  0.00  0.00    +0.000 A 
ATOM      4  C   UNL     1      49.449   2.357  17.089  0.00  0.00    +0.000 A 
ATOM      5  C   UNL     1      50.759   1.947  17.326  0.00  0.00    +0.000 A 
ATOM      6  C   UNL     1      51.685   2.879  17.785  0.00  0.00    +0.000 A 
ATOM      7  N   UNL     1      51.362   4.181  17.989  0.00  0.00    +0.000 NA
ATOM      8  C   UNL     1      50.077   4.547  17.759  0.00  0.00    +0.000 A 
BRANCH   6   9
ATOM      9  C   UNL     1      53.105   2.460  18.078  0.00  0.00    +0.000 C 
BRANCH   9  10
ATOM     10  N   UNL     1      53.390   1.114  17.628  0.00  0.00    +0.000 N 
ATOM     11  C   UNL     1      54.611   0.517  17.834  0.00  0.00    +0.000 C 
ATOM     12  O   UNL     1      55.522   1.102  18.411  0.00  0.00    +0.000 OA
ATOM     13  H   UNL     1      52.605   0.566  17.312  0.00  0.00    +0.000 HD
BRANCH  11  14
ATOM     14  C   UNL     1      54.731  -0.827  17.311  0.00  0.00    +0.000 A 
ATOM     15  C   UNL     1      55.017  -1.290  16.035  0.00  0.00    +0.000 A 
ATOM     16  C   UNL     1      55.032  -2.690  16.131  0.00  0.00    +0.000 A 
ATOM     17  N   UNL     1      54.775  -3.111  17.367  0.00  0.00    +0.000 NA
ATOM     18  N   UNL     1      54.595  -1.971  18.068  0.00  0.00    +0.000 N 
ATOM     19  C   UNL     1      54.288  -2.065  19.477  0.00  0.00    +0.000 C 
ENDBRANCH  11  14
ENDBRANCH   9  10
ENDBRANCH   6   9
ENDBRANCH   2   3
BRANCH   2  20
ATOM     20  N   UNL     1      47.475   4.885  15.888  0.00  0.00    +0.000 N 
ATOM     21  C   UNL     1      47.232   4.319  14.662  0.00  0.00    +0.000 C 
ATOM     22  O   UNL     1      47.310   3.113  14.459  0.00  0.00    +0.000 OA
ATOM     23  H   UNL     1      47.207   5.853  16.008  0.00  0.00    +0.000 HD
BRANCH  21  24
ATOM     24  C   UNL     1      46.900   5.262  13.584  0.00  0.00    +0.000 A 
ATOM     25  C   UNL     1      45.791   5.044  12.780  0.00  0.00    +0.000 A 
ATOM     26  S   UNL     1      45.552   6.264  11.610  0.00  0.00    +0.000 S 
ATOM     27  C   UNL     1      46.899   7.142  12.166  0.00  0.00    +0.000 A 
ATOM     28  N   UNL     1      47.231   8.341  11.619  0.00  0.00    +0.000 NA
ATOM     29  C   UNL     1      48.259   8.910  12.155  0.00  0.00    +0.000 A 
ATOM     30  N   UNL     1      49.015   8.390  13.185  0.00  0.00    +0.000 N 
ATOM     31  C   UNL     1      50.178   9.094  13.686  0.00  0.00    +0.000 C 
ATOM     32  C   UNL     1      48.735   7.143  13.730  0.00  0.00    +0.000 A 
ATOM     33  O   UNL     1      49.455   6.612  14.572  0.00  0.00    +0.000 OA
ATOM     34  C   UNL     1      47.553   6.492  13.194  0.00  0.00    +0.000 A 
ENDBRANCH  21  24
ENDBRANCH   2  20
TORSDOF 6
ENDMDL
MODEL 9
REMARK VINA RESULT:    -6.477      2.198      3.376
REMARK INTER + INTRA:          -9.775
REMARK INTER:                  -8.570
REMARK INTRA:                  -1.205
REMARK UNBOUND:                -1.026
REMARK  Name = 
REMARK  9 active torsions:
REMARK  status: ('A' for Active; 'I' for Inactive)
REMARK    1  A    between atoms: C_1  and  C_2
REMARK    2  A    between atoms: C_2  and  N_3
REMARK    3  A    between atoms: C_2  and  C_17
REMARK    4  A    between atoms: C_4  and  C_6
REMARK    5  A    between atoms: N_12  and  C_13
REMARK    6  A    between atoms: C_20  and  C_21
REMARK    7  A    between atoms: C_21  and  N_22
REMARK    8  A    between atoms: C_23  and  C_25
REMARK    9  A    between atoms: N_29  and  C_30
REMARK                            x       y       z     vdW  Elec       q    Type
REMARK                         _______ _______ _______ _____ _____    ______ ____
ROOT
ATOM      1  C   UNL     1      47.701   2.981  15.890  0.00  0.00    +0.000 C 
ATOM      2  C   UNL     1      47.319   4.462  15.831  0.00  0.00    +0.000 C 
ENDROOT
BRANCH   2   3
ATOM      3  C   UNL     1      46.902   4.836  14.424  0.00  0.00    +0.000 A 
ATOM      4  C   UNL     1      47.080   6.145  13.972  0.00  0.00    +0.000 A 
ATOM      5  C   UNL     1      46.650   6.511  12.699  0.00  0.00    +0.000 A 
ATOM      6  C   UNL     1      46.036   5.556  11.894  0.00  0.00    +0.000 A 
ATOM      7  N   UNL     1      45.862   4.272  12.297  0.00  0.00    +0.000 NA
ATOM      8  C   UNL     1      46.282   3.950  13.545  0.00  0.00    +0.000 A 
BRANCH   6   9
ATOM      9  C   UNL     1      45.532   5.928  10.521  0.00  0.00    +0.000 C 
BRANCH   9  10
ATOM     10  N   UNL     1      46.104   5.102   9.479  0.00  0.00    +0.000 N 
ATOM     11  C   UNL     1      45.332   4.288   8.685  0.00  0.00    +0.000 C 
ATOM     12  O   UNL     1      44.115   4.222   8.825  0.00  0.00    +0.000 OA
ATOM     13  H   UNL     1      47.068   5.276   9.239  0.00  0.00    +0.000 HD
BRANCH  11  14
ATOM     14  C   UNL     1      46.064   3.521   7.699  0.00  0.00    +0.000 A 
ATOM     15  C   UNL     1      46.821   3.921   6.608  0.00  0.00    +0.000 A 
ATOM     16  C   UNL     1      47.317   2.740   6.034  0.00  0.00    +0.000 A 
ATOM     17  N   UNL     1      46.916   1.655   6.692  0.00  0.00    +0.000 NA
ATOM     18  N   UNL     1      46.158   2.146   7.696  0.00  0.00    +0.000 N 
ATOM     19  C   UNL     1      45.548   1.218   8.621  0.00  0.00    +0.000 C 
ENDBRANCH  11  14
ENDBRANCH   9  10
ENDBRANCH   6   9
ENDBRANCH   2   3
BRANCH   2  20
ATOM     20  N   UNL     1      48.399   5.300  16.311  0.00  0.00    +0.000 N 
ATOM     21  C   UNL     1      48.477   5.759  17.602  0.00  0.00    +0.000 C 
ATOM     22  O   UNL     1      47.557   5.647  18.404  0.00  0.00    +0.000 OA
ATOM     23  H   UNL     1      49.261   5.267  15.782  0.00  0.00    +0.000 HD
BRANCH  21  24
ATOM     24  C   UNL     1      49.734   6.431  17.960  0.00  0.00    +0.000 A 
ATOM     25  C   UNL     1      49.730   7.764  18.344  0.00  0.00    +0.000 A 
ATOM     26  S   UNL     1      51.278   8.356  18.753  0.00  0.00    +0.000 S 
ATOM     27  C   UNL     1      51.997   6.840  18.469  0.00  0.00    +0.000 A 
ATOM     28  N   UNL     1      53.323   6.640  18.687  0.00  0.00    +0.000 NA
ATOM     29  C   UNL     1      53.729   5.435  18.456  0.00  0.00    +0.000 A 
ATOM     30  N   UNL     1      52.940   4.397  18.006  0.00  0.00    +0.000 N 
ATOM     31  C   UNL     1      53.506   3.091  17.738  0.00  0.00    +0.000 C 
ATOM     32  C   UNL     1      51.592   4.583  17.722  0.00  0.00    +0.000 A 
ATOM     33  O   UNL     1      50.895   3.705  17.219  0.00  0.00    +0.000 OA
ATOM     34  C   UNL     1      51.082   5.909  18.020  0.00  0.00    +0.000 A 
ENDBRANCH  21  24
ENDBRANCH   2  20
TORSDOF 6
ENDMDL
