MODEL 1
REMARK VINA RESULT:    -7.651      0.000      0.000
REMARK INTER + INTRA:          -9.379
REMARK INTER:                  -9.216
REMARK INTRA:                  -0.162
REMARK UNBOUND:                -0.162
REMARK  Name = 
REMARK  4 active torsions:
REMARK  status: ('A' for Active; 'I' for Inactive)
REMARK    1  A    between atoms: N_1  and  C_2
REMARK    2  A    between atoms: C_2  and  C_3
REMARK    3  A    between atoms: C_6  and  C_7
REMARK    4  A    between atoms: C_7  and  N_8
REMARK                            x       y       z     vdW  Elec       q    Type
REMARK                         _______ _______ _______ _____ _____    ______ ____
ROOT
ATOM      1  C   UNL     1      46.896   2.148   7.799  0.00  0.00    +0.000 C 
ATOM      2  C   UNL     1      45.627   1.507   8.379  0.00  0.00    +0.000 C 
ATOM      3  C   UNL     1      44.867   2.454   9.303  0.00  0.00    +0.000 C 
ATOM      4  C   UNL     1      44.516   3.783   8.616  0.00  0.00    +0.000 C 
ATOM      5  C   UNL     1      45.781   4.426   8.024  0.00  0.00    +0.000 C 
ATOM      6  C   UNL     1      46.549   3.474   7.102  0.00  0.00    +0.000 C 
ENDROOT
BRANCH   1   7
ATOM      7  C   UNL     1      47.587   1.141   6.857  0.00  0.00    +0.000 C 
BRANCH   7   8
ATOM      8  N   UNL     1      48.427   1.789   5.859  0.00  0.00    +0.000 NA
ATOM      9  H   UNL     1      48.859   2.617   6.266  0.00  0.00    +0.000 HD
ATOM     10  H   UNL     1      47.852   2.118   5.084  0.00  0.00    +0.000 HD
ENDBRANCH   7   8
ENDBRANCH   1   7
BRANCH   4  11
ATOM     11  C   UNL     1      43.817   4.762   9.588  0.00  0.00    +0.000 C 
BRANCH  11  12
ATOM     12  N   UNL     1      44.045   4.454  10.994  0.00  0.00    +0.000 N 
ATOM     13  C   UNL     1      43.285   3.560  11.716  0.00  0.00    +0.000 A 
ATOM     14  C   UNL     1      43.896   3.371  12.936  0.00  0.00    +0.000 A 
ATOM     15  C   UNL     1      45.032   4.207  12.974  0.00  0.00    +0.000 A 
ATOM     16  N   UNL     1      45.952   4.336  13.962  0.00  0.00    +0.000 NA
ATOM     17  C   UNL     1      46.923   5.239  13.716  0.00  0.00    +0.000 A 
ATOM     18  C   UNL     1      47.015   6.035  12.586  0.00  0.00    +0.000 A 
ATOM     19  C   UNL     1      46.065   5.899  11.574  0.00  0.00    +0.000 A 
ATOM     20  C   UNL     1      45.074   4.929  11.779  0.00  0.00    +0.000 A 
ENDBRANCH  11  12
ENDBRANCH   4  11
TORSDOF 4
ENDMDL
MODEL 2
REMARK VINA RESULT:    -7.474      1.401      2.155
REMARK INTER + INTRA:          -9.166
REMARK INTER:                  -8.693
REMARK INTRA:                  -0.472
REMARK UNBOUND:                -0.162
REMARK  Name = 
REMARK  4 active torsions:
REMARK  status: ('A' for Active; 'I' for Inactive)
REMARK    1  A    between atoms: N_1  and  C_2
REMARK    2  A    between atoms: C_2  and  C_3
REMARK    3  A    between atoms: C_6  and  C_7
REMARK    4  A    between atoms: C_7  and  N_8
REMARK                            x       y       z     vdW  Elec       q    Type
REMARK                         _______ _______ _______ _____ _____    ______ ____
ROOT
ATOM      1  C   UNL     1      46.358   2.629   6.473  0.00  0.00    +0.000 C 
ATOM      2  C   UNL     1      46.430   4.017   7.126  0.00  0.00    +0.000 C 
ATOM      3  C   UNL     1      45.459   4.164   8.293  0.00  0.00    +0.000 C 
ATOM      4  C   UNL     1      45.657   3.073   9.357  0.00  0.00    +0.000 C 
ATOM      5  C   UNL     1      45.593   1.680   8.710  0.00  0.00    +0.000 C 
ATOM      6  C   UNL     1      46.564   1.535   7.533  0.00  0.00    +0.000 C 
ENDROOT
BRANCH   1   7
ATOM      7  C   UNL     1      47.386   2.553   5.327  0.00  0.00    +0.000 C 
BRANCH   7   8
ATOM      8  N   UNL     1      48.574   1.790   5.686  0.00  0.00    +0.000 NA
ATOM      9  H   UNL     1      48.305   1.005   6.279  0.00  0.00    +0.000 HD
ATOM     10  H   UNL     1      49.201   2.368   6.243  0.00  0.00    +0.000 HD
ENDBRANCH   7   8
ENDBRANCH   1   7
BRANCH   4  11
ATOM     11  C   UNL     1      44.614   3.188  10.493  0.00  0.00    +0.000 C 
BRANCH  11  12
ATOM     12  N   UNL     1      45.095   3.919  11.659  0.00  0.00    +0.000 N 
ATOM     13  C   UNL     1      45.736   3.326  12.724  0.00  0.00    +0.000 A 
ATOM     14  C   UNL     1      46.219   4.326  13.539  0.00  0.00    +0.000 A 
ATOM     15  C   UNL     1      45.823   5.558  12.977  0.00  0.00    +0.000 A 
ATOM     16  N   UNL     1      46.094   6.812  13.417  0.00  0.00    +0.000 NA
ATOM     17  C   UNL     1      45.555   7.800  12.674  0.00  0.00    +0.000 A 
ATOM     18  C   UNL     1      44.747   7.624  11.563  0.00  0.00    +0.000 A 
ATOM     19  C   UNL     1      44.471   6.331  11.117  0.00  0.00    +0.000 A 
ATOM     20  C   UNL     1      45.062   5.286  11.838  0.00  0.00    +0.000 A 
ENDBRANCH  11  12
ENDBRANCH   4  11
TORSDOF 4
ENDMDL
MODEL 3
REMARK VINA RESULT:    -6.990      1.147      1.929
REMARK INTER + INTRA:          -8.582
REMARK INTER:                  -8.315
REMARK INTRA:                  -0.267
REMARK UNBOUND:                -0.162
REMARK  Name = 
REMARK  4 active torsions:
REMARK  status: ('A' for Active; 'I' for Inactive)
REMARK    1  A    between atoms: N_1  and  C_2
REMARK    2  A    between atoms: C_2  and  C_3
REMARK    3  A    between atoms: C_6  and  C_7
REMARK    4  A    between atoms: C_7  and  N_8
REMARK                            x       y       z     vdW  Elec       q    Type
REMARK                         _______ _______ _______ _____ _____    ______ ____
ROOT
ATOM      1  C   UNL     1      46.352   2.516   8.017  0.00  0.00    +0.000 C 
ATOM      2  C   UNL     1      45.119   1.805   8.591  0.00  0.00    +0.000 C 
ATOM      3  C   UNL     1      44.534   2.536   9.796  0.00  0.00    +0.000 C 
ATOM      4  C   UNL     1      44.195   4.001   9.482  0.00  0.00    +0.000 C 
ATOM      5  C   UNL     1      45.424   4.718   8.899  0.00  0.00    +0.000 C 
ATOM      6  C   UNL     1      46.016   3.981   7.693  0.00  0.00    +0.000 C 
ENDROOT
BRANCH   1   7
ATOM      7  C   UNL     1      46.863   1.735   6.789  0.00  0.00    +0.000 C 
BRANCH   7   8
ATOM      8  N   UNL     1      48.275   1.391   6.888  0.00  0.00    +0.000 NA
ATOM      9  H   UNL     1      48.414   0.755   7.673  0.00  0.00    +0.000 HD
ATOM     10  H   UNL     1      48.820   2.226   7.097  0.00  0.00    +0.000 HD
ENDBRANCH   7   8
ENDBRANCH   1   7
BRANCH   4  11
ATOM     11  C   UNL     1      43.678   4.748  10.733  0.00  0.00    +0.000 C 
BRANCH  11  12
ATOM     12  N   UNL     1      44.708   5.509  11.430  0.00  0.00    +0.000 N 
ATOM     13  C   UNL     1      44.887   6.867  11.286  0.00  0.00    +0.000 A 
ATOM     14  C   UNL     1      45.805   7.277  12.227  0.00  0.00    +0.000 A 
ATOM     15  C   UNL     1      46.229   6.129  12.932  0.00  0.00    +0.000 A 
ATOM     16  N   UNL     1      47.104   6.049  13.965  0.00  0.00    +0.000 NA
ATOM     17  C   UNL     1      47.327   4.800  14.421  0.00  0.00    +0.000 A 
ATOM     18  C   UNL     1      46.775   3.641  13.899  0.00  0.00    +0.000 A 
ATOM     19  C   UNL     1      45.878   3.731  12.835  0.00  0.00    +0.000 A 
ATOM     20  C   UNL     1      45.585   5.022  12.376  0.00  0.00    +0.000 A 
ENDBRANCH  11  12
ENDBRANCH   4  11
TORSDOF 4
ENDMDL
MODEL 4
REMARK VINA RESULT:    -6.321      1.972      5.622
REMARK INTER + INTRA:          -7.777
REMARK INTER:                  -7.490
REMARK INTRA:                  -0.286
REMARK UNBOUND:                -0.162
REMARK  Name = 
REMARK  4 active torsions:
REMARK  status: ('A' for Active; 'I' for Inactive)
REMARK    1  A    between atoms: N_1  and  C_2
REMARK    2  A    between atoms: C_2  and  C_3
REMARK    3  A    between atoms: C_6  and  C_7
REMARK    4  A    between atoms: C_7  and  N_8
REMARK                            x       y       z     vdW  Elec       q    Type
REMARK                         _______ _______ _______ _____ _____    ______ ____
ROOT
ATOM      1  C   UNL     1      48.169   6.702  13.022  0.00  0.00    +0.000 C 
ATOM      2  C   UNL     1      47.380   7.900  12.475  0.00  0.00    +0.000 C 
ATOM      3  C   UNL     1      46.091   7.477  11.776  0.00  0.00    +0.000 C 
ATOM      4  C   UNL     1      45.189   6.624  12.682  0.00  0.00    +0.000 C 
ATOM      5  C   UNL     1      45.975   5.427  13.240  0.00  0.00    +0.000 C 
ATOM      6  C   UNL     1      47.273   5.850  13.936  0.00  0.00    +0.000 C 
ENDROOT
BRANCH   1   7
ATOM      7  C   UNL     1      49.436   7.214  13.736  0.00  0.00    +0.000 C 
BRANCH   7   8
ATOM      8  N   UNL     1      49.605   6.639  15.064  0.00  0.00    +0.000 NA
ATOM      9  H   UNL     1      49.831   5.649  14.978  0.00  0.00    +0.000 HD
ATOM     10  H   UNL     1      48.726   6.688  15.576  0.00  0.00    +0.000 HD
ENDBRANCH   7   8
ENDBRANCH   1   7
BRANCH   4  11
ATOM     11  C   UNL     1      43.925   6.138  11.934  0.00  0.00    +0.000 C 
BRANCH  11  12
ATOM     12  N   UNL     1      43.991   4.744  11.516  0.00  0.00    +0.000 N 
ATOM     13  C   UNL     1      43.383   3.711  12.195  0.00  0.00    +0.000 A 
ATOM     14  C   UNL     1      43.484   2.576  11.422  0.00  0.00    +0.000 A 
ATOM     15  C   UNL     1      44.212   2.918  10.262  0.00  0.00    +0.000 A 
ATOM     16  N   UNL     1      44.532   2.132   9.204  0.00  0.00    +0.000 NA
ATOM     17  C   UNL     1      45.260   2.741   8.247  0.00  0.00    +0.000 A 
ATOM     18  C   UNL     1      45.714   4.050   8.290  0.00  0.00    +0.000 A 
ATOM     19  C   UNL     1      45.382   4.853   9.382  0.00  0.00    +0.000 A 
ATOM     20  C   UNL     1      44.580   4.261  10.367  0.00  0.00    +0.000 A 
ENDBRANCH  11  12
ENDBRANCH   4  11
TORSDOF 4
ENDMDL
MODEL 5
REMARK VINA RESULT:    -5.903      1.861      2.989
REMARK INTER + INTRA:          -7.273
REMARK INTER:                  -7.142
REMARK INTRA:                  -0.131
REMARK UNBOUND:                -0.162
REMARK  Name = 
REMARK  4 active torsions:
REMARK  status: ('A' for Active; 'I' for Inactive)
REMARK    1  A    between atoms: N_1  and  C_2
REMARK    2  A    between atoms: C_2  and  C_3
REMARK    3  A    between atoms: C_6  and  C_7
REMARK    4  A    between atoms: C_7  and  N_8
REMARK                            x       y       z     vdW  Elec       q    Type
REMARK                         _______ _______ _______ _____ _____    ______ ____
ROOT
ATOM      1  C   UNL     1      45.253   2.736   9.468  0.00  0.00    +0.000 C 
ATOM      2  C   UNL     1      44.064   2.627  10.433  0.00  0.00    +0.000 C 
ATOM      3  C   UNL     1      44.124   3.664  11.550  0.00  0.00    +0.000 C 
ATOM      4  C   UNL     1      44.232   5.099  11.010  0.00  0.00    +0.000 C 
ATOM      5  C   UNL     1      45.417   5.213  10.037  0.00  0.00    +0.000 C 
ATOM      6  C   UNL     1      45.361   4.168   8.918  0.00  0.00    +0.000 C 
ENDROOT
BRANCH   1   7
ATOM      7  C   UNL     1      45.103   1.678   8.356  0.00  0.00    +0.000 C 
BRANCH   7   8
ATOM      8  N   UNL     1      46.315   0.895   8.156  0.00  0.00    +0.000 NA
ATOM      9  H   UNL     1      46.645   0.547   9.056  0.00  0.00    +0.000 HD
ATOM     10  H   UNL     1      47.056   1.491   7.791  0.00  0.00    +0.000 HD
ENDBRANCH   7   8
ENDBRANCH   1   7
BRANCH   4  11
ATOM     11  C   UNL     1      44.372   6.130  12.154  0.00  0.00    +0.000 C 
BRANCH  11  12
ATOM     12  N   UNL     1      45.604   5.992  12.921  0.00  0.00    +0.000 N 
ATOM     13  C   UNL     1      45.821   4.999  13.850  0.00  0.00    +0.000 A 
ATOM     14  C   UNL     1      47.144   5.054  14.230  0.00  0.00    +0.000 A 
ATOM     15  C   UNL     1      47.735   6.138  13.546  0.00  0.00    +0.000 A 
ATOM     16  N   UNL     1      49.025   6.557  13.584  0.00  0.00    +0.000 NA
ATOM     17  C   UNL     1      49.288   7.644  12.832  0.00  0.00    +0.000 A 
ATOM     18  C   UNL     1      48.359   8.353  12.087  0.00  0.00    +0.000 A 
ATOM     19  C   UNL     1      47.034   7.917  12.054  0.00  0.00    +0.000 A 
ATOM     20  C   UNL     1      46.743   6.757  12.783  0.00  0.00    +0.000 A 
ENDBRANCH  11  12
ENDBRANCH   4  11
TORSDOF 4
ENDMDL
MODEL 6
REMARK VINA RESULT:    -5.598      3.593      7.366
REMARK INTER + INTRA:          -6.905
REMARK INTER:                  -6.453
REMARK INTRA:                  -0.452
REMARK UNBOUND:                -0.162
REMARK  Name = 
REMARK  4 active torsions:
REMARK  status: ('A' for Active; 'I' for Inactive)
REMARK    1  A    between atoms: N_1  and  C_2
REMARK    2  A    between atoms: C_2  and  C_3
REMARK    3  A    between atoms: C_6  and  C_7
REMARK    4  A    between atoms: C_7  and  N_8
REMARK                            x       y       z     vdW  Elec       q    Type
REMARK                         _______ _______ _______ _____ _____    ______ ____
ROOT
ATOM      1  C   UNL     1      48.668   4.485  17.521  0.00  0.00    +0.000 C 
ATOM      2  C   UNL     1      48.661   5.972  17.137  0.00  0.00    +0.000 C 
ATOM      3  C   UNL     1      48.650   6.182  15.626  0.00  0.00    +0.000 C 
ATOM      4  C   UNL     1      47.478   5.459  14.945  0.00  0.00    +0.000 C 
ATOM      5  C   UNL     1      47.473   3.971  15.331  0.00  0.00    +0.000 C 
ATOM      6  C   UNL     1      47.491   3.759  16.849  0.00  0.00    +0.000 C 
ENDROOT
BRANCH   1   7
ATOM      7  C   UNL     1      48.649   4.359  19.058  0.00  0.00    +0.000 C 
BRANCH   7   8
ATOM      8  N   UNL     1      48.236   3.036  19.509  0.00  0.00    +0.000 NA
ATOM      9  H   UNL     1      47.310   3.097  19.932  0.00  0.00    +0.000 HD
ATOM     10  H   UNL     1      48.864   2.709  20.242  0.00  0.00    +0.000 HD
ENDBRANCH   7   8
ENDBRANCH   1   7
BRANCH   4  11
ATOM     11  C   UNL     1      47.526   5.617  13.407  0.00  0.00    +0.000 C 
BRANCH  11  12
ATOM     12  N   UNL     1      46.249   5.995  12.816  0.00  0.00    +0.000 N 
ATOM     13  C   UNL     1      45.900   7.292  12.510  0.00  0.00    +0.000 A 
ATOM     14  C   UNL     1      44.723   7.259  11.794  0.00  0.00    +0.000 A 
ATOM     15  C   UNL     1      44.323   5.908  11.702  0.00  0.00    +0.000 A 
ATOM     16  N   UNL     1      43.242   5.390  11.067  0.00  0.00    +0.000 NA
ATOM     17  C   UNL     1      43.112   4.053  11.174  0.00  0.00    +0.000 A 
ATOM     18  C   UNL     1      43.951   3.216  11.890  0.00  0.00    +0.000 A 
ATOM     19  C   UNL     1      45.060   3.755  12.543  0.00  0.00    +0.000 A 
ATOM     20  C   UNL     1      45.251   5.136  12.404  0.00  0.00    +0.000 A 
ENDBRANCH  11  12
ENDBRANCH   4  11
TORSDOF 4
ENDMDL
MODEL 7
REMARK VINA RESULT:    -5.490      4.500      7.678
REMARK INTER + INTRA:          -6.776
REMARK INTER:                  -6.346
REMARK INTRA:                  -0.430
REMARK UNBOUND:                -0.162
REMARK  Name = 
REMARK  4 active torsions:
REMARK  status: ('A' for Active; 'I' for Inactive)
REMARK    1  A    between atoms: N_1  and  C_2
REMARK    2  A    between atoms: C_2  and  C_3
REMARK    3  A    between atoms: C_6  and  C_7
REMARK    4  A    between atoms: C_7  and  N_8
REMARK                            x       y       z     vdW  Elec       q    Type
REMARK                         _______ _______ _______ _____ _____    ______ ____
ROOT
ATOM      1  C   UNL     1      48.839   4.423  18.244  0.00  0.00    +0.000 C 
ATOM      2  C   UNL     1      48.426   5.728  17.548  0.00  0.00    +0.000 C 
ATOM      3  C   UNL     1      48.290   5.564  16.037  0.00  0.00    +0.000 C 
ATOM      4  C   UNL     1      47.318   4.436  15.657  0.00  0.00    +0.000 C 
ATOM      5  C   UNL     1      47.722   3.128  16.357  0.00  0.00    +0.000 C 
ATOM      6  C   UNL     1      47.865   3.293  17.874  0.00  0.00    +0.000 C 
ENDROOT
BRANCH   1   7
ATOM      7  C   UNL     1      48.925   4.665  19.764  0.00  0.00    +0.000 C 
BRANCH   7   8
ATOM      8  N   UNL     1      48.389   3.555  20.542  0.00  0.00    +0.000 NA
ATOM      9  H   UNL     1      47.484   3.819  20.929  0.00  0.00    +0.000 HD
ATOM     10  H   UNL     1      48.997   3.366  21.338  0.00  0.00    +0.000 HD
ENDBRANCH   7   8
ENDBRANCH   1   7
BRANCH   4  11
ATOM     11  C   UNL     1      47.252   4.230  14.126  0.00  0.00    +0.000 C 
BRANCH  11  12
ATOM     12  N   UNL     1      46.277   5.084  13.461  0.00  0.00    +0.000 N 
ATOM     13  C   UNL     1      44.951   4.749  13.295  0.00  0.00    +0.000 A 
ATOM     14  C   UNL     1      44.290   5.856  12.811  0.00  0.00    +0.000 A 
ATOM     15  C   UNL     1      45.248   6.878  12.636  0.00  0.00    +0.000 A 
ATOM     16  N   UNL     1      45.055   8.150  12.208  0.00  0.00    +0.000 NA
ATOM     17  C   UNL     1      46.177   8.893  12.122  0.00  0.00    +0.000 A 
ATOM     18  C   UNL     1      47.461   8.449  12.393  0.00  0.00    +0.000 A 
ATOM     19  C   UNL     1      47.652   7.138  12.831  0.00  0.00    +0.000 A 
ATOM     20  C   UNL     1      46.497   6.359  12.982  0.00  0.00    +0.000 A 
ENDBRANCH  11  12
ENDBRANCH   4  11
TORSDOF 4
ENDMDL
MODEL 8
REMARK VINA RESULT:    -5.434      2.972      6.214
REMARK INTER + INTRA:          -6.709
REMARK INTER:                  -6.280
REMARK INTRA:                  -0.429
REMARK UNBOUND:                -0.162
REMARK  Name = 
REMARK  4 active torsions:
REMARK  status: ('A' for Active; 'I' for Inactive)
REMARK    1  A    between atoms: N_1  and  C_2
REMARK    2  A    between atoms: C_2  and  C_3
REMARK    3  A    between atoms: C_6  and  C_7
REMARK    4  A    between atoms: C_7  and  N_8
REMARK                            x       y       z     vdW  Elec       q    Type
REMARK                         _______ _______ _______ _____ _____    ______ ____
ROOT
ATOM      1  C   UNL     1      50.432   8.474  13.073  0.00  0.00    +0.000 C 
ATOM      2  C   UNL     1      49.746   7.529  14.070  0.00  0.00    +0.000 C 
ATOM      3  C   UNL     1      48.234   7.476  13.876  0.00  0.00    +0.000 C 
ATOM      4  C   UNL     1      47.842   7.096  12.439  0.00  0.00    +0.000 C 
ATOM      5  C   UNL     1      48.532   8.034  11.435  0.00  0.00    +0.000 C 
ATOM      6  C   UNL     1      50.050   8.093  11.633  0.00  0.00    +0.000 C 
ENDROOT
BRANCH   1   7
ATOM      7  C   UNL     1      51.954   8.448  13.315  0.00  0.00    +0.000 C 
BRANCH   7   8
ATOM      8  N   UNL     1      52.322   7.701  14.510  0.00  0.00    +0.000 NA
ATOM      9  H   UNL     1      51.531   7.132  14.810  0.00  0.00    +0.000 HD
ATOM     10  H   UNL     1      52.516   8.346  15.275  0.00  0.00    +0.000 HD
ENDBRANCH   7   8
ENDBRANCH   1   7
BRANCH   4  11
ATOM     11  C   UNL     1      46.309   7.124  12.239  0.00  0.00    +0.000 C 
BRANCH  11  12
ATOM     12  N   UNL     1      45.704   5.801  12.160  0.00  0.00    +0.000 N 
ATOM     13  C   UNL     1      45.245   5.102  13.255  0.00  0.00    +0.000 A 
ATOM     14  C   UNL     1      44.566   3.994  12.797  0.00  0.00    +0.000 A 
ATOM     15  C   UNL     1      44.653   3.997  11.388  0.00  0.00    +0.000 A 
ATOM     16  N   UNL     1      44.112   3.118  10.508  0.00  0.00    +0.000 NA
ATOM     17  C   UNL     1      44.388   3.373   9.213  0.00  0.00    +0.000 A 
ATOM     18  C   UNL     1      45.185   4.406   8.747  0.00  0.00    +0.000 A 
ATOM     19  C   UNL     1      45.740   5.305   9.659  0.00  0.00    +0.000 A 
ATOM     20  C   UNL     1      45.425   5.096  11.008  0.00  0.00    +0.000 A 
ENDBRANCH  11  12
ENDBRANCH   4  11
TORSDOF 4
ENDMDL
MODEL 9
REMARK VINA RESULT:    -5.419      3.288      5.240
REMARK INTER + INTRA:          -6.690
REMARK INTER:                  -6.314
REMARK INTRA:                  -0.376
REMARK UNBOUND:                -0.162
REMARK  Name = 
REMARK  4 active torsions:
REMARK  status: ('A' for Active; 'I' for Inactive)
REMARK    1  A    between atoms: N_1  and  C_2
REMARK    2  A    between atoms: C_2  and  C_3
REMARK    3  A    between atoms: C_6  and  C_7
REMARK    4  A    between atoms: C_7  and  N_8
REMARK                            x       y       z     vdW  Elec       q    Type
REMARK                         _______ _______ _______ _____ _____    ______ ____
ROOT
ATOM      1  C   UNL     1      44.568   3.757  10.717  0.00  0.00    +0.000 C 
ATOM      2  C   UNL     1      45.270   4.911   9.988  0.00  0.00    +0.000 C 
ATOM      3  C   UNL     1      45.398   6.158  10.859  0.00  0.00    +0.000 C 
ATOM      4  C   UNL     1      46.108   5.870  12.190  0.00  0.00    +0.000 C 
ATOM      5  C   UNL     1      45.415   4.709  12.922  0.00  0.00    +0.000 C 
ATOM      6  C   UNL     1      45.281   3.459  12.047  0.00  0.00    +0.000 C 
ENDROOT
BRANCH   1   7
ATOM      7  C   UNL     1      44.505   2.531   9.784  0.00  0.00    +0.000 C 
BRANCH   7   8
ATOM      8  N   UNL     1      44.338   2.897   8.384  0.00  0.00    +0.000 NA
ATOM      9  H   UNL     1      44.322   3.913   8.299  0.00  0.00    +0.000 HD
ATOM     10  H   UNL     1      43.434   2.568   8.046  0.00  0.00    +0.000 HD
ENDBRANCH   7   8
ENDBRANCH   1   7
BRANCH   4  11
ATOM     11  C   UNL     1      46.159   7.124  13.093  0.00  0.00    +0.000 C 
BRANCH  11  12
ATOM     12  N   UNL     1      46.802   8.272  12.467  0.00  0.00    +0.000 N 
ATOM     13  C   UNL     1      46.178   9.482  12.262  0.00  0.00    +0.000 A 
ATOM     14  C   UNL     1      47.129  10.384  11.836  0.00  0.00    +0.000 A 
ATOM     15  C   UNL     1      48.354   9.691  11.737  0.00  0.00    +0.000 A 
ATOM     16  N   UNL     1      49.571  10.175  11.385  0.00  0.00    +0.000 NA
ATOM     17  C   UNL     1      50.559   9.258  11.361  0.00  0.00    +0.000 A 
ATOM     18  C   UNL     1      50.410   7.906  11.624  0.00  0.00    +0.000 A 
ATOM     19  C   UNL     1      49.155   7.414  11.985  0.00  0.00    +0.000 A 
ATOM     20  C   UNL     1      48.120   8.355  12.070  0.00  0.00    +0.000 A 
ENDBRANCH  11  12
ENDBRANCH   4  11
TORSDOF 4
ENDMDL
