MODEL 1
REMARK VINA RESULT:    -8.623      0.000      0.000
REMARK INTER + INTRA:         -13.513
REMARK INTER:                 -12.403
REMARK INTRA:                  -1.109
REMARK UNBOUND:                -1.109
REMARK  Name = 
REMARK  8 active torsions:
REMARK  status: ('A' for Active; 'I' for Inactive)
REMARK    1  A    between atoms: C_2  and  C_4
REMARK    2  A    between atoms: C_7  and  N_8
REMARK    3  A    between atoms: N_8  and  C_9
REMARK    4  A    between atoms: C_9  and  C_10
REMARK    5  A    between atoms: C_10  and  C_11
REMARK    6  A    between atoms: C_15  and  C_16
REMARK    7  A    between atoms: C_19  and  C_20
REMARK    8  A    between atoms: C_26  and  O_27
REMARK                            x       y       z     vdW  Elec       q    Type
REMARK                         _______ _______ _______ _____ _____    ______ ____
ROOT
ATOM      1  C   UNL     1      44.977   5.115  12.881  0.00  0.00    +0.000 A 
ATOM      2  N   UNL     1      45.550   4.200  13.694  0.00  0.00    +0.000 NA
ATOM      3  C   UNL     1      46.851   4.361  13.964  0.00  0.00    +0.000 A 
ATOM      4  N   UNL     1      47.629   5.358  13.525  0.00  0.00    +0.000 NA
ATOM      5  C   UNL     1      47.045   6.278  12.721  0.00  0.00    +0.000 A 
ATOM      6  C   UNL     1      45.708   6.161  12.334  0.00  0.00    +0.000 A 
ENDROOT
BRANCH   5   7
ATOM      7  C   UNL     1      47.935   7.398  12.321  0.00  0.00    +0.000 A 
ATOM      8  C   UNL     1      49.258   7.160  11.903  0.00  0.00    +0.000 A 
ATOM      9  C   UNL     1      50.099   8.205  11.497  0.00  0.00    +0.000 A 
ATOM     10  C   UNL     1      49.636   9.526  11.491  0.00  0.00    +0.000 A 
ATOM     11  C   UNL     1      48.333   9.782  11.933  0.00  0.00    +0.000 A 
ATOM     12  C   UNL     1      47.511   8.738  12.366  0.00  0.00    +0.000 A 
BRANCH  10  13
ATOM     13  C   UNL     1      50.503  10.671  11.029  0.00  0.00    +0.000 C 
ATOM     14  F   UNL     1      51.679  10.278  10.469  0.00  0.00    +0.000 F 
ATOM     15  F   UNL     1      49.881  11.441  10.091  0.00  0.00    +0.000 F 
ATOM     16  F   UNL     1      50.833  11.516  12.044  0.00  0.00    +0.000 F 
ENDBRANCH  10  13
ENDBRANCH   5   7
BRANCH   6  17
ATOM     17  O   UNL     1      45.088   6.987  11.440  0.00  0.00    +0.000 OA
ATOM     18  H   UNL     1      44.551   7.630  11.936  0.00  0.00    +0.000 HD
ENDBRANCH   6  17
BRANCH   1  19
ATOM     19  C   UNL     1      43.499   4.975  12.576  0.00  0.00    +0.000 C 
BRANCH  19  20
ATOM     20  C   UNL     1      43.237   4.019  11.412  0.00  0.00    +0.000 C 
BRANCH  20  21
ATOM     21  N   UNL     1      43.654   4.594  10.125  0.00  0.00    +0.000 N 
ATOM     22  H   UNL     1      43.894   5.581  10.196  0.00  0.00    +0.000 HD
BRANCH  21  26
ATOM     23  C   UNL     1      46.424   2.552   7.765  0.00  0.00    +0.000 A 
ATOM     24  C   UNL     1      45.651   1.806   8.639  0.00  0.00    +0.000 A 
ATOM     25  C   UNL     1      44.735   2.480   9.447  0.00  0.00    +0.000 A 
ATOM     26  C   UNL     1      44.617   3.873   9.395  0.00  0.00    +0.000 A 
ATOM     27  C   UNL     1      45.424   4.515   8.444  0.00  0.00    +0.000 A 
ATOM     28  N   UNL     1      46.339   3.905   7.643  0.00  0.00    +0.000 NA
BRANCH  23  30
ATOM     29  N   UNL     1      48.501   2.582   6.512  0.00  0.00    +0.000 N 
ATOM     30  C   UNL     1      47.409   1.847   6.884  0.00  0.00    +0.000 C 
ATOM     31  O   UNL     1      47.261   0.687   6.519  0.00  0.00    +0.000 OA
ATOM     32  H   UNL     1      49.193   2.168   5.906  0.00  0.00    +0.000 HD
ATOM     33  H   UNL     1      48.591   3.540   6.829  0.00  0.00    +0.000 HD
ENDBRANCH  23  30
ENDBRANCH  21  26
ENDBRANCH  20  21
ENDBRANCH  19  20
ENDBRANCH   1  19
TORSDOF 8
ENDMDL
MODEL 2
REMARK VINA RESULT:    -7.954      1.999      2.358
REMARK INTER + INTRA:         -12.551
REMARK INTER:                 -11.312
REMARK INTRA:                  -1.239
REMARK UNBOUND:                -1.109
REMARK  Name = 
REMARK  8 active torsions:
REMARK  status: ('A' for Active; 'I' for Inactive)
REMARK    1  A    between atoms: C_2  and  C_4
REMARK    2  A    between atoms: C_7  and  N_8
REMARK    3  A    between atoms: N_8  and  C_9
REMARK    4  A    between atoms: C_9  and  C_10
REMARK    5  A    between atoms: C_10  and  C_11
REMARK    6  A    between atoms: C_15  and  C_16
REMARK    7  A    between atoms: C_19  and  C_20
REMARK    8  A    between atoms: C_26  and  O_27
REMARK                            x       y       z     vdW  Elec       q    Type
REMARK                         _______ _______ _______ _____ _____    ______ ____
ROOT
ATOM      1  C   UNL     1      44.177   5.544  12.522  0.00  0.00    +0.000 A 
ATOM      2  N   UNL     1      43.515   6.429  11.743  0.00  0.00    +0.000 NA
ATOM      3  C   UNL     1      44.164   7.553  11.418  0.00  0.00    +0.000 A 
ATOM      4  N   UNL     1      45.417   7.869  11.769  0.00  0.00    +0.000 NA
ATOM      5  C   UNL     1      46.079   6.971  12.539  0.00  0.00    +0.000 A 
ATOM      6  C   UNL     1      45.462   5.798  12.980  0.00  0.00    +0.000 A 
ENDROOT
BRANCH   5   7
ATOM      7  C   UNL     1      47.485   7.340  12.840  0.00  0.00    +0.000 A 
ATOM      8  C   UNL     1      48.476   7.301  11.841  0.00  0.00    +0.000 A 
ATOM      9  C   UNL     1      49.801   7.674  12.106  0.00  0.00    +0.000 A 
ATOM     10  C   UNL     1      50.175   8.104  13.384  0.00  0.00    +0.000 A 
ATOM     11  C   UNL     1      49.208   8.118  14.396  0.00  0.00    +0.000 A 
ATOM     12  C   UNL     1      47.896   7.716  14.132  0.00  0.00    +0.000 A 
BRANCH  10  13
ATOM     13  C   UNL     1      51.583   8.542  13.696  0.00  0.00    +0.000 C 
ATOM     14  F   UNL     1      52.406   8.561  12.612  0.00  0.00    +0.000 F 
ATOM     15  F   UNL     1      51.627   9.800  14.220  0.00  0.00    +0.000 F 
ATOM     16  F   UNL     1      52.188   7.738  14.613  0.00  0.00    +0.000 F 
ENDBRANCH  10  13
ENDBRANCH   5   7
BRANCH   6  17
ATOM     17  O   UNL     1      46.030   4.907  13.846  0.00  0.00    +0.000 OA
ATOM     18  H   UNL     1      45.631   5.034  14.725  0.00  0.00    +0.000 HD
ENDBRANCH   6  17
BRANCH   1  19
ATOM     19  C   UNL     1      43.477   4.250  12.887  0.00  0.00    +0.000 C 
BRANCH  19  20
ATOM     20  C   UNL     1      43.554   3.215  11.765  0.00  0.00    +0.000 C 
BRANCH  20  21
ATOM     21  N   UNL     1      43.552   3.845  10.436  0.00  0.00    +0.000 N 
ATOM     22  H   UNL     1      43.468   4.859  10.484  0.00  0.00    +0.000 HD
BRANCH  21  26
ATOM     23  C   UNL     1      46.448   2.772   7.630  0.00  0.00    +0.000 A 
ATOM     24  C   UNL     1      45.879   1.761   8.384  0.00  0.00    +0.000 A 
ATOM     25  C   UNL     1      44.923   2.109   9.339  0.00  0.00    +0.000 A 
ATOM     26  C   UNL     1      44.567   3.446   9.548  0.00  0.00    +0.000 A 
ATOM     27  C   UNL     1      45.182   4.376   8.698  0.00  0.00    +0.000 A 
ATOM     28  N   UNL     1      46.126   4.089   7.761  0.00  0.00    +0.000 NA
BRANCH  23  30
ATOM     29  N   UNL     1      47.397   3.124   5.426  0.00  0.00    +0.000 N 
ATOM     30  C   UNL     1      47.471   2.418   6.595  0.00  0.00    +0.000 C 
ATOM     31  O   UNL     1      48.325   1.559   6.774  0.00  0.00    +0.000 OA
ATOM     32  H   UNL     1      48.049   2.920   4.684  0.00  0.00    +0.000 HD
ATOM     33  H   UNL     1      46.675   3.826   5.309  0.00  0.00    +0.000 HD
ENDBRANCH  23  30
ENDBRANCH  21  26
ENDBRANCH  20  21
ENDBRANCH  19  20
ENDBRANCH   1  19
TORSDOF 8
ENDMDL
MODEL 3
REMARK VINA RESULT:    -7.392      4.468      7.659
REMARK INTER + INTRA:         -11.743
REMARK INTER:                 -11.461
REMARK INTRA:                  -0.282
REMARK UNBOUND:                -1.109
REMARK  Name = 
REMARK  8 active torsions:
REMARK  status: ('A' for Active; 'I' for Inactive)
REMARK    1  A    between atoms: C_2  and  C_4
REMARK    2  A    between atoms: C_7  and  N_8
REMARK    3  A    between atoms: N_8  and  C_9
REMARK    4  A    between atoms: C_9  and  C_10
REMARK    5  A    between atoms: C_10  and  C_11
REMARK    6  A    between atoms: C_15  and  C_16
REMARK    7  A    between atoms: C_19  and  C_20
REMARK    8  A    between atoms: C_26  and  O_27
REMARK                            x       y       z     vdW  Elec       q    Type
REMARK                         _______ _______ _______ _____ _____    ______ ____
ROOT
ATOM      1  C   UNL     1      44.582   6.500  12.264  0.00  0.00    +0.000 A 
ATOM      2  N   UNL     1      43.717   5.809  13.041  0.00  0.00    +0.000 NA
ATOM      3  C   UNL     1      43.392   4.575  12.634  0.00  0.00    +0.000 A 
ATOM      4  N   UNL     1      43.866   3.954  11.548  0.00  0.00    +0.000 NA
ATOM      5  C   UNL     1      44.742   4.648  10.782  0.00  0.00    +0.000 A 
ATOM      6  C   UNL     1      45.093   5.964  11.091  0.00  0.00    +0.000 A 
ENDROOT
BRANCH   5   7
ATOM      7  C   UNL     1      45.288   3.886   9.630  0.00  0.00    +0.000 A 
ATOM      8  C   UNL     1      45.839   4.549   8.517  0.00  0.00    +0.000 A 
ATOM      9  C   UNL     1      46.383   3.841   7.436  0.00  0.00    +0.000 A 
ATOM     10  C   UNL     1      46.396   2.442   7.439  0.00  0.00    +0.000 A 
ATOM     11  C   UNL     1      45.823   1.769   8.524  0.00  0.00    +0.000 A 
ATOM     12  C   UNL     1      45.255   2.480   9.584  0.00  0.00    +0.000 A 
BRANCH  10  13
ATOM     13  C   UNL     1      47.001   1.649   6.308  0.00  0.00    +0.000 C 
ATOM     14  F   UNL     1      46.534   2.001   5.079  0.00  0.00    +0.000 F 
ATOM     15  F   UNL     1      48.356   1.791   6.247  0.00  0.00    +0.000 F 
ATOM     16  F   UNL     1      46.773   0.312   6.429  0.00  0.00    +0.000 F 
ENDBRANCH  10  13
ENDBRANCH   5   7
BRANCH   6  17
ATOM     17  O   UNL     1      45.881   6.757  10.305  0.00  0.00    +0.000 OA
ATOM     18  H   UNL     1      46.384   6.186   9.698  0.00  0.00    +0.000 HD
ENDBRANCH   6  17
BRANCH   1  19
ATOM     19  C   UNL     1      44.989   7.890  12.710  0.00  0.00    +0.000 C 
BRANCH  19  20
ATOM     20  C   UNL     1      46.394   7.916  13.312  0.00  0.00    +0.000 C 
BRANCH  20  21
ATOM     21  N   UNL     1      47.134   6.678  13.030  0.00  0.00    +0.000 N 
ATOM     22  H   UNL     1      47.955   6.836  12.447  0.00  0.00    +0.000 HD
BRANCH  21  26
ATOM     23  C   UNL     1      47.774   4.201  16.327  0.00  0.00    +0.000 A 
ATOM     24  C   UNL     1      48.368   5.451  16.337  0.00  0.00    +0.000 A 
ATOM     25  C   UNL     1      48.177   6.281  15.232  0.00  0.00    +0.000 A 
ATOM     26  C   UNL     1      47.427   5.853  14.131  0.00  0.00    +0.000 A 
ATOM     27  C   UNL     1      46.843   4.584  14.252  0.00  0.00    +0.000 A 
ATOM     28  N   UNL     1      47.008   3.734  15.302  0.00  0.00    +0.000 NA
BRANCH  23  30
ATOM     29  N   UNL     1      46.862   2.573  17.876  0.00  0.00    +0.000 N 
ATOM     30  C   UNL     1      47.961   3.298  17.506  0.00  0.00    +0.000 C 
ATOM     31  O   UNL     1      49.025   3.202  18.106  0.00  0.00    +0.000 OA
ATOM     32  H   UNL     1      46.920   1.958  18.673  0.00  0.00    +0.000 HD
ATOM     33  H   UNL     1      45.996   2.678  17.360  0.00  0.00    +0.000 HD
ENDBRANCH  23  30
ENDBRANCH  21  26
ENDBRANCH  20  21
ENDBRANCH  19  20
ENDBRANCH   1  19
TORSDOF 8
ENDMDL
MODEL 4
REMARK VINA RESULT:    -7.192      2.631      3.112
REMARK INTER + INTRA:         -11.454
REMARK INTER:                 -10.590
REMARK INTRA:                  -0.864
REMARK UNBOUND:                -1.109
REMARK  Name = 
REMARK  8 active torsions:
REMARK  status: ('A' for Active; 'I' for Inactive)
REMARK    1  A    between atoms: C_2  and  C_4
REMARK    2  A    between atoms: C_7  and  N_8
REMARK    3  A    between atoms: N_8  and  C_9
REMARK    4  A    between atoms: C_9  and  C_10
REMARK    5  A    between atoms: C_10  and  C_11
REMARK    6  A    between atoms: C_15  and  C_16
REMARK    7  A    between atoms: C_19  and  C_20
REMARK    8  A    between atoms: C_26  and  O_27
REMARK                            x       y       z     vdW  Elec       q    Type
REMARK                         _______ _______ _______ _____ _____    ______ ____
ROOT
ATOM      1  C   UNL     1      45.969   5.770  12.646  0.00  0.00    +0.000 A 
ATOM      2  N   UNL     1      45.870   4.573  13.266  0.00  0.00    +0.000 NA
ATOM      3  C   UNL     1      46.769   4.311  14.223  0.00  0.00    +0.000 A 
ATOM      4  N   UNL     1      47.737   5.136  14.640  0.00  0.00    +0.000 NA
ATOM      5  C   UNL     1      47.821   6.339  14.024  0.00  0.00    +0.000 A 
ATOM      6  C   UNL     1      46.967   6.677  12.971  0.00  0.00    +0.000 A 
ENDROOT
BRANCH   5   7
ATOM      7  C   UNL     1      48.867   7.240  14.573  0.00  0.00    +0.000 A 
ATOM      8  C   UNL     1      48.726   7.823  15.847  0.00  0.00    +0.000 A 
ATOM      9  C   UNL     1      49.718   8.651  16.389  0.00  0.00    +0.000 A 
ATOM     10  C   UNL     1      50.889   8.918  15.670  0.00  0.00    +0.000 A 
ATOM     11  C   UNL     1      51.029   8.371  14.390  0.00  0.00    +0.000 A 
ATOM     12  C   UNL     1      50.022   7.571  13.843  0.00  0.00    +0.000 A 
BRANCH  10  13
ATOM     13  C   UNL     1      51.991   9.779  16.235  0.00  0.00    +0.000 C 
ATOM     14  F   UNL     1      52.119   9.690  17.587  0.00  0.00    +0.000 F 
ATOM     15  F   UNL     1      53.212   9.455  15.722  0.00  0.00    +0.000 F 
ATOM     16  F   UNL     1      51.812  11.100  15.961  0.00  0.00    +0.000 F 
ENDBRANCH  10  13
ENDBRANCH   5   7
BRANCH   6  17
ATOM     17  O   UNL     1      47.068   7.823  12.234  0.00  0.00    +0.000 OA
ATOM     18  H   UNL     1      47.313   8.553  12.830  0.00  0.00    +0.000 HD
ENDBRANCH   6  17
BRANCH   1  19
ATOM     19  C   UNL     1      44.951   6.106  11.574  0.00  0.00    +0.000 C 
BRANCH  19  20
ATOM     20  C   UNL     1      43.979   4.953  11.318  0.00  0.00    +0.000 C 
BRANCH  20  21
ATOM     21  N   UNL     1      43.682   4.794   9.887  0.00  0.00    +0.000 N 
ATOM     22  H   UNL     1      43.559   5.685   9.411  0.00  0.00    +0.000 HD
BRANCH  21  26
ATOM     23  C   UNL     1      46.235   2.129   7.939  0.00  0.00    +0.000 A 
ATOM     24  C   UNL     1      46.356   3.474   7.635  0.00  0.00    +0.000 A 
ATOM     25  C   UNL     1      45.495   4.372   8.266  0.00  0.00    +0.000 A 
ATOM     26  C   UNL     1      44.518   3.926   9.162  0.00  0.00    +0.000 A 
ATOM     27  C   UNL     1      44.518   2.547   9.420  0.00  0.00    +0.000 A 
ATOM     28  N   UNL     1      45.327   1.631   8.824  0.00  0.00    +0.000 NA
BRANCH  23  30
ATOM     29  N   UNL     1      48.220   1.693   6.617  0.00  0.00    +0.000 N 
ATOM     30  C   UNL     1      47.154   1.149   7.278  0.00  0.00    +0.000 C 
ATOM     31  O   UNL     1      46.975  -0.062   7.323  0.00  0.00    +0.000 OA
ATOM     32  H   UNL     1      48.867   1.085   6.137  0.00  0.00    +0.000 HD
ATOM     33  H   UNL     1      48.337   2.699   6.596  0.00  0.00    +0.000 HD
ENDBRANCH  23  30
ENDBRANCH  21  26
ENDBRANCH  20  21
ENDBRANCH  19  20
ENDBRANCH   1  19
TORSDOF 8
ENDMDL
MODEL 5
REMARK VINA RESULT:    -7.180      4.228      5.162
REMARK INTER + INTRA:         -11.437
REMARK INTER:                 -11.360
REMARK INTRA:                  -0.077
REMARK UNBOUND:                -1.109
REMARK  Name = 
REMARK  8 active torsions:
REMARK  status: ('A' for Active; 'I' for Inactive)
REMARK    1  A    between atoms: C_2  and  C_4
REMARK    2  A    between atoms: C_7  and  N_8
REMARK    3  A    between atoms: N_8  and  C_9
REMARK    4  A    between atoms: C_9  and  C_10
REMARK    5  A    between atoms: C_10  and  C_11
REMARK    6  A    between atoms: C_15  and  C_16
REMARK    7  A    between atoms: C_19  and  C_20
REMARK    8  A    between atoms: C_26  and  O_27
REMARK                            x       y       z     vdW  Elec       q    Type
REMARK                         _______ _______ _______ _____ _____    ______ ____
ROOT
ATOM      1  C   UNL     1      46.512   5.662  12.397  0.00  0.00    +0.000 A 
ATOM      2  N   UNL     1      47.022   6.702  11.701  0.00  0.00    +0.000 NA
ATOM      3  C   UNL     1      47.950   7.446  12.318  0.00  0.00    +0.000 A 
ATOM      4  N   UNL     1      48.436   7.237  13.547  0.00  0.00    +0.000 NA
ATOM      5  C   UNL     1      47.930   6.185  14.233  0.00  0.00    +0.000 A 
ATOM      6  C   UNL     1      46.915   5.389  13.697  0.00  0.00    +0.000 A 
ENDROOT
BRANCH   5   7
ATOM      7  C   UNL     1      48.555   5.959  15.561  0.00  0.00    +0.000 A 
ATOM      8  C   UNL     1      49.682   6.697  15.968  0.00  0.00    +0.000 A 
ATOM      9  C   UNL     1      50.264   6.514  17.230  0.00  0.00    +0.000 A 
ATOM     10  C   UNL     1      49.729   5.584  18.129  0.00  0.00    +0.000 A 
ATOM     11  C   UNL     1      48.627   4.821  17.727  0.00  0.00    +0.000 A 
ATOM     12  C   UNL     1      48.071   4.987  16.456  0.00  0.00    +0.000 A 
BRANCH  10  13
ATOM     13  C   UNL     1      50.310   5.384  19.506  0.00  0.00    +0.000 C 
ATOM     14  F   UNL     1      51.235   4.388  19.572  0.00  0.00    +0.000 F 
ATOM     15  F   UNL     1      50.932   6.504  19.970  0.00  0.00    +0.000 F 
ATOM     16  F   UNL     1      49.360   5.076  20.432  0.00  0.00    +0.000 F 
ENDBRANCH  10  13
ENDBRANCH   5   7
BRANCH   6  17
ATOM     17  O   UNL     1      46.282   4.385  14.374  0.00  0.00    +0.000 OA
ATOM     18  H   UNL     1      46.639   4.351  15.279  0.00  0.00    +0.000 HD
ENDBRANCH   6  17
BRANCH   1  19
ATOM     19  C   UNL     1      45.478   4.786  11.718  0.00  0.00    +0.000 C 
BRANCH  19  20
ATOM     20  C   UNL     1      44.413   5.607  10.991  0.00  0.00    +0.000 C 
BRANCH  20  21
ATOM     21  N   UNL     1      43.749   4.831   9.933  0.00  0.00    +0.000 N 
ATOM     22  H   UNL     1      43.192   5.414   9.311  0.00  0.00    +0.000 HD
BRANCH  21  26
ATOM     23  C   UNL     1      46.202   2.053   8.013  0.00  0.00    +0.000 A 
ATOM     24  C   UNL     1      46.365   3.389   7.686  0.00  0.00    +0.000 A 
ATOM     25  C   UNL     1      45.538   4.325   8.307  0.00  0.00    +0.000 A 
ATOM     26  C   UNL     1      44.553   3.925   9.217  0.00  0.00    +0.000 A 
ATOM     27  C   UNL     1      44.509   2.551   9.497  0.00  0.00    +0.000 A 
ATOM     28  N   UNL     1      45.284   1.600   8.912  0.00  0.00    +0.000 NA
BRANCH  23  30
ATOM     29  N   UNL     1      46.788  -0.271   7.647  0.00  0.00    +0.000 N 
ATOM     30  C   UNL     1      47.084   1.033   7.363  0.00  0.00    +0.000 C 
ATOM     31  O   UNL     1      48.010   1.335   6.620  0.00  0.00    +0.000 OA
ATOM     32  H   UNL     1      47.356  -1.005   7.251  0.00  0.00    +0.000 HD
ATOM     33  H   UNL     1      46.017  -0.486   8.268  0.00  0.00    +0.000 HD
ENDBRANCH  23  30
ENDBRANCH  21  26
ENDBRANCH  20  21
ENDBRANCH  19  20
ENDBRANCH   1  19
TORSDOF 8
ENDMDL
MODEL 6
REMARK VINA RESULT:    -7.028      3.877      4.598
REMARK INTER + INTRA:         -11.219
REMARK INTER:                 -10.700
REMARK INTRA:                  -0.519
REMARK UNBOUND:                -1.109
REMARK  Name = 
REMARK  8 active torsions:
REMARK  status: ('A' for Active; 'I' for Inactive)
REMARK    1  A    between atoms: C_2  and  C_4
REMARK    2  A    between atoms: C_7  and  N_8
REMARK    3  A    between atoms: N_8  and  C_9
REMARK    4  A    between atoms: C_9  and  C_10
REMARK    5  A    between atoms: C_10  and  C_11
REMARK    6  A    between atoms: C_15  and  C_16
REMARK    7  A    between atoms: C_19  and  C_20
REMARK    8  A    between atoms: C_26  and  O_27
REMARK                            x       y       z     vdW  Elec       q    Type
REMARK                         _______ _______ _______ _____ _____    ______ ____
ROOT
ATOM      1  C   UNL     1      46.062   5.505  12.715  0.00  0.00    +0.000 A 
ATOM      2  N   UNL     1      45.941   6.729  12.154  0.00  0.00    +0.000 NA
ATOM      3  C   UNL     1      46.680   7.713  12.683  0.00  0.00    +0.000 A 
ATOM      4  N   UNL     1      47.546   7.590  13.695  0.00  0.00    +0.000 NA
ATOM      5  C   UNL     1      47.672   6.357  14.243  0.00  0.00    +0.000 A 
ATOM      6  C   UNL     1      46.898   5.282  13.800  0.00  0.00    +0.000 A 
ENDROOT
BRANCH   5   7
ATOM      7  C   UNL     1      48.696   6.263  15.315  0.00  0.00    +0.000 A 
ATOM      8  C   UNL     1      48.468   5.496  16.473  0.00  0.00    +0.000 A 
ATOM      9  C   UNL     1      49.437   5.376  17.477  0.00  0.00    +0.000 A 
ATOM     10  C   UNL     1      50.673   6.020  17.351  0.00  0.00    +0.000 A 
ATOM     11  C   UNL     1      50.904   6.811  16.220  0.00  0.00    +0.000 A 
ATOM     12  C   UNL     1      49.921   6.951  15.237  0.00  0.00    +0.000 A 
BRANCH  10  13
ATOM     13  C   UNL     1      51.751   5.887  18.397  0.00  0.00    +0.000 C 
ATOM     14  F   UNL     1      51.832   6.952  19.240  0.00  0.00    +0.000 F 
ATOM     15  F   UNL     1      51.565   4.794  19.191  0.00  0.00    +0.000 F 
ATOM     16  F   UNL     1      52.990   5.743  17.853  0.00  0.00    +0.000 F 
ENDBRANCH  10  13
ENDBRANCH   5   7
BRANCH   6  17
ATOM     17  O   UNL     1      46.893   4.045  14.379  0.00  0.00    +0.000 OA
ATOM     18  H   UNL     1      46.840   3.375  13.674  0.00  0.00    +0.000 HD
ENDBRANCH   6  17
BRANCH   1  19
ATOM     19  C   UNL     1      45.258   4.365  12.123  0.00  0.00    +0.000 C 
BRANCH  19  20
ATOM     20  C   UNL     1      44.006   4.857  11.396  0.00  0.00    +0.000 C 
BRANCH  20  21
ATOM     21  N   UNL     1      43.585   3.927  10.338  0.00  0.00    +0.000 N 
ATOM     22  H   UNL     1      42.760   4.252   9.837  0.00  0.00    +0.000 HD
BRANCH  21  26
ATOM     23  C   UNL     1      46.436   2.687   7.555  0.00  0.00    +0.000 A 
ATOM     24  C   UNL     1      45.890   1.725   8.388  0.00  0.00    +0.000 A 
ATOM     25  C   UNL     1      44.949   2.131   9.335  0.00  0.00    +0.000 A 
ATOM     26  C   UNL     1      44.586   3.476   9.459  0.00  0.00    +0.000 A 
ATOM     27  C   UNL     1      45.176   4.351   8.535  0.00  0.00    +0.000 A 
ATOM     28  N   UNL     1      46.104   4.007   7.602  0.00  0.00    +0.000 NA
BRANCH  23  30
ATOM     29  N   UNL     1      47.357   2.915   5.323  0.00  0.00    +0.000 N 
ATOM     30  C   UNL     1      47.442   2.271   6.527  0.00  0.00    +0.000 C 
ATOM     31  O   UNL     1      48.292   1.416   6.739  0.00  0.00    +0.000 OA
ATOM     32  H   UNL     1      47.997   2.667   4.584  0.00  0.00    +0.000 HD
ATOM     33  H   UNL     1      46.639   3.615   5.179  0.00  0.00    +0.000 HD
ENDBRANCH  23  30
ENDBRANCH  21  26
ENDBRANCH  20  21
ENDBRANCH  19  20
ENDBRANCH   1  19
TORSDOF 8
ENDMDL
MODEL 7
REMARK VINA RESULT:    -6.677      5.124      8.386
REMARK INTER + INTRA:         -10.714
REMARK INTER:                  -9.369
REMARK INTRA:                  -1.345
REMARK UNBOUND:                -1.109
REMARK  Name = 
REMARK  8 active torsions:
REMARK  status: ('A' for Active; 'I' for Inactive)
REMARK    1  A    between atoms: C_2  and  C_4
REMARK    2  A    between atoms: C_7  and  N_8
REMARK    3  A    between atoms: N_8  and  C_9
REMARK    4  A    between atoms: C_9  and  C_10
REMARK    5  A    between atoms: C_10  and  C_11
REMARK    6  A    between atoms: C_15  and  C_16
REMARK    7  A    between atoms: C_19  and  C_20
REMARK    8  A    between atoms: C_26  and  O_27
REMARK                            x       y       z     vdW  Elec       q    Type
REMARK                         _______ _______ _______ _____ _____    ______ ____
ROOT
ATOM      1  C   UNL     1      49.454   8.750  13.226  0.00  0.00    +0.000 A 
ATOM      2  N   UNL     1      48.898   9.964  13.014  0.00  0.00    +0.000 NA
ATOM      3  C   UNL     1      47.652   9.981  12.522  0.00  0.00    +0.000 A 
ATOM      4  N   UNL     1      46.900   8.909  12.248  0.00  0.00    +0.000 NA
ATOM      5  C   UNL     1      47.459   7.696  12.476  0.00  0.00    +0.000 A 
ATOM      6  C   UNL     1      48.775   7.577  12.929  0.00  0.00    +0.000 A 
ENDROOT
BRANCH   5   7
ATOM      7  C   UNL     1      46.556   6.545  12.221  0.00  0.00    +0.000 A 
ATOM      8  C   UNL     1      46.124   5.714  13.272  0.00  0.00    +0.000 A 
ATOM      9  C   UNL     1      45.249   4.643  13.048  0.00  0.00    +0.000 A 
ATOM     10  C   UNL     1      44.774   4.371  11.760  0.00  0.00    +0.000 A 
ATOM     11  C   UNL     1      45.219   5.169  10.701  0.00  0.00    +0.000 A 
ATOM     12  C   UNL     1      46.116   6.217  10.926  0.00  0.00    +0.000 A 
BRANCH  10  13
ATOM     13  C   UNL     1      43.807   3.246  11.489  0.00  0.00    +0.000 C 
ATOM     14  F   UNL     1      43.683   2.369  12.521  0.00  0.00    +0.000 F 
ATOM     15  F   UNL     1      42.548   3.701  11.231  0.00  0.00    +0.000 F 
ATOM     16  F   UNL     1      44.164   2.504  10.405  0.00  0.00    +0.000 F 
ENDBRANCH  10  13
ENDBRANCH   5   7
BRANCH   6  17
ATOM     17  O   UNL     1      49.437   6.391  13.072  0.00  0.00    +0.000 OA
ATOM     18  H   UNL     1      48.786   5.668  13.039  0.00  0.00    +0.000 HD
ENDBRANCH   6  17
BRANCH   1  19
ATOM     19  C   UNL     1      50.854   8.697  13.805  0.00  0.00    +0.000 C 
BRANCH  19  20
ATOM     20  C   UNL     1      50.848   8.722  15.334  0.00  0.00    +0.000 C 
BRANCH  20  21
ATOM     21  N   UNL     1      51.397   7.483  15.905  0.00  0.00    +0.000 N 
ATOM     22  H   UNL     1      52.173   7.656  16.541  0.00  0.00    +0.000 HD
BRANCH  21  26
ATOM     23  C   UNL     1      48.743   4.620  17.378  0.00  0.00    +0.000 A 
ATOM     24  C   UNL     1      48.207   5.784  16.855  0.00  0.00    +0.000 A 
ATOM     25  C   UNL     1      49.085   6.757  16.377  0.00  0.00    +0.000 A 
ATOM     26  C   UNL     1      50.471   6.574  16.446  0.00  0.00    +0.000 A 
ATOM     27  C   UNL     1      50.893   5.339  16.959  0.00  0.00    +0.000 A 
ATOM     28  N   UNL     1      50.079   4.365  17.447  0.00  0.00    +0.000 NA
BRANCH  23  30
ATOM     29  N   UNL     1      48.235   2.903  19.014  0.00  0.00    +0.000 N 
ATOM     30  C   UNL     1      47.817   3.560  17.890  0.00  0.00    +0.000 C 
ATOM     31  O   UNL     1      46.751   3.294  17.349  0.00  0.00    +0.000 OA
ATOM     32  H   UNL     1      47.663   2.167  19.399  0.00  0.00    +0.000 HD
ATOM     33  H   UNL     1      49.125   3.146  19.435  0.00  0.00    +0.000 HD
ENDBRANCH  23  30
ENDBRANCH  21  26
ENDBRANCH  20  21
ENDBRANCH  19  20
ENDBRANCH   1  19
TORSDOF 8
ENDMDL
MODEL 8
REMARK VINA RESULT:    -6.270      4.943      8.155
REMARK INTER + INTRA:         -10.128
REMARK INTER:                 -10.012
REMARK INTRA:                  -0.116
REMARK UNBOUND:                -1.109
REMARK  Name = 
REMARK  8 active torsions:
REMARK  status: ('A' for Active; 'I' for Inactive)
REMARK    1  A    between atoms: C_2  and  C_4
REMARK    2  A    between atoms: C_7  and  N_8
REMARK    3  A    between atoms: N_8  and  C_9
REMARK    4  A    between atoms: C_9  and  C_10
REMARK    5  A    between atoms: C_10  and  C_11
REMARK    6  A    between atoms: C_15  and  C_16
REMARK    7  A    between atoms: C_19  and  C_20
REMARK    8  A    between atoms: C_26  and  O_27
REMARK                            x       y       z     vdW  Elec       q    Type
REMARK                         _______ _______ _______ _____ _____    ______ ____
ROOT
ATOM      1  C   UNL     1      44.662   4.585  13.315  0.00  0.00    +0.000 A 
ATOM      2  N   UNL     1      43.454   5.185  13.216  0.00  0.00    +0.000 NA
ATOM      3  C   UNL     1      42.945   5.318  11.985  0.00  0.00    +0.000 A 
ATOM      4  N   UNL     1      43.507   4.888  10.849  0.00  0.00    +0.000 NA
ATOM      5  C   UNL     1      44.711   4.276  10.958  0.00  0.00    +0.000 A 
ATOM      6  C   UNL     1      45.351   4.147  12.193  0.00  0.00    +0.000 A 
ENDROOT
BRANCH   5   7
ATOM      7  C   UNL     1      45.255   3.758   9.677  0.00  0.00    +0.000 A 
ATOM      8  C   UNL     1      45.745   4.633   8.689  0.00  0.00    +0.000 A 
ATOM      9  C   UNL     1      46.287   4.156   7.488  0.00  0.00    +0.000 A 
ATOM     10  C   UNL     1      46.360   2.780   7.240  0.00  0.00    +0.000 A 
ATOM     11  C   UNL     1      45.848   1.899   8.200  0.00  0.00    +0.000 A 
ATOM     12  C   UNL     1      45.281   2.383   9.381  0.00  0.00    +0.000 A 
BRANCH  10  13
ATOM     13  C   UNL     1      46.965   2.231   5.974  0.00  0.00    +0.000 C 
ATOM     14  F   UNL     1      46.416   2.739   4.837  0.00  0.00    +0.000 F 
ATOM     15  F   UNL     1      48.302   2.485   5.890  0.00  0.00    +0.000 F 
ATOM     16  F   UNL     1      46.839   0.878   5.880  0.00  0.00    +0.000 F 
ENDBRANCH  10  13
ENDBRANCH   5   7
BRANCH   6  17
ATOM     17  O   UNL     1      46.609   3.643  12.360  0.00  0.00    +0.000 OA
ATOM     18  H   UNL     1      47.059   4.161  13.051  0.00  0.00    +0.000 HD
ENDBRANCH   6  17
BRANCH   1  19
ATOM     19  C   UNL     1      45.255   4.397  14.697  0.00  0.00    +0.000 C 
BRANCH  19  20
ATOM     20  C   UNL     1      46.706   4.875  14.773  0.00  0.00    +0.000 C 
BRANCH  20  21
ATOM     21  N   UNL     1      47.146   5.074  16.162  0.00  0.00    +0.000 N 
ATOM     22  H   UNL     1      46.370   5.078  16.821  0.00  0.00    +0.000 HD
BRANCH  21  26
ATOM     23  C   UNL     1      50.430   2.781  17.333  0.00  0.00    +0.000 A 
ATOM     24  C   UNL     1      49.269   2.111  16.989  0.00  0.00    +0.000 A 
ATOM     25  C   UNL     1      48.158   2.868  16.614  0.00  0.00    +0.000 A 
ATOM     26  C   UNL     1      48.207   4.266  16.609  0.00  0.00    +0.000 A 
ATOM     27  C   UNL     1      49.448   4.830  16.938  0.00  0.00    +0.000 A 
ATOM     28  N   UNL     1      50.555   4.138  17.320  0.00  0.00    +0.000 NA
BRANCH  23  30
ATOM     29  N   UNL     1      51.441   0.640  17.854  0.00  0.00    +0.000 N 
ATOM     30  C   UNL     1      51.636   1.988  17.731  0.00  0.00    +0.000 C 
ATOM     31  O   UNL     1      52.730   2.500  17.932  0.00  0.00    +0.000 OA
ATOM     32  H   UNL     1      52.211   0.052  18.136  0.00  0.00    +0.000 HD
ATOM     33  H   UNL     1      50.522   0.248  17.684  0.00  0.00    +0.000 HD
ENDBRANCH  23  30
ENDBRANCH  21  26
ENDBRANCH  20  21
ENDBRANCH  19  20
ENDBRANCH   1  19
TORSDOF 8
ENDMDL
MODEL 9
REMARK VINA RESULT:    -6.268      5.147      8.217
REMARK INTER + INTRA:         -10.126
REMARK INTER:                  -9.525
REMARK INTRA:                  -0.601
REMARK UNBOUND:                -1.109
REMARK  Name = 
REMARK  8 active torsions:
REMARK  status: ('A' for Active; 'I' for Inactive)
REMARK    1  A    between atoms: C_2  and  C_4
REMARK    2  A    between atoms: C_7  and  N_8
REMARK    3  A    between atoms: N_8  and  C_9
REMARK    4  A    between atoms: C_9  and  C_10
REMARK    5  A    between atoms: C_10  and  C_11
REMARK    6  A    between atoms: C_15  and  C_16
REMARK    7  A    between atoms: C_19  and  C_20
REMARK    8  A    between atoms: C_26  and  O_27
REMARK                            x       y       z     vdW  Elec       q    Type
REMARK                         _______ _______ _______ _____ _____    ______ ____
ROOT
ATOM      1  C   UNL     1      48.602   8.401  14.598  0.00  0.00    +0.000 A 
ATOM      2  N   UNL     1      48.261   9.640  14.181  0.00  0.00    +0.000 NA
ATOM      3  C   UNL     1      47.408   9.718  13.151  0.00  0.00    +0.000 A 
ATOM      4  N   UNL     1      46.843   8.684  12.517  0.00  0.00    +0.000 NA
ATOM      5  C   UNL     1      47.180   7.445  12.950  0.00  0.00    +0.000 A 
ATOM      6  C   UNL     1      48.109   7.262  13.976  0.00  0.00    +0.000 A 
ENDROOT
BRANCH   5   7
ATOM      7  C   UNL     1      46.472   6.339  12.257  0.00  0.00    +0.000 A 
ATOM      8  C   UNL     1      46.247   6.377  10.868  0.00  0.00    +0.000 A 
ATOM      9  C   UNL     1      45.605   5.327  10.199  0.00  0.00    +0.000 A 
ATOM     10  C   UNL     1      45.171   4.197  10.903  0.00  0.00    +0.000 A 
ATOM     11  C   UNL     1      45.359   4.159  12.289  0.00  0.00    +0.000 A 
ATOM     12  C   UNL     1      45.972   5.224  12.954  0.00  0.00    +0.000 A 
BRANCH  10  13
ATOM     13  C   UNL     1      44.505   3.035  10.210  0.00  0.00    +0.000 C 
ATOM     14  F   UNL     1      43.837   3.381   9.076  0.00  0.00    +0.000 F 
ATOM     15  F   UNL     1      45.401   2.076   9.838  0.00  0.00    +0.000 F 
ATOM     16  F   UNL     1      43.597   2.406  11.005  0.00  0.00    +0.000 F 
ENDBRANCH  10  13
ENDBRANCH   5   7
BRANCH   6  17
ATOM     17  O   UNL     1      48.578   6.046  14.386  0.00  0.00    +0.000 OA
ATOM     18  H   UNL     1      48.127   5.353  13.871  0.00  0.00    +0.000 HD
ENDBRANCH   6  17
BRANCH   1  19
ATOM     19  C   UNL     1      49.547   8.278  15.778  0.00  0.00    +0.000 C 
BRANCH  19  20
ATOM     20  C   UNL     1      48.818   8.405  17.117  0.00  0.00    +0.000 C 
BRANCH  20  21
ATOM     21  N   UNL     1      49.434   7.568  18.157  0.00  0.00    +0.000 N 
ATOM     22  H   UNL     1      48.950   7.636  19.050  0.00  0.00    +0.000 HD
BRANCH  21  26
ATOM     23  C   UNL     1      50.059   3.543  17.250  0.00  0.00    +0.000 A 
ATOM     24  C   UNL     1      51.103   4.240  17.833  0.00  0.00    +0.000 A 
ATOM     25  C   UNL     1      50.912   5.591  18.124  0.00  0.00    +0.000 A 
ATOM     26  C   UNL     1      49.708   6.233  17.812  0.00  0.00    +0.000 A 
ATOM     27  C   UNL     1      48.712   5.414  17.260  0.00  0.00    +0.000 A 
ATOM     28  N   UNL     1      48.852   4.098  16.949  0.00  0.00    +0.000 NA
BRANCH  23  30
ATOM     29  N   UNL     1      51.106   1.414  17.752  0.00  0.00    +0.000 N 
ATOM     30  C   UNL     1      50.241   2.090  16.937  0.00  0.00    +0.000 C 
ATOM     31  O   UNL     1      49.656   1.532  16.018  0.00  0.00    +0.000 OA
ATOM     32  H   UNL     1      51.283   0.436  17.583  0.00  0.00    +0.000 HD
ATOM     33  H   UNL     1      51.577   1.907  18.502  0.00  0.00    +0.000 HD
ENDBRANCH  23  30
ENDBRANCH  21  26
ENDBRANCH  20  21
ENDBRANCH  19  20
ENDBRANCH   1  19
TORSDOF 8
ENDMDL
