MODEL 1
REMARK VINA RESULT:    -6.686      0.000      0.000
REMARK INTER + INTRA:          -8.810
REMARK INTER:                  -8.250
REMARK INTRA:                  -0.560
REMARK UNBOUND:                -0.560
REMARK  Name = 
REMARK  6 active torsions:
REMARK  status: ('A' for Active; 'I' for Inactive)
REMARK    1  A    between atoms: C_1  and  C_2
REMARK    2  A    between atoms: C_4  and  C_5
REMARK    3  A    between atoms: C_10  and  N_11
REMARK    4  A    between atoms: N_11  and  C_12
REMARK    5  A    between atoms: C_12  and  C_13
REMARK    6  A    between atoms: C_12  and  C_14
REMARK                            x       y       z     vdW  Elec       q    Type
REMARK                         _______ _______ _______ _____ _____    ______ ____
ROOT
ATOM      1  C   UNL     1      46.757   3.659  13.540  0.00  0.00    +0.000 C 
ATOM      2  C   UNL     1      46.072   4.753  12.771  0.00  0.00    +0.000 A 
ATOM      3  C   UNL     1      46.185   6.084  13.198  0.00  0.00    +0.000 A 
ATOM      4  C   UNL     1      45.567   7.108  12.481  0.00  0.00    +0.000 A 
ATOM      5  C   UNL     1      44.870   6.739  11.343  0.00  0.00    +0.000 A 
ATOM      6  N   UNL     1      44.765   5.462  10.886  0.00  0.00    +0.000 NA
ATOM      7  C   UNL     1      45.355   4.479  11.598  0.00  0.00    +0.000 A 
ENDROOT
BRANCH   4   8
ATOM      8  C   UNL     1      45.696   8.503  12.964  0.00  0.00    +0.000 C 
ATOM      9  N   UNL     1      46.581   8.784  13.970  0.00  0.00    +0.000 N 
ATOM     10  O   UNL     1      45.024   9.409  12.479  0.00  0.00    +0.000 OA
ATOM     11  H   UNL     1      47.182   8.122  14.430  0.00  0.00    +0.000 HD
ATOM     12  H   UNL     1      46.630   9.750  14.266  0.00  0.00    +0.000 HD
ENDBRANCH   4   8
BRANCH   7  13
ATOM     13  N   UNL     1      45.198   3.150  11.202  0.00  0.00    +0.000 N 
ATOM     14  H   UNL     1      44.746   2.632  11.949  0.00  0.00    +0.000 HD
BRANCH  13  15
ATOM     15  C   UNL     1      44.654   2.877   9.872  0.00  0.00    +0.000 C 
ATOM     16  C   UNL     1      43.818   1.593   9.855  0.00  0.00    +0.000 C 
BRANCH  15  17
ATOM     17  C   UNL     1      45.833   2.813   8.849  0.00  0.00    +0.000 C 
ATOM     18  C   UNL     1      45.698   3.811   7.681  0.00  0.00    +0.000 C 
ATOM     19  C   UNL     1      46.859   3.702   6.693  0.00  0.00    +0.000 C 
ATOM     20  C   UNL     1      47.015   2.283   6.164  0.00  0.00    +0.000 C 
ATOM     21  C   UNL     1      47.176   1.286   7.306  0.00  0.00    +0.000 C 
ATOM     22  C   UNL     1      46.023   1.380   8.304  0.00  0.00    +0.000 C 
ENDBRANCH  15  17
ENDBRANCH  13  15
ENDBRANCH   7  13
TORSDOF 4
ENDMDL
MODEL 2
REMARK VINA RESULT:    -6.515      2.032      2.793
REMARK INTER + INTRA:          -8.599
REMARK INTER:                  -8.590
REMARK INTRA:                  -0.009
REMARK UNBOUND:                -0.560
REMARK  Name = 
REMARK  6 active torsions:
REMARK  status: ('A' for Active; 'I' for Inactive)
REMARK    1  A    between atoms: C_1  and  C_2
REMARK    2  A    between atoms: C_4  and  C_5
REMARK    3  A    between atoms: C_10  and  N_11
REMARK    4  A    between atoms: N_11  and  C_12
REMARK    5  A    between atoms: C_12  and  C_13
REMARK    6  A    between atoms: C_12  and  C_14
REMARK                            x       y       z     vdW  Elec       q    Type
REMARK                         _______ _______ _______ _____ _____    ______ ____
ROOT
ATOM      1  C   UNL     1      44.767   7.562  11.374  0.00  0.00    +0.000 C 
ATOM      2  C   UNL     1      45.329   6.502  12.279  0.00  0.00    +0.000 A 
ATOM      3  C   UNL     1      46.475   6.771  13.042  0.00  0.00    +0.000 A 
ATOM      4  C   UNL     1      46.994   5.800  13.898  0.00  0.00    +0.000 A 
ATOM      5  C   UNL     1      46.316   4.595  13.957  0.00  0.00    +0.000 A 
ATOM      6  N   UNL     1      45.187   4.312  13.252  0.00  0.00    +0.000 NA
ATOM      7  C   UNL     1      44.704   5.255  12.417  0.00  0.00    +0.000 A 
ENDROOT
BRANCH   4   8
ATOM      8  C   UNL     1      48.212   6.112  14.683  0.00  0.00    +0.000 C 
ATOM      9  N   UNL     1      48.220   5.871  16.030  0.00  0.00    +0.000 N 
ATOM     10  O   UNL     1      49.212   6.581  14.146  0.00  0.00    +0.000 OA
ATOM     11  H   UNL     1      47.462   5.484  16.566  0.00  0.00    +0.000 HD
ATOM     12  H   UNL     1      49.073   6.102  16.522  0.00  0.00    +0.000 HD
ENDBRANCH   4   8
BRANCH   7  13
ATOM     13  N   UNL     1      43.595   4.968  11.618  0.00  0.00    +0.000 N 
ATOM     14  H   UNL     1      43.428   5.748  10.990  0.00  0.00    +0.000 HD
BRANCH  13  15
ATOM     15  C   UNL     1      43.519   3.657  10.975  0.00  0.00    +0.000 C 
ATOM     16  C   UNL     1      43.427   2.526  12.004  0.00  0.00    +0.000 C 
BRANCH  15  17
ATOM     17  C   UNL     1      44.755   3.485  10.034  0.00  0.00    +0.000 C 
ATOM     18  C   UNL     1      44.900   4.608   8.986  0.00  0.00    +0.000 C 
ATOM     19  C   UNL     1      46.107   4.391   8.074  0.00  0.00    +0.000 C 
ATOM     20  C   UNL     1      46.060   3.030   7.393  0.00  0.00    +0.000 C 
ATOM     21  C   UNL     1      45.943   1.907   8.417  0.00  0.00    +0.000 C 
ATOM     22  C   UNL     1      44.741   2.106   9.338  0.00  0.00    +0.000 C 
ENDBRANCH  15  17
ENDBRANCH  13  15
ENDBRANCH   7  13
TORSDOF 4
ENDMDL
MODEL 3
REMARK VINA RESULT:    -6.463      2.030      2.994
REMARK INTER + INTRA:          -8.534
REMARK INTER:                  -8.965
REMARK INTRA:                   0.431
REMARK UNBOUND:                -0.560
REMARK  Name = 
REMARK  6 active torsions:
REMARK  status: ('A' for Active; 'I' for Inactive)
REMARK    1  A    between atoms: C_1  and  C_2
REMARK    2  A    between atoms: C_4  and  C_5
REMARK    3  A    between atoms: C_10  and  N_11
REMARK    4  A    between atoms: N_11  and  C_12
REMARK    5  A    between atoms: C_12  and  C_13
REMARK    6  A    between atoms: C_12  and  C_14
REMARK                            x       y       z     vdW  Elec       q    Type
REMARK                         _______ _______ _______ _____ _____    ______ ____
ROOT
ATOM      1  C   UNL     1      45.300   7.419  11.397  0.00  0.00    +0.000 C 
ATOM      2  C   UNL     1      45.683   6.084  11.971  0.00  0.00    +0.000 A 
ATOM      3  C   UNL     1      46.197   6.004  13.273  0.00  0.00    +0.000 A 
ATOM      4  C   UNL     1      46.539   4.768  13.821  0.00  0.00    +0.000 A 
ATOM      5  C   UNL     1      46.330   3.655  13.025  0.00  0.00    +0.000 A 
ATOM      6  N   UNL     1      45.809   3.695  11.769  0.00  0.00    +0.000 NA
ATOM      7  C   UNL     1      45.495   4.899  11.246  0.00  0.00    +0.000 A 
ENDROOT
BRANCH   4   8
ATOM      8  C   UNL     1      47.089   4.719  15.196  0.00  0.00    +0.000 C 
ATOM      9  N   UNL     1      47.914   5.723  15.624  0.00  0.00    +0.000 N 
ATOM     10  O   UNL     1      46.817   3.794  15.956  0.00  0.00    +0.000 OA
ATOM     11  H   UNL     1      48.194   6.527  15.089  0.00  0.00    +0.000 HD
ATOM     12  H   UNL     1      48.265   5.643  16.569  0.00  0.00    +0.000 HD
ENDBRANCH   4   8
BRANCH   7  13
ATOM     13  N   UNL     1      45.035   4.983   9.931  0.00  0.00    +0.000 N 
ATOM     14  H   UNL     1      45.813   5.211   9.321  0.00  0.00    +0.000 HD
BRANCH  13  15
ATOM     15  C   UNL     1      44.173   3.915   9.424  0.00  0.00    +0.000 C 
ATOM     16  C   UNL     1      43.664   3.013  10.552  0.00  0.00    +0.000 C 
BRANCH  15  17
ATOM     17  C   UNL     1      44.959   3.103   8.344  0.00  0.00    +0.000 C 
ATOM     18  C   UNL     1      45.576   1.793   8.877  0.00  0.00    +0.000 C 
ATOM     19  C   UNL     1      46.353   1.041   7.797  0.00  0.00    +0.000 C 
ATOM     20  C   UNL     1      47.427   1.916   7.166  0.00  0.00    +0.000 C 
ATOM     21  C   UNL     1      46.830   3.204   6.610  0.00  0.00    +0.000 C 
ATOM     22  C   UNL     1      46.049   3.970   7.676  0.00  0.00    +0.000 C 
ENDBRANCH  15  17
ENDBRANCH  13  15
ENDBRANCH   7  13
TORSDOF 4
ENDMDL
MODEL 4
REMARK VINA RESULT:    -6.391      2.299      3.042
REMARK INTER + INTRA:          -8.446
REMARK INTER:                  -7.844
REMARK INTRA:                  -0.601
REMARK UNBOUND:                -0.560
REMARK  Name = 
REMARK  6 active torsions:
REMARK  status: ('A' for Active; 'I' for Inactive)
REMARK    1  A    between atoms: C_1  and  C_2
REMARK    2  A    between atoms: C_4  and  C_5
REMARK    3  A    between atoms: C_10  and  N_11
REMARK    4  A    between atoms: N_11  and  C_12
REMARK    5  A    between atoms: C_12  and  C_13
REMARK    6  A    between atoms: C_12  and  C_14
REMARK                            x       y       z     vdW  Elec       q    Type
REMARK                         _______ _______ _______ _____ _____    ______ ____
ROOT
ATOM      1  C   UNL     1      46.724   4.403  14.414  0.00  0.00    +0.000 C 
ATOM      2  C   UNL     1      47.099   5.522  13.485  0.00  0.00    +0.000 A 
ATOM      3  C   UNL     1      48.199   6.339  13.782  0.00  0.00    +0.000 A 
ATOM      4  C   UNL     1      48.566   7.369  12.917  0.00  0.00    +0.000 A 
ATOM      5  C   UNL     1      47.807   7.519  11.770  0.00  0.00    +0.000 A 
ATOM      6  N   UNL     1      46.751   6.727  11.438  0.00  0.00    +0.000 NA
ATOM      7  C   UNL     1      46.398   5.744  12.291  0.00  0.00    +0.000 A 
ENDROOT
BRANCH   4   8
ATOM      8  C   UNL     1      49.728   8.221  13.265  0.00  0.00    +0.000 C 
ATOM      9  N   UNL     1      50.755   7.686  13.994  0.00  0.00    +0.000 N 
ATOM     10  O   UNL     1      49.784   9.395  12.912  0.00  0.00    +0.000 OA
ATOM     11  H   UNL     1      50.814   6.739  14.327  0.00  0.00    +0.000 HD
ATOM     12  H   UNL     1      51.524   8.308  14.209  0.00  0.00    +0.000 HD
ENDBRANCH   4   8
BRANCH   7  13
ATOM     13  N   UNL     1      45.271   4.965  12.021  0.00  0.00    +0.000 N 
ATOM     14  H   UNL     1      44.789   4.765  12.891  0.00  0.00    +0.000 HD
BRANCH  13  15
ATOM     15  C   UNL     1      44.386   5.374  10.930  0.00  0.00    +0.000 C 
ATOM     16  C   UNL     1      42.944   5.566  11.412  0.00  0.00    +0.000 C 
BRANCH  15  17
ATOM     17  C   UNL     1      44.477   4.315   9.784  0.00  0.00    +0.000 C 
ATOM     18  C   UNL     1      44.645   2.867  10.287  0.00  0.00    +0.000 C 
ATOM     19  C   UNL     1      44.751   1.867   9.136  0.00  0.00    +0.000 C 
ATOM     20  C   UNL     1      45.877   2.230   8.178  0.00  0.00    +0.000 C 
ATOM     21  C   UNL     1      45.711   3.651   7.651  0.00  0.00    +0.000 C 
ATOM     22  C   UNL     1      45.604   4.666   8.787  0.00  0.00    +0.000 C 
ENDBRANCH  15  17
ENDBRANCH  13  15
ENDBRANCH   7  13
TORSDOF 4
ENDMDL
MODEL 5
REMARK VINA RESULT:    -5.994      4.735      6.904
REMARK INTER + INTRA:          -7.955
REMARK INTER:                  -7.373
REMARK INTRA:                  -0.583
REMARK UNBOUND:                -0.560
REMARK  Name = 
REMARK  6 active torsions:
REMARK  status: ('A' for Active; 'I' for Inactive)
REMARK    1  A    between atoms: C_1  and  C_2
REMARK    2  A    between atoms: C_4  and  C_5
REMARK    3  A    between atoms: C_10  and  N_11
REMARK    4  A    between atoms: N_11  and  C_12
REMARK    5  A    between atoms: C_12  and  C_13
REMARK    6  A    between atoms: C_12  and  C_14
REMARK                            x       y       z     vdW  Elec       q    Type
REMARK                         _______ _______ _______ _____ _____    ______ ____
ROOT
ATOM      1  C   UNL     1      48.570   6.335  16.827  0.00  0.00    +0.000 C 
ATOM      2  C   UNL     1      48.754   4.856  16.642  0.00  0.00    +0.000 A 
ATOM      3  C   UNL     1      49.845   4.207  17.239  0.00  0.00    +0.000 A 
ATOM      4  C   UNL     1      50.014   2.831  17.088  0.00  0.00    +0.000 A 
ATOM      5  C   UNL     1      49.055   2.163  16.347  0.00  0.00    +0.000 A 
ATOM      6  N   UNL     1      47.971   2.757  15.779  0.00  0.00    +0.000 NA
ATOM      7  C   UNL     1      47.827   4.091  15.920  0.00  0.00    +0.000 A 
ENDROOT
BRANCH   4   8
ATOM      8  C   UNL     1      51.183   2.177  17.722  0.00  0.00    +0.000 C 
ATOM      9  N   UNL     1      51.272   0.812  17.714  0.00  0.00    +0.000 N 
ATOM     10  O   UNL     1      52.071   2.838  18.253  0.00  0.00    +0.000 OA
ATOM     11  H   UNL     1      50.608   0.178  17.302  0.00  0.00    +0.000 HD
ATOM     12  H   UNL     1      52.087   0.412  18.161  0.00  0.00    +0.000 HD
ENDBRANCH   4   8
BRANCH   7  13
ATOM     13  N   UNL     1      46.771   4.744  15.282  0.00  0.00    +0.000 N 
ATOM     14  H   UNL     1      46.664   5.671  15.682  0.00  0.00    +0.000 HD
BRANCH  13  15
ATOM     15  C   UNL     1      46.712   4.714  13.821  0.00  0.00    +0.000 C 
ATOM     16  C   UNL     1      47.222   6.020  13.207  0.00  0.00    +0.000 C 
BRANCH  15  17
ATOM     17  C   UNL     1      45.244   4.402  13.383  0.00  0.00    +0.000 C 
ATOM     18  C   UNL     1      45.139   3.328  12.280  0.00  0.00    +0.000 C 
ATOM     19  C   UNL     1      43.691   3.069  11.866  0.00  0.00    +0.000 C 
ATOM     20  C   UNL     1      42.994   4.350  11.428  0.00  0.00    +0.000 C 
ATOM     21  C   UNL     1      43.066   5.414  12.517  0.00  0.00    +0.000 C 
ATOM     22  C   UNL     1      44.507   5.687  12.945  0.00  0.00    +0.000 C 
ENDBRANCH  15  17
ENDBRANCH  13  15
ENDBRANCH   7  13
TORSDOF 4
ENDMDL
MODEL 6
REMARK VINA RESULT:    -5.824      3.257      6.601
REMARK INTER + INTRA:          -7.746
REMARK INTER:                  -6.911
REMARK INTRA:                  -0.836
REMARK UNBOUND:                -0.560
REMARK  Name = 
REMARK  6 active torsions:
REMARK  status: ('A' for Active; 'I' for Inactive)
REMARK    1  A    between atoms: C_1  and  C_2
REMARK    2  A    between atoms: C_4  and  C_5
REMARK    3  A    between atoms: C_10  and  N_11
REMARK    4  A    between atoms: N_11  and  C_12
REMARK    5  A    between atoms: C_12  and  C_13
REMARK    6  A    between atoms: C_12  and  C_14
REMARK                            x       y       z     vdW  Elec       q    Type
REMARK                         _______ _______ _______ _____ _____    ______ ____
ROOT
ATOM      1  C   UNL     1      45.256   7.674  11.853  0.00  0.00    +0.000 C 
ATOM      2  C   UNL     1      45.426   6.223  12.204  0.00  0.00    +0.000 A 
ATOM      3  C   UNL     1      44.732   5.243  11.479  0.00  0.00    +0.000 A 
ATOM      4  C   UNL     1      44.895   3.893  11.786  0.00  0.00    +0.000 A 
ATOM      5  C   UNL     1      45.775   3.589  12.811  0.00  0.00    +0.000 A 
ATOM      6  N   UNL     1      46.484   4.512  13.515  0.00  0.00    +0.000 NA
ATOM      7  C   UNL     1      46.305   5.816  13.217  0.00  0.00    +0.000 A 
ENDROOT
BRANCH   4   8
ATOM      8  C   UNL     1      44.140   2.882  11.008  0.00  0.00    +0.000 C 
ATOM      9  N   UNL     1      44.722   2.311   9.909  0.00  0.00    +0.000 N 
ATOM     10  O   UNL     1      43.004   2.550  11.332  0.00  0.00    +0.000 OA
ATOM     11  H   UNL     1      45.646   2.505   9.562  0.00  0.00    +0.000 HD
ATOM     12  H   UNL     1      44.166   1.630   9.410  0.00  0.00    +0.000 HD
ENDBRANCH   4   8
BRANCH   7  13
ATOM     13  N   UNL     1      46.954   6.793  13.974  0.00  0.00    +0.000 N 
ATOM     14  H   UNL     1      46.440   6.943  14.835  0.00  0.00    +0.000 HD
BRANCH  13  15
ATOM     15  C   UNL     1      48.402   6.688  14.155  0.00  0.00    +0.000 C 
ATOM     16  C   UNL     1      48.781   6.577  15.635  0.00  0.00    +0.000 C 
BRANCH  15  17
ATOM     17  C   UNL     1      49.086   7.917  13.473  0.00  0.00    +0.000 C 
ATOM     18  C   UNL     1      48.228   9.200  13.500  0.00  0.00    +0.000 C 
ATOM     19  C   UNL     1      48.922  10.371  12.806  0.00  0.00    +0.000 C 
ATOM     20  C   UNL     1      49.316  10.024  11.376  0.00  0.00    +0.000 C 
ATOM     21  C   UNL     1      50.186   8.772  11.335  0.00  0.00    +0.000 C 
ATOM     22  C   UNL     1      49.508   7.590  12.024  0.00  0.00    +0.000 C 
ENDBRANCH  15  17
ENDBRANCH  13  15
ENDBRANCH   7  13
TORSDOF 4
ENDMDL
MODEL 7
REMARK VINA RESULT:    -5.780      3.271      6.539
REMARK INTER + INTRA:          -7.692
REMARK INTER:                  -7.138
REMARK INTRA:                  -0.553
REMARK UNBOUND:                -0.560
REMARK  Name = 
REMARK  6 active torsions:
REMARK  status: ('A' for Active; 'I' for Inactive)
REMARK    1  A    between atoms: C_1  and  C_2
REMARK    2  A    between atoms: C_4  and  C_5
REMARK    3  A    between atoms: C_10  and  N_11
REMARK    4  A    between atoms: N_11  and  C_12
REMARK    5  A    between atoms: C_12  and  C_13
REMARK    6  A    between atoms: C_12  and  C_14
REMARK                            x       y       z     vdW  Elec       q    Type
REMARK                         _______ _______ _______ _____ _____    ______ ____
ROOT
ATOM      1  C   UNL     1      47.124   4.071  14.563  0.00  0.00    +0.000 C 
ATOM      2  C   UNL     1      46.253   4.434  13.394  0.00  0.00    +0.000 A 
ATOM      3  C   UNL     1      45.522   3.438  12.731  0.00  0.00    +0.000 A 
ATOM      4  C   UNL     1      44.697   3.768  11.657  0.00  0.00    +0.000 A 
ATOM      5  C   UNL     1      44.634   5.105  11.307  0.00  0.00    +0.000 A 
ATOM      6  N   UNL     1      45.308   6.099  11.946  0.00  0.00    +0.000 NA
ATOM      7  C   UNL     1      46.114   5.765  12.975  0.00  0.00    +0.000 A 
ENDROOT
BRANCH   4   8
ATOM      8  C   UNL     1      43.945   2.690  10.971  0.00  0.00    +0.000 C 
ATOM      9  N   UNL     1      44.426   2.182   9.795  0.00  0.00    +0.000 N 
ATOM     10  O   UNL     1      42.900   2.247  11.438  0.00  0.00    +0.000 OA
ATOM     11  H   UNL     1      45.272   2.466   9.330  0.00  0.00    +0.000 HD
ATOM     12  H   UNL     1      43.876   1.451   9.364  0.00  0.00    +0.000 HD
ENDBRANCH   4   8
BRANCH   7  13
ATOM     13  N   UNL     1      46.883   6.749  13.600  0.00  0.00    +0.000 N 
ATOM     14  H   UNL     1      46.917   6.560  14.596  0.00  0.00    +0.000 HD
BRANCH  13  15
ATOM     15  C   UNL     1      48.176   7.101  13.014  0.00  0.00    +0.000 C 
ATOM     16  C   UNL     1      49.247   7.308  14.089  0.00  0.00    +0.000 C 
BRANCH  15  17
ATOM     17  C   UNL     1      47.996   8.373  12.124  0.00  0.00    +0.000 C 
ATOM     18  C   UNL     1      49.298   9.174  11.913  0.00  0.00    +0.000 C 
ATOM     19  C   UNL     1      49.075  10.419  11.056  0.00  0.00    +0.000 C 
ATOM     20  C   UNL     1      47.988  11.314  11.637  0.00  0.00    +0.000 C 
ATOM     21  C   UNL     1      46.686  10.544  11.828  0.00  0.00    +0.000 C 
ATOM     22  C   UNL     1      46.890   9.295  12.683  0.00  0.00    +0.000 C 
ENDBRANCH  15  17
ENDBRANCH  13  15
ENDBRANCH   7  13
TORSDOF 4
ENDMDL
MODEL 8
REMARK VINA RESULT:    -5.745      3.868      7.315
REMARK INTER + INTRA:          -7.649
REMARK INTER:                  -6.972
REMARK INTRA:                  -0.677
REMARK UNBOUND:                -0.560
REMARK  Name = 
REMARK  6 active torsions:
REMARK  status: ('A' for Active; 'I' for Inactive)
REMARK    1  A    between atoms: C_1  and  C_2
REMARK    2  A    between atoms: C_4  and  C_5
REMARK    3  A    between atoms: C_10  and  N_11
REMARK    4  A    between atoms: N_11  and  C_12
REMARK    5  A    between atoms: C_12  and  C_13
REMARK    6  A    between atoms: C_12  and  C_14
REMARK                            x       y       z     vdW  Elec       q    Type
REMARK                         _______ _______ _______ _____ _____    ______ ____
ROOT
ATOM      1  C   UNL     1      48.400   6.819  13.891  0.00  0.00    +0.000 C 
ATOM      2  C   UNL     1      47.253   5.916  13.537  0.00  0.00    +0.000 A 
ATOM      3  C   UNL     1      46.657   6.007  12.271  0.00  0.00    +0.000 A 
ATOM      4  C   UNL     1      45.602   5.163  11.926  0.00  0.00    +0.000 A 
ATOM      5  C   UNL     1      45.203   4.243  12.880  0.00  0.00    +0.000 A 
ATOM      6  N   UNL     1      45.777   4.110  14.106  0.00  0.00    +0.000 NA
ATOM      7  C   UNL     1      46.787   4.943  14.432  0.00  0.00    +0.000 A 
ENDROOT
BRANCH   4   8
ATOM      8  C   UNL     1      44.987   5.292  10.584  0.00  0.00    +0.000 C 
ATOM      9  N   UNL     1      43.652   5.571  10.483  0.00  0.00    +0.000 N 
ATOM     10  O   UNL     1      45.654   5.151   9.562  0.00  0.00    +0.000 OA
ATOM     11  H   UNL     1      43.017   5.711  11.251  0.00  0.00    +0.000 HD
ATOM     12  H   UNL     1      43.278   5.646   9.546  0.00  0.00    +0.000 HD
ENDBRANCH   4   8
BRANCH   7  13
ATOM     13  N   UNL     1      47.344   4.888  15.711  0.00  0.00    +0.000 N 
ATOM     14  H   UNL     1      46.745   5.393  16.356  0.00  0.00    +0.000 HD
BRANCH  13  15
ATOM     15  C   UNL     1      47.808   3.595  16.215  0.00  0.00    +0.000 C 
ATOM     16  C   UNL     1      47.012   3.149  17.446  0.00  0.00    +0.000 C 
BRANCH  15  17
ATOM     17  C   UNL     1      49.338   3.693  16.520  0.00  0.00    +0.000 C 
ATOM     18  C   UNL     1      49.891   2.495  17.318  0.00  0.00    +0.000 C 
ATOM     19  C   UNL     1      51.384   2.639  17.613  0.00  0.00    +0.000 C 
ATOM     20  C   UNL     1      51.691   3.945  18.333  0.00  0.00    +0.000 C 
ATOM     21  C   UNL     1      51.173   5.142  17.543  0.00  0.00    +0.000 C 
ATOM     22  C   UNL     1      49.681   5.016  17.239  0.00  0.00    +0.000 C 
ENDBRANCH  15  17
ENDBRANCH  13  15
ENDBRANCH   7  13
TORSDOF 4
ENDMDL
MODEL 9
REMARK VINA RESULT:    -5.480      4.028      7.378
REMARK INTER + INTRA:          -7.321
REMARK INTER:                  -6.732
REMARK INTRA:                  -0.589
REMARK UNBOUND:                -0.560
REMARK  Name = 
REMARK  6 active torsions:
REMARK  status: ('A' for Active; 'I' for Inactive)
REMARK    1  A    between atoms: C_1  and  C_2
REMARK    2  A    between atoms: C_4  and  C_5
REMARK    3  A    between atoms: C_10  and  N_11
REMARK    4  A    between atoms: N_11  and  C_12
REMARK    5  A    between atoms: C_12  and  C_13
REMARK    6  A    between atoms: C_12  and  C_14
REMARK                            x       y       z     vdW  Elec       q    Type
REMARK                         _______ _______ _______ _____ _____    ______ ____
ROOT
ATOM      1  C   UNL     1      47.906   7.471  11.755  0.00  0.00    +0.000 C 
ATOM      2  C   UNL     1      46.811   6.563  12.238  0.00  0.00    +0.000 A 
ATOM      3  C   UNL     1      45.592   6.508  11.546  0.00  0.00    +0.000 A 
ATOM      4  C   UNL     1      44.576   5.655  11.976  0.00  0.00    +0.000 A 
ATOM      5  C   UNL     1      44.845   4.876  13.088  0.00  0.00    +0.000 A 
ATOM      6  N   UNL     1      46.025   4.885  13.765  0.00  0.00    +0.000 NA
ATOM      7  C   UNL     1      46.995   5.725  13.347  0.00  0.00    +0.000 A 
ENDROOT
BRANCH   4   8
ATOM      8  C   UNL     1      43.296   5.628  11.229  0.00  0.00    +0.000 C 
ATOM      9  N   UNL     1      42.225   6.329  11.711  0.00  0.00    +0.000 N 
ATOM     10  O   UNL     1      43.182   4.988  10.187  0.00  0.00    +0.000 OA
ATOM     11  H   UNL     1      42.212   6.889  12.546  0.00  0.00    +0.000 HD
ATOM     12  H   UNL     1      41.373   6.277  11.167  0.00  0.00    +0.000 HD
ENDBRANCH   4   8
BRANCH   7  13
ATOM     13  N   UNL     1      48.187   5.818  14.067  0.00  0.00    +0.000 N 
ATOM     14  H   UNL     1      48.907   6.209  13.468  0.00  0.00    +0.000 HD
BRANCH  13  15
ATOM     15  C   UNL     1      48.148   6.399  15.409  0.00  0.00    +0.000 C 
ATOM     16  C   UNL     1      48.974   7.686  15.494  0.00  0.00    +0.000 C 
BRANCH  15  17
ATOM     17  C   UNL     1      48.640   5.328  16.436  0.00  0.00    +0.000 C 
ATOM     18  C   UNL     1      47.539   4.344  16.883  0.00  0.00    +0.000 C 
ATOM     19  C   UNL     1      48.054   3.327  17.901  0.00  0.00    +0.000 C 
ATOM     20  C   UNL     1      48.680   4.010  19.110  0.00  0.00    +0.000 C 
ATOM     21  C   UNL     1      49.788   4.968  18.687  0.00  0.00    +0.000 C 
ATOM     22  C   UNL     1      49.291   5.992  17.669  0.00  0.00    +0.000 C 
ENDBRANCH  15  17
ENDBRANCH  13  15
ENDBRANCH   7  13
TORSDOF 4
ENDMDL
