MODEL 1
REMARK VINA RESULT:    -8.635      0.000      0.000
REMARK INTER + INTRA:         -11.312
REMARK INTER:                 -10.654
REMARK INTRA:                  -0.658
REMARK UNBOUND:                -0.658
REMARK  Name = 
REMARK  4 active torsions:
REMARK  status: ('A' for Active; 'I' for Inactive)
REMARK    1  A    between atoms: C_2  and  C_4
REMARK    2  A    between atoms: C_7  and  C_8
REMARK    3  A    between atoms: C_8  and  C_9
REMARK    4  A    between atoms: C_13  and  C_14
REMARK                            x       y       z     vdW  Elec       q    Type
REMARK                         _______ _______ _______ _____ _____    ______ ____
ROOT
ATOM      1  C   UNL     1      44.520   4.499  10.935  0.00  0.00    +0.000 C 
ATOM      2  C   UNL     1      43.182   3.923  11.403  0.00  0.00    +0.000 C 
ATOM      3  C   UNL     1      43.202   5.267  10.755  0.00  0.00    +0.000 C 
ENDROOT
BRANCH   1   7
ATOM      4  C   UNL     1      46.469   2.653   7.552  0.00  0.00    +0.000 A 
ATOM      5  C   UNL     1      46.402   4.043   7.615  0.00  0.00    +0.000 A 
ATOM      6  C   UNL     1      45.738   4.651   8.687  0.00  0.00    +0.000 A 
ATOM      7  C   UNL     1      45.145   3.868   9.683  0.00  0.00    +0.000 A 
ATOM      8  N   UNL     1      45.176   2.509   9.592  0.00  0.00    +0.000 NA
ATOM      9  C   UNL     1      45.823   1.936   8.547  0.00  0.00    +0.000 A 
BRANCH   4  11
ATOM     10  N   UNL     1      47.906   2.645   5.597  0.00  0.00    +0.000 N 
ATOM     11  C   UNL     1      47.188   1.911   6.503  0.00  0.00    +0.000 C 
ATOM     12  O   UNL     1      47.194   0.687   6.469  0.00  0.00    +0.000 OA
ATOM     13  H   UNL     1      48.500   2.114   4.968  0.00  0.00    +0.000 HD
ATOM     14  H   UNL     1      48.144   3.612   5.754  0.00  0.00    +0.000 HD
ENDBRANCH   4  11
ENDBRANCH   1   7
BRANCH   1  15
ATOM     15  C   UNL     1      45.453   5.084  11.997  0.00  0.00    +0.000 A 
ATOM     16  C   UNL     1      45.781   4.348  13.147  0.00  0.00    +0.000 A 
ATOM     17  C   UNL     1      46.796   4.764  14.005  0.00  0.00    +0.000 A 
ATOM     18  C   UNL     1      47.516   5.925  13.719  0.00  0.00    +0.000 A 
ATOM     19  C   UNL     1      47.211   6.708  12.594  0.00  0.00    +0.000 A 
ATOM     20  C   UNL     1      46.136   6.299  11.785  0.00  0.00    +0.000 A 
BRANCH  19  21
ATOM     21  C   UNL     1      48.054   7.852  12.197  0.00  0.00    +0.000 A 
ATOM     22  C   UNL     1      49.389   7.678  11.825  0.00  0.00    +0.000 A 
ATOM     23  C   UNL     1      50.134   8.776  11.405  0.00  0.00    +0.000 A 
ATOM     24  C   UNL     1      49.531  10.024  11.362  0.00  0.00    +0.000 A 
ATOM     25  C   UNL     1      48.199  10.117  11.734  0.00  0.00    +0.000 A 
ATOM     26  N   UNL     1      47.450   9.066  12.142  0.00  0.00    +0.000 NA
ENDBRANCH  19  21
ENDBRANCH   1  15
TORSDOF 4
ENDMDL
MODEL 2
REMARK VINA RESULT:    -8.415      2.063      3.444
REMARK INTER + INTRA:         -11.041
REMARK INTER:                 -10.480
REMARK INTRA:                  -0.561
REMARK UNBOUND:                -0.658
REMARK  Name = 
REMARK  4 active torsions:
REMARK  status: ('A' for Active; 'I' for Inactive)
REMARK    1  A    between atoms: C_2  and  C_4
REMARK    2  A    between atoms: C_7  and  C_8
REMARK    3  A    between atoms: C_8  and  C_9
REMARK    4  A    between atoms: C_13  and  C_14
REMARK                            x       y       z     vdW  Elec       q    Type
REMARK                         _______ _______ _______ _____ _____    ______ ____
ROOT
ATOM      1  C   UNL     1      44.646   4.556  10.870  0.00  0.00    +0.000 C 
ATOM      2  C   UNL     1      43.524   3.801  11.586  0.00  0.00    +0.000 C 
ATOM      3  C   UNL     1      43.185   5.025  10.802  0.00  0.00    +0.000 C 
ENDROOT
BRANCH   1   7
ATOM      4  C   UNL     1      46.492   2.625   7.476  0.00  0.00    +0.000 A 
ATOM      5  C   UNL     1      46.452   4.016   7.520  0.00  0.00    +0.000 A 
ATOM      6  C   UNL     1      45.821   4.653   8.596  0.00  0.00    +0.000 A 
ATOM      7  C   UNL     1      45.233   3.895   9.615  0.00  0.00    +0.000 A 
ATOM      8  N   UNL     1      45.237   2.535   9.544  0.00  0.00    +0.000 NA
ATOM      9  C   UNL     1      45.852   1.935   8.494  0.00  0.00    +0.000 A 
BRANCH   4  11
ATOM     10  N   UNL     1      47.871   2.563   5.481  0.00  0.00    +0.000 N 
ATOM     11  C   UNL     1      47.175   1.855   6.425  0.00  0.00    +0.000 C 
ATOM     12  O   UNL     1      47.172   0.630   6.418  0.00  0.00    +0.000 OA
ATOM     13  H   UNL     1      48.443   2.013   4.848  0.00  0.00    +0.000 HD
ATOM     14  H   UNL     1      48.120   3.532   5.610  0.00  0.00    +0.000 HD
ENDBRANCH   4  11
ENDBRANCH   1   7
BRANCH   1  15
ATOM     15  C   UNL     1      45.557   5.448  11.717  0.00  0.00    +0.000 A 
ATOM     16  C   UNL     1      45.509   6.846  11.593  0.00  0.00    +0.000 A 
ATOM     17  C   UNL     1      46.158   7.674  12.506  0.00  0.00    +0.000 A 
ATOM     18  C   UNL     1      46.858   7.115  13.575  0.00  0.00    +0.000 A 
ATOM     19  C   UNL     1      46.955   5.722  13.731  0.00  0.00    +0.000 A 
ATOM     20  C   UNL     1      46.348   4.913  12.755  0.00  0.00    +0.000 A 
BRANCH  19  21
ATOM     21  C   UNL     1      47.563   5.119  14.932  0.00  0.00    +0.000 A 
ATOM     22  C   UNL     1      48.339   5.875  15.813  0.00  0.00    +0.000 A 
ATOM     23  C   UNL     1      48.850   5.280  16.962  0.00  0.00    +0.000 A 
ATOM     24  C   UNL     1      48.572   3.944  17.211  0.00  0.00    +0.000 A 
ATOM     25  C   UNL     1      47.785   3.261  16.298  0.00  0.00    +0.000 A 
ATOM     26  N   UNL     1      47.272   3.816  15.175  0.00  0.00    +0.000 NA
ENDBRANCH  19  21
ENDBRANCH   1  15
TORSDOF 4
ENDMDL
MODEL 3
REMARK VINA RESULT:    -7.807      1.704      2.549
REMARK INTER + INTRA:         -10.290
REMARK INTER:                  -9.793
REMARK INTRA:                  -0.497
REMARK UNBOUND:                -0.658
REMARK  Name = 
REMARK  4 active torsions:
REMARK  status: ('A' for Active; 'I' for Inactive)
REMARK    1  A    between atoms: C_2  and  C_4
REMARK    2  A    between atoms: C_7  and  C_8
REMARK    3  A    between atoms: C_8  and  C_9
REMARK    4  A    between atoms: C_13  and  C_14
REMARK                            x       y       z     vdW  Elec       q    Type
REMARK                         _______ _______ _______ _____ _____    ______ ____
ROOT
ATOM      1  C   UNL     1      44.579   4.562  10.944  0.00  0.00    +0.000 C 
ATOM      2  C   UNL     1      43.899   3.647  11.966  0.00  0.00    +0.000 C 
ATOM      3  C   UNL     1      43.052   4.523  11.104  0.00  0.00    +0.000 C 
ENDROOT
BRANCH   1   7
ATOM      4  C   UNL     1      46.454   2.604   7.582  0.00  0.00    +0.000 A 
ATOM      5  C   UNL     1      46.355   3.993   7.583  0.00  0.00    +0.000 A 
ATOM      6  C   UNL     1      45.714   4.636   8.649  0.00  0.00    +0.000 A 
ATOM      7  C   UNL     1      45.175   3.886   9.701  0.00  0.00    +0.000 A 
ATOM      8  N   UNL     1      45.237   2.526   9.672  0.00  0.00    +0.000 NA
ATOM      9  C   UNL     1      45.861   1.920   8.632  0.00  0.00    +0.000 A 
BRANCH   4  11
ATOM     10  N   UNL     1      47.979   2.521   5.697  0.00  0.00    +0.000 N 
ATOM     11  C   UNL     1      47.154   1.830   6.544  0.00  0.00    +0.000 C 
ATOM     12  O   UNL     1      47.051   0.612   6.469  0.00  0.00    +0.000 OA
ATOM     13  H   UNL     1      48.553   1.956   5.079  0.00  0.00    +0.000 HD
ATOM     14  H   UNL     1      48.295   3.458   5.897  0.00  0.00    +0.000 HD
ENDBRANCH   4  11
ENDBRANCH   1   7
BRANCH   1  15
ATOM     15  C   UNL     1      45.237   5.842  11.463  0.00  0.00    +0.000 A 
ATOM     16  C   UNL     1      44.607   7.087  11.302  0.00  0.00    +0.000 A 
ATOM     17  C   UNL     1      45.074   8.222  11.961  0.00  0.00    +0.000 A 
ATOM     18  C   UNL     1      46.178   8.129  12.809  0.00  0.00    +0.000 A 
ATOM     19  C   UNL     1      46.856   6.912  12.986  0.00  0.00    +0.000 A 
ATOM     20  C   UNL     1      46.403   5.800  12.254  0.00  0.00    +0.000 A 
BRANCH  19  21
ATOM     21  C   UNL     1      47.928   6.762  13.988  0.00  0.00    +0.000 A 
ATOM     22  C   UNL     1      49.017   7.636  14.024  0.00  0.00    +0.000 A 
ATOM     23  C   UNL     1      49.979   7.492  15.019  0.00  0.00    +0.000 A 
ATOM     24  C   UNL     1      49.832   6.485  15.960  0.00  0.00    +0.000 A 
ATOM     25  C   UNL     1      48.719   5.665  15.868  0.00  0.00    +0.000 A 
ATOM     26  N   UNL     1      47.767   5.783  14.914  0.00  0.00    +0.000 NA
ENDBRANCH  19  21
ENDBRANCH   1  15
TORSDOF 4
ENDMDL
MODEL 4
REMARK VINA RESULT:    -7.262      3.383      7.332
REMARK INTER + INTRA:          -9.618
REMARK INTER:                  -9.184
REMARK INTRA:                  -0.433
REMARK UNBOUND:                -0.658
REMARK  Name = 
REMARK  4 active torsions:
REMARK  status: ('A' for Active; 'I' for Inactive)
REMARK    1  A    between atoms: C_2  and  C_4
REMARK    2  A    between atoms: C_7  and  C_8
REMARK    3  A    between atoms: C_8  and  C_9
REMARK    4  A    between atoms: C_13  and  C_14
REMARK                            x       y       z     vdW  Elec       q    Type
REMARK                         _______ _______ _______ _____ _____    ______ ____
ROOT
ATOM      1  C   UNL     1      45.521   5.540  12.433  0.00  0.00    +0.000 C 
ATOM      2  C   UNL     1      45.538   6.830  11.609  0.00  0.00    +0.000 C 
ATOM      3  C   UNL     1      44.415   6.599  12.563  0.00  0.00    +0.000 C 
ENDROOT
BRANCH   1   7
ATOM      4  C   UNL     1      48.202   5.333  15.811  0.00  0.00    +0.000 A 
ATOM      5  C   UNL     1      48.393   6.331  14.860  0.00  0.00    +0.000 A 
ATOM      6  C   UNL     1      47.555   6.384  13.740  0.00  0.00    +0.000 A 
ATOM      7  C   UNL     1      46.537   5.438  13.579  0.00  0.00    +0.000 A 
ATOM      8  N   UNL     1      46.383   4.438  14.491  0.00  0.00    +0.000 NA
ATOM      9  C   UNL     1      47.205   4.401  15.569  0.00  0.00    +0.000 A 
BRANCH   4  11
ATOM     10  N   UNL     1      48.300   5.276  18.235  0.00  0.00    +0.000 N 
ATOM     11  C   UNL     1      48.987   5.216  17.051  0.00  0.00    +0.000 C 
ATOM     12  O   UNL     1      50.196   5.018  17.033  0.00  0.00    +0.000 OA
ATOM     13  H   UNL     1      48.836   5.060  19.070  0.00  0.00    +0.000 HD
ATOM     14  H   UNL     1      47.299   5.163  18.284  0.00  0.00    +0.000 HD
ENDBRANCH   4  11
ENDBRANCH   1   7
BRANCH   1  15
ATOM     15  C   UNL     1      45.084   4.253  11.730  0.00  0.00    +0.000 A 
ATOM     16  C   UNL     1      43.897   3.601  12.102  0.00  0.00    +0.000 A 
ATOM     17  C   UNL     1      43.370   2.568  11.330  0.00  0.00    +0.000 A 
ATOM     18  C   UNL     1      44.017   2.175  10.159  0.00  0.00    +0.000 A 
ATOM     19  C   UNL     1      45.218   2.781   9.756  0.00  0.00    +0.000 A 
ATOM     20  C   UNL     1      45.761   3.773  10.591  0.00  0.00    +0.000 A 
BRANCH  19  21
ATOM     21  C   UNL     1      45.834   2.483   8.449  0.00  0.00    +0.000 A 
ATOM     22  C   UNL     1      45.935   3.456   7.453  0.00  0.00    +0.000 A 
ATOM     23  C   UNL     1      46.571   3.148   6.254  0.00  0.00    +0.000 A 
ATOM     24  C   UNL     1      47.098   1.878   6.076  0.00  0.00    +0.000 A 
ATOM     25  C   UNL     1      46.971   0.969   7.114  0.00  0.00    +0.000 A 
ATOM     26  N   UNL     1      46.361   1.242   8.290  0.00  0.00    +0.000 NA
ENDBRANCH  19  21
ENDBRANCH   1  15
TORSDOF 4
ENDMDL
MODEL 5
REMARK VINA RESULT:    -6.817      3.355      7.317
REMARK INTER + INTRA:          -9.069
REMARK INTER:                  -8.730
REMARK INTRA:                  -0.339
REMARK UNBOUND:                -0.658
REMARK  Name = 
REMARK  4 active torsions:
REMARK  status: ('A' for Active; 'I' for Inactive)
REMARK    1  A    between atoms: C_2  and  C_4
REMARK    2  A    between atoms: C_7  and  C_8
REMARK    3  A    between atoms: C_8  and  C_9
REMARK    4  A    between atoms: C_13  and  C_14
REMARK                            x       y       z     vdW  Elec       q    Type
REMARK                         _______ _______ _______ _____ _____    ______ ____
ROOT
ATOM      1  C   UNL     1      46.297   6.490  12.802  0.00  0.00    +0.000 C 
ATOM      2  C   UNL     1      47.091   7.573  12.065  0.00  0.00    +0.000 C 
ATOM      3  C   UNL     1      45.898   7.972  12.868  0.00  0.00    +0.000 C 
ENDROOT
BRANCH   1   7
ATOM      4  C   UNL     1      48.339   4.723  16.172  0.00  0.00    +0.000 A 
ATOM      5  C   UNL     1      47.262   4.046  15.606  0.00  0.00    +0.000 A 
ATOM      6  C   UNL     1      46.567   4.628  14.539  0.00  0.00    +0.000 A 
ATOM      7  C   UNL     1      46.952   5.881  14.049  0.00  0.00    +0.000 A 
ATOM      8  N   UNL     1      47.979   6.557  14.635  0.00  0.00    +0.000 NA
ATOM      9  C   UNL     1      48.640   5.979  15.668  0.00  0.00    +0.000 A 
BRANCH   4  11
ATOM     10  N   UNL     1      48.532   3.496  18.256  0.00  0.00    +0.000 N 
ATOM     11  C   UNL     1      49.173   4.182  17.257  0.00  0.00    +0.000 C 
ATOM     12  O   UNL     1      50.393   4.288  17.247  0.00  0.00    +0.000 OA
ATOM     13  H   UNL     1      49.133   3.018  18.920  0.00  0.00    +0.000 HD
ATOM     14  H   UNL     1      47.587   3.159  18.158  0.00  0.00    +0.000 HD
ENDBRANCH   4  11
ENDBRANCH   1   7
BRANCH   1  15
ATOM     15  C   UNL     1      45.351   5.617  11.975  0.00  0.00    +0.000 A 
ATOM     16  C   UNL     1      43.959   5.783  12.067  0.00  0.00    +0.000 A 
ATOM     17  C   UNL     1      43.098   5.163  11.164  0.00  0.00    +0.000 A 
ATOM     18  C   UNL     1      43.617   4.372  10.140  0.00  0.00    +0.000 A 
ATOM     19  C   UNL     1      45.000   4.156  10.019  0.00  0.00    +0.000 A 
ATOM     20  C   UNL     1      45.838   4.739  10.986  0.00  0.00    +0.000 A 
BRANCH  19  21
ATOM     21  C   UNL     1      45.574   3.447   8.860  0.00  0.00    +0.000 A 
ATOM     22  C   UNL     1      46.040   4.141   7.741  0.00  0.00    +0.000 A 
ATOM     23  C   UNL     1      46.623   3.438   6.691  0.00  0.00    +0.000 A 
ATOM     24  C   UNL     1      46.735   2.059   6.781  0.00  0.00    +0.000 A 
ATOM     25  C   UNL     1      46.261   1.441   7.928  0.00  0.00    +0.000 A 
ATOM     26  N   UNL     1      45.693   2.100   8.965  0.00  0.00    +0.000 NA
ENDBRANCH  19  21
ENDBRANCH   1  15
TORSDOF 4
ENDMDL
MODEL 6
REMARK VINA RESULT:    -6.739      2.941      6.926
REMARK INTER + INTRA:          -8.973
REMARK INTER:                  -8.674
REMARK INTRA:                  -0.299
REMARK UNBOUND:                -0.658
REMARK  Name = 
REMARK  4 active torsions:
REMARK  status: ('A' for Active; 'I' for Inactive)
REMARK    1  A    between atoms: C_2  and  C_4
REMARK    2  A    between atoms: C_7  and  C_8
REMARK    3  A    between atoms: C_8  and  C_9
REMARK    4  A    between atoms: C_13  and  C_14
REMARK                            x       y       z     vdW  Elec       q    Type
REMARK                         _______ _______ _______ _____ _____    ______ ____
ROOT
ATOM      1  C   UNL     1      45.287   6.238  11.901  0.00  0.00    +0.000 C 
ATOM      2  C   UNL     1      44.587   7.415  11.216  0.00  0.00    +0.000 C 
ATOM      3  C   UNL     1      44.108   6.970  12.558  0.00  0.00    +0.000 C 
ENDROOT
BRANCH   1   7
ATOM      4  C   UNL     1      49.125   7.149  13.657  0.00  0.00    +0.000 A 
ATOM      5  C   UNL     1      48.863   7.571  12.357  0.00  0.00    +0.000 A 
ATOM      6  C   UNL     1      47.637   7.247  11.763  0.00  0.00    +0.000 A 
ATOM      7  C   UNL     1      46.688   6.502  12.471  0.00  0.00    +0.000 A 
ATOM      8  N   UNL     1      46.968   6.056  13.727  0.00  0.00    +0.000 NA
ATOM      9  C   UNL     1      48.160   6.378  14.287  0.00  0.00    +0.000 A 
BRANCH   4  11
ATOM     10  N   UNL     1      51.373   8.063  13.691  0.00  0.00    +0.000 N 
ATOM     11  C   UNL     1      50.354   7.480  14.397  0.00  0.00    +0.000 C 
ATOM     12  O   UNL     1      50.449   7.297  15.605  0.00  0.00    +0.000 OA
ATOM     13  H   UNL     1      52.154   8.405  14.241  0.00  0.00    +0.000 HD
ATOM     14  H   UNL     1      51.232   8.472  12.780  0.00  0.00    +0.000 HD
ENDBRANCH   4  11
ENDBRANCH   1   7
BRANCH   1  15
ATOM     15  C   UNL     1      44.957   4.828  11.404  0.00  0.00    +0.000 A 
ATOM     16  C   UNL     1      43.833   4.141  11.890  0.00  0.00    +0.000 A 
ATOM     17  C   UNL     1      43.392   2.965  11.290  0.00  0.00    +0.000 A 
ATOM     18  C   UNL     1      44.062   2.458  10.177  0.00  0.00    +0.000 A 
ATOM     19  C   UNL     1      45.205   3.096   9.666  0.00  0.00    +0.000 A 
ATOM     20  C   UNL     1      45.666   4.243  10.335  0.00  0.00    +0.000 A 
BRANCH  19  21
ATOM     21  C   UNL     1      45.836   2.659   8.406  0.00  0.00    +0.000 A 
ATOM     22  C   UNL     1      46.019   3.542   7.339  0.00  0.00    +0.000 A 
ATOM     23  C   UNL     1      46.667   3.104   6.189  0.00  0.00    +0.000 A 
ATOM     24  C   UNL     1      47.122   1.796   6.127  0.00  0.00    +0.000 A 
ATOM     25  C   UNL     1      46.915   0.981   7.229  0.00  0.00    +0.000 A 
ATOM     26  N   UNL     1      46.292   1.382   8.361  0.00  0.00    +0.000 NA
ENDBRANCH  19  21
ENDBRANCH   1  15
TORSDOF 4
ENDMDL
MODEL 7
REMARK VINA RESULT:    -6.625      5.211      8.147
REMARK INTER + INTRA:          -8.832
REMARK INTER:                  -8.400
REMARK INTRA:                  -0.432
REMARK UNBOUND:                -0.658
REMARK  Name = 
REMARK  4 active torsions:
REMARK  status: ('A' for Active; 'I' for Inactive)
REMARK    1  A    between atoms: C_2  and  C_4
REMARK    2  A    between atoms: C_7  and  C_8
REMARK    3  A    between atoms: C_8  and  C_9
REMARK    4  A    between atoms: C_13  and  C_14
REMARK                            x       y       z     vdW  Elec       q    Type
REMARK                         _______ _______ _______ _____ _____    ______ ____
ROOT
ATOM      1  C   UNL     1      48.415   5.062  17.019  0.00  0.00    +0.000 C 
ATOM      2  C   UNL     1      48.099   5.872  18.279  0.00  0.00    +0.000 C 
ATOM      3  C   UNL     1      47.156   4.794  17.859  0.00  0.00    +0.000 C 
ENDROOT
BRANCH   1   7
ATOM      4  C   UNL     1      51.515   2.094  17.491  0.00  0.00    +0.000 A 
ATOM      5  C   UNL     1      51.781   3.410  17.860  0.00  0.00    +0.000 A 
ATOM      6  C   UNL     1      50.797   4.388  17.674  0.00  0.00    +0.000 A 
ATOM      7  C   UNL     1      49.559   4.045  17.119  0.00  0.00    +0.000 A 
ATOM      8  N   UNL     1      49.321   2.764  16.721  0.00  0.00    +0.000 NA
ATOM      9  C   UNL     1      50.286   1.829  16.907  0.00  0.00    +0.000 A 
BRANCH   4  11
ATOM     10  N   UNL     1      51.990  -0.114  18.379  0.00  0.00    +0.000 N 
ATOM     11  C   UNL     1      52.453   0.978  17.692  0.00  0.00    +0.000 C 
ATOM     12  O   UNL     1      53.583   0.992  17.221  0.00  0.00    +0.000 OA
ATOM     13  H   UNL     1      52.603  -0.923  18.391  0.00  0.00    +0.000 HD
ATOM     14  H   UNL     1      51.007  -0.273  18.538  0.00  0.00    +0.000 HD
ENDBRANCH   4  11
ENDBRANCH   1   7
BRANCH   1  15
ATOM     15  C   UNL     1      48.142   5.721  15.665  0.00  0.00    +0.000 A 
ATOM     16  C   UNL     1      49.013   6.696  15.153  0.00  0.00    +0.000 A 
ATOM     17  C   UNL     1      48.909   7.137  13.836  0.00  0.00    +0.000 A 
ATOM     18  C   UNL     1      47.935   6.596  12.997  0.00  0.00    +0.000 A 
ATOM     19  C   UNL     1      47.025   5.634  13.467  0.00  0.00    +0.000 A 
ATOM     20  C   UNL     1      47.111   5.260  14.820  0.00  0.00    +0.000 A 
BRANCH  19  21
ATOM     21  C   UNL     1      46.089   4.946  12.558  0.00  0.00    +0.000 A 
ATOM     22  C   UNL     1      45.690   5.524  11.351  0.00  0.00    +0.000 A 
ATOM     23  C   UNL     1      44.847   4.818  10.498  0.00  0.00    +0.000 A 
ATOM     24  C   UNL     1      44.423   3.550  10.864  0.00  0.00    +0.000 A 
ATOM     25  C   UNL     1      44.870   3.038  12.072  0.00  0.00    +0.000 A 
ATOM     26  N   UNL     1      45.692   3.700  12.918  0.00  0.00    +0.000 NA
ENDBRANCH  19  21
ENDBRANCH   1  15
TORSDOF 4
ENDMDL
MODEL 8
REMARK VINA RESULT:    -6.621      3.567      6.334
REMARK INTER + INTRA:          -8.827
REMARK INTER:                  -8.200
REMARK INTRA:                  -0.627
REMARK UNBOUND:                -0.658
REMARK  Name = 
REMARK  4 active torsions:
REMARK  status: ('A' for Active; 'I' for Inactive)
REMARK    1  A    between atoms: C_2  and  C_4
REMARK    2  A    between atoms: C_7  and  C_8
REMARK    3  A    between atoms: C_8  and  C_9
REMARK    4  A    between atoms: C_13  and  C_14
REMARK                            x       y       z     vdW  Elec       q    Type
REMARK                         _______ _______ _______ _____ _____    ______ ____
ROOT
ATOM      1  C   UNL     1      48.016   8.068  12.588  0.00  0.00    +0.000 C 
ATOM      2  C   UNL     1      48.303   9.348  11.799  0.00  0.00    +0.000 C 
ATOM      3  C   UNL     1      49.164   8.152  11.570  0.00  0.00    +0.000 C 
ENDROOT
BRANCH   1   7
ATOM      4  C   UNL     1      44.405   5.892  11.655  0.00  0.00    +0.000 A 
ATOM      5  C   UNL     1      45.552   5.180  11.992  0.00  0.00    +0.000 A 
ATOM      6  C   UNL     1      46.739   5.873  12.257  0.00  0.00    +0.000 A 
ATOM      7  C   UNL     1      46.770   7.269  12.180  0.00  0.00    +0.000 A 
ATOM      8  N   UNL     1      45.656   7.958  11.808  0.00  0.00    +0.000 NA
ATOM      9  C   UNL     1      44.515   7.271  11.554  0.00  0.00    +0.000 A 
BRANCH   4  11
ATOM     10  N   UNL     1      41.982   6.017  11.710  0.00  0.00    +0.000 N 
ATOM     11  C   UNL     1      43.093   5.272  11.411  0.00  0.00    +0.000 C 
ATOM     12  O   UNL     1      42.989   4.159  10.911  0.00  0.00    +0.000 OA
ATOM     13  H   UNL     1      41.094   5.628  11.411  0.00  0.00    +0.000 HD
ATOM     14  H   UNL     1      42.026   7.014  11.859  0.00  0.00    +0.000 HD
ENDBRANCH   4  11
ENDBRANCH   1   7
BRANCH   1  15
ATOM     15  C   UNL     1      48.470   8.016  14.048  0.00  0.00    +0.000 A 
ATOM     16  C   UNL     1      48.430   9.167  14.853  0.00  0.00    +0.000 A 
ATOM     17  C   UNL     1      48.619   9.091  16.230  0.00  0.00    +0.000 A 
ATOM     18  C   UNL     1      48.839   7.853  16.835  0.00  0.00    +0.000 A 
ATOM     19  C   UNL     1      48.909   6.675  16.072  0.00  0.00    +0.000 A 
ATOM     20  C   UNL     1      48.783   6.793  14.676  0.00  0.00    +0.000 A 
BRANCH  19  21
ATOM     21  C   UNL     1      48.992   5.346  16.706  0.00  0.00    +0.000 A 
ATOM     22  C   UNL     1      47.851   4.569  16.918  0.00  0.00    +0.000 A 
ATOM     23  C   UNL     1      47.979   3.298  17.471  0.00  0.00    +0.000 A 
ATOM     24  C   UNL     1      49.242   2.828  17.797  0.00  0.00    +0.000 A 
ATOM     25  C   UNL     1      50.328   3.652  17.547  0.00  0.00    +0.000 A 
ATOM     26  N   UNL     1      50.233   4.889  17.007  0.00  0.00    +0.000 NA
ENDBRANCH  19  21
ENDBRANCH   1  15
TORSDOF 4
ENDMDL
MODEL 9
REMARK VINA RESULT:    -6.275      2.808      7.158
REMARK INTER + INTRA:          -8.400
REMARK INTER:                  -7.882
REMARK INTRA:                  -0.518
REMARK UNBOUND:                -0.658
REMARK  Name = 
REMARK  4 active torsions:
REMARK  status: ('A' for Active; 'I' for Inactive)
REMARK    1  A    between atoms: C_2  and  C_4
REMARK    2  A    between atoms: C_7  and  C_8
REMARK    3  A    between atoms: C_8  and  C_9
REMARK    4  A    between atoms: C_13  and  C_14
REMARK                            x       y       z     vdW  Elec       q    Type
REMARK                         _______ _______ _______ _____ _____    ______ ____
ROOT
ATOM      1  C   UNL     1      46.402   4.926  13.205  0.00  0.00    +0.000 C 
ATOM      2  C   UNL     1      46.052   4.445  14.615  0.00  0.00    +0.000 C 
ATOM      3  C   UNL     1      47.108   3.723  13.848  0.00  0.00    +0.000 C 
ENDROOT
BRANCH   1   7
ATOM      4  C   UNL     1      48.440   8.727  12.997  0.00  0.00    +0.000 A 
ATOM      5  C   UNL     1      48.023   8.122  11.815  0.00  0.00    +0.000 A 
ATOM      6  C   UNL     1      47.397   6.870  11.868  0.00  0.00    +0.000 A 
ATOM      7  C   UNL     1      47.197   6.235  13.098  0.00  0.00    +0.000 A 
ATOM      8  N   UNL     1      47.646   6.813  14.247  0.00  0.00    +0.000 NA
ATOM      9  C   UNL     1      48.251   8.025  14.178  0.00  0.00    +0.000 A 
BRANCH   4  11
ATOM     10  N   UNL     1      48.347  11.049  13.697  0.00  0.00    +0.000 N 
ATOM     11  C   UNL     1      49.057  10.062  13.065  0.00  0.00    +0.000 C 
ATOM     12  O   UNL     1      50.181  10.276  12.626  0.00  0.00    +0.000 OA
ATOM     13  H   UNL     1      48.842  11.921  13.851  0.00  0.00    +0.000 HD
ATOM     14  H   UNL     1      47.562  10.848  14.297  0.00  0.00    +0.000 HD
ENDBRANCH   4  11
ENDBRANCH   1   7
BRANCH   1  15
ATOM     15  C   UNL     1      45.441   4.563  12.071  0.00  0.00    +0.000 A 
ATOM     16  C   UNL     1      44.179   5.171  11.978  0.00  0.00    +0.000 A 
ATOM     17  C   UNL     1      43.390   5.026  10.840  0.00  0.00    +0.000 A 
ATOM     18  C   UNL     1      43.858   4.276   9.761  0.00  0.00    +0.000 A 
ATOM     19  C   UNL     1      45.103   3.629   9.813  0.00  0.00    +0.000 A 
ATOM     20  C   UNL     1      45.846   3.738  11.002  0.00  0.00    +0.000 A 
BRANCH  19  21
ATOM     21  C   UNL     1      45.676   2.958   8.631  0.00  0.00    +0.000 A 
ATOM     22  C   UNL     1      45.956   3.663   7.458  0.00  0.00    +0.000 A 
ATOM     23  C   UNL     1      46.546   3.004   6.384  0.00  0.00    +0.000 A 
ATOM     24  C   UNL     1      46.849   1.656   6.504  0.00  0.00    +0.000 A 
ATOM     25  C   UNL     1      46.554   1.026   7.703  0.00  0.00    +0.000 A 
ATOM     26  N   UNL     1      45.985   1.643   8.764  0.00  0.00    +0.000 NA
ENDBRANCH  19  21
ENDBRANCH   1  15
TORSDOF 4
ENDMDL
