MODEL 1
REMARK VINA RESULT:    -7.933      0.000      0.000
REMARK INTER + INTRA:         -12.508
REMARK INTER:                 -11.411
REMARK INTRA:                  -1.098
REMARK UNBOUND:                -1.098
REMARK  Name = 
REMARK  8 active torsions:
REMARK  status: ('A' for Active; 'I' for Inactive)
REMARK    1  A    between atoms: N_1  and  C_2
REMARK    2  A    between atoms: C_2  and  C_3
REMARK    3  A    between atoms: C_3  and  N_4
REMARK    4  A    between atoms: C_3  and  C_12
REMARK    5  A    between atoms: C_5  and  C_7
REMARK    6  A    between atoms: C_15  and  C_16
REMARK    7  A    between atoms: C_16  and  N_17
REMARK    8  A    between atoms: C_18  and  C_20
REMARK                            x       y       z     vdW  Elec       q    Type
REMARK                         _______ _______ _______ _____ _____    ______ ____
ROOT
ATOM      1  C   UNL     1      45.647   4.979  11.624  0.00  0.00    +0.000 A 
ATOM      2  C   UNL     1      46.176   6.212  11.214  0.00  0.00    +0.000 A 
ATOM      3  C   UNL     1      47.073   6.916  12.028  0.00  0.00    +0.000 A 
ATOM      4  C   UNL     1      47.469   6.399  13.268  0.00  0.00    +0.000 A 
ATOM      5  C   UNL     1      46.910   5.189  13.699  0.00  0.00    +0.000 A 
ATOM      6  C   UNL     1      46.015   4.486  12.887  0.00  0.00    +0.000 A 
ENDROOT
BRANCH   1   7
ATOM      7  C   UNL     1      44.698   4.201  10.713  0.00  0.00    +0.000 C 
BRANCH   7   8
ATOM      8  N   UNL     1      45.409   3.861   9.484  0.00  0.00    +0.000 N 
ATOM      9  C   UNL     1      45.344   2.621   8.897  0.00  0.00    +0.000 C 
ATOM     10  O   UNL     1      44.629   1.718   9.311  0.00  0.00    +0.000 OA
ATOM     11  H   UNL     1      46.080   4.531   9.140  0.00  0.00    +0.000 HD
BRANCH   9  12
ATOM     12  C   UNL     1      46.192   2.458   7.745  0.00  0.00    +0.000 A 
ATOM     13  C   UNL     1      46.422   3.226   6.618  0.00  0.00    +0.000 A 
ATOM     14  C   UNL     1      47.395   2.523   5.885  0.00  0.00    +0.000 A 
ATOM     15  N   UNL     1      47.747   1.382   6.475  0.00  0.00    +0.000 NA
ATOM     16  N   UNL     1      47.002   1.362   7.596  0.00  0.00    +0.000 N 
ATOM     17  H   UNL     1      47.089   0.575   8.232  0.00  0.00    +0.000 HD
ENDBRANCH   9  12
ENDBRANCH   7   8
BRANCH   7  18
ATOM     18  C   UNL     1      43.381   4.990  10.430  0.00  0.00    +0.000 C 
BRANCH  18  19
ATOM     19  N   UNL     1      42.467   5.084  11.577  0.00  0.00    +0.000 NA
ATOM     20  H   UNL     1      42.909   4.651  12.387  0.00  0.00    +0.000 HD
ATOM     21  H   UNL     1      41.623   4.543  11.390  0.00  0.00    +0.000 HD
ENDBRANCH  18  19
ENDBRANCH   7  18
ENDBRANCH   1   7
BRANCH   4  22
ATOM     22  C   UNL     1      48.452   7.132  14.144  0.00  0.00    +0.000 C 
BRANCH  22  23
ATOM     23  N   UNL     1      48.250   6.821  15.536  0.00  0.00    +0.000 N 
ATOM     24  C   UNL     1      49.288   6.402  16.330  0.00  0.00    +0.000 C 
ATOM     25  O   UNL     1      50.435   6.305  15.905  0.00  0.00    +0.000 OA
ATOM     26  H   UNL     1      47.294   6.665  15.841  0.00  0.00    +0.000 HD
BRANCH  24  27
ATOM     27  C   UNL     1      48.966   6.134  17.738  0.00  0.00    +0.000 A 
ATOM     28  C   UNL     1      49.207   4.875  18.273  0.00  0.00    +0.000 A 
ATOM     29  S   UNL     1      48.836   4.753  19.932  0.00  0.00    +0.000 S 
ATOM     30  C   UNL     1      48.283   6.361  19.983  0.00  0.00    +0.000 A 
ATOM     31  N   UNL     1      47.790   6.895  21.132  0.00  0.00    +0.000 NA
ATOM     32  C   UNL     1      47.374   8.113  21.020  0.00  0.00    +0.000 A 
ATOM     33  N   UNL     1      47.412   8.848  19.863  0.00  0.00    +0.000 N 
ATOM     34  C   UNL     1      47.932   8.361  18.687  0.00  0.00    +0.000 A 
ATOM     35  O   UNL     1      47.997   9.064  17.682  0.00  0.00    +0.000 OA
ATOM     36  C   UNL     1      48.401   6.990  18.755  0.00  0.00    +0.000 A 
ATOM     37  H   UNL     1      47.074   9.798  19.844  0.00  0.00    +0.000 HD
ENDBRANCH  24  27
ENDBRANCH  22  23
ENDBRANCH   4  22
TORSDOF 8
ENDMDL
MODEL 2
REMARK VINA RESULT:    -7.925      1.339      2.007
REMARK INTER + INTRA:         -12.497
REMARK INTER:                 -11.667
REMARK INTRA:                  -0.830
REMARK UNBOUND:                -1.098
REMARK  Name = 
REMARK  8 active torsions:
REMARK  status: ('A' for Active; 'I' for Inactive)
REMARK    1  A    between atoms: N_1  and  C_2
REMARK    2  A    between atoms: C_2  and  C_3
REMARK    3  A    between atoms: C_3  and  N_4
REMARK    4  A    between atoms: C_3  and  C_12
REMARK    5  A    between atoms: C_5  and  C_7
REMARK    6  A    between atoms: C_15  and  C_16
REMARK    7  A    between atoms: C_16  and  N_17
REMARK    8  A    between atoms: C_18  and  C_20
REMARK                            x       y       z     vdW  Elec       q    Type
REMARK                         _______ _______ _______ _____ _____    ______ ____
ROOT
ATOM      1  C   UNL     1      45.692   5.019  11.591  0.00  0.00    +0.000 A 
ATOM      2  C   UNL     1      46.042   6.261  11.039  0.00  0.00    +0.000 A 
ATOM      3  C   UNL     1      46.848   7.161  11.749  0.00  0.00    +0.000 A 
ATOM      4  C   UNL     1      47.327   6.838  13.025  0.00  0.00    +0.000 A 
ATOM      5  C   UNL     1      46.944   5.618  13.595  0.00  0.00    +0.000 A 
ATOM      6  C   UNL     1      46.141   4.718  12.887  0.00  0.00    +0.000 A 
ENDROOT
BRANCH   1   7
ATOM      7  C   UNL     1      44.844   4.028  10.794  0.00  0.00    +0.000 C 
BRANCH   7   8
ATOM      8  N   UNL     1      45.541   3.718   9.549  0.00  0.00    +0.000 N 
ATOM      9  C   UNL     1      45.369   2.539   8.866  0.00  0.00    +0.000 C 
ATOM     10  O   UNL     1      44.564   1.679   9.201  0.00  0.00    +0.000 OA
ATOM     11  H   UNL     1      46.278   4.345   9.266  0.00  0.00    +0.000 HD
BRANCH   9  12
ATOM     12  C   UNL     1      46.217   2.386   7.712  0.00  0.00    +0.000 A 
ATOM     13  C   UNL     1      46.403   3.132   6.564  0.00  0.00    +0.000 A 
ATOM     14  C   UNL     1      47.404   2.457   5.843  0.00  0.00    +0.000 A 
ATOM     15  N   UNL     1      47.815   1.351   6.462  0.00  0.00    +0.000 NA
ATOM     16  N   UNL     1      47.079   1.327   7.588  0.00  0.00    +0.000 N 
ATOM     17  H   UNL     1      47.207   0.562   8.244  0.00  0.00    +0.000 HD
ENDBRANCH   9  12
ENDBRANCH   7   8
BRANCH   7  18
ATOM     18  C   UNL     1      43.400   4.565  10.541  0.00  0.00    +0.000 C 
BRANCH  18  19
ATOM     19  N   UNL     1      42.603   4.771  11.758  0.00  0.00    +0.000 NA
ATOM     20  H   UNL     1      42.199   3.879  12.042  0.00  0.00    +0.000 HD
ATOM     21  H   UNL     1      41.817   5.389  11.555  0.00  0.00    +0.000 HD
ENDBRANCH  18  19
ENDBRANCH   7  18
ENDBRANCH   1   7
BRANCH   4  22
ATOM     22  C   UNL     1      48.215   7.785  13.790  0.00  0.00    +0.000 C 
BRANCH  22  23
ATOM     23  N   UNL     1      48.056   7.621  15.212  0.00  0.00    +0.000 N 
ATOM     24  C   UNL     1      49.047   7.061  15.979  0.00  0.00    +0.000 C 
ATOM     25  O   UNL     1      50.121   6.708  15.500  0.00  0.00    +0.000 OA
ATOM     26  H   UNL     1      47.112   7.680  15.582  0.00  0.00    +0.000 HD
BRANCH  24  27
ATOM     27  C   UNL     1      48.781   6.964  17.421  0.00  0.00    +0.000 A 
ATOM     28  C   UNL     1      48.466   8.110  18.141  0.00  0.00    +0.000 A 
ATOM     29  S   UNL     1      48.127   7.813  19.785  0.00  0.00    +0.000 S 
ATOM     30  C   UNL     1      48.445   6.151  19.608  0.00  0.00    +0.000 A 
ATOM     31  N   UNL     1      48.362   5.306  20.669  0.00  0.00    +0.000 NA
ATOM     32  C   UNL     1      48.663   4.079  20.401  0.00  0.00    +0.000 A 
ATOM     33  N   UNL     1      49.034   3.619  19.163  0.00  0.00    +0.000 N 
ATOM     34  C   UNL     1      49.100   4.430  18.055  0.00  0.00    +0.000 A 
ATOM     35  O   UNL     1      49.388   3.975  16.952  0.00  0.00    +0.000 OA
ATOM     36  C   UNL     1      48.785   5.823  18.306  0.00  0.00    +0.000 A 
ATOM     37  H   UNL     1      49.253   2.645  19.020  0.00  0.00    +0.000 HD
ENDBRANCH  24  27
ENDBRANCH  22  23
ENDBRANCH   4  22
TORSDOF 8
ENDMDL
MODEL 3
REMARK VINA RESULT:    -7.808      2.308      3.469
REMARK INTER + INTRA:         -12.329
REMARK INTER:                 -11.315
REMARK INTRA:                  -1.015
REMARK UNBOUND:                -1.098
REMARK  Name = 
REMARK  8 active torsions:
REMARK  status: ('A' for Active; 'I' for Inactive)
REMARK    1  A    between atoms: N_1  and  C_2
REMARK    2  A    between atoms: C_2  and  C_3
REMARK    3  A    between atoms: C_3  and  N_4
REMARK    4  A    between atoms: C_3  and  C_12
REMARK    5  A    between atoms: C_5  and  C_7
REMARK    6  A    between atoms: C_15  and  C_16
REMARK    7  A    between atoms: C_16  and  N_17
REMARK    8  A    between atoms: C_18  and  C_20
REMARK                            x       y       z     vdW  Elec       q    Type
REMARK                         _______ _______ _______ _____ _____    ______ ____
ROOT
ATOM      1  C   UNL     1      45.647   4.750  11.853  0.00  0.00    +0.000 A 
ATOM      2  C   UNL     1      46.058   4.217  13.084  0.00  0.00    +0.000 A 
ATOM      3  C   UNL     1      46.837   4.972  13.970  0.00  0.00    +0.000 A 
ATOM      4  C   UNL     1      47.218   6.281  13.649  0.00  0.00    +0.000 A 
ATOM      5  C   UNL     1      46.845   6.801  12.403  0.00  0.00    +0.000 A 
ATOM      6  C   UNL     1      46.066   6.048  11.519  0.00  0.00    +0.000 A 
ENDROOT
BRANCH   1   7
ATOM      7  C   UNL     1      44.765   3.932  10.911  0.00  0.00    +0.000 C 
BRANCH   7   8
ATOM      8  N   UNL     1      45.520   3.651   9.694  0.00  0.00    +0.000 N 
ATOM      9  C   UNL     1      45.336   2.518   8.940  0.00  0.00    +0.000 C 
ATOM     10  O   UNL     1      44.475   1.683   9.181  0.00  0.00    +0.000 OA
ATOM     11  H   UNL     1      46.302   4.255   9.488  0.00  0.00    +0.000 HD
BRANCH   9  12
ATOM     12  C   UNL     1      46.245   2.382   7.831  0.00  0.00    +0.000 A 
ATOM     13  C   UNL     1      46.583   3.205   6.773  0.00  0.00    +0.000 A 
ATOM     14  C   UNL     1      47.563   2.497   6.054  0.00  0.00    +0.000 A 
ATOM     15  N   UNL     1      47.820   1.304   6.588  0.00  0.00    +0.000 NA
ATOM     16  N   UNL     1      47.007   1.255   7.659  0.00  0.00    +0.000 N 
ATOM     17  H   UNL     1      47.015   0.426   8.246  0.00  0.00    +0.000 HD
ENDBRANCH   9  12
ENDBRANCH   7   8
BRANCH   7  18
ATOM     18  C   UNL     1      43.410   4.648  10.609  0.00  0.00    +0.000 C 
BRANCH  18  19
ATOM     19  N   UNL     1      42.529   4.805  11.775  0.00  0.00    +0.000 NA
ATOM     20  H   UNL     1      42.080   5.719  11.729  0.00  0.00    +0.000 HD
ATOM     21  H   UNL     1      43.086   4.803  12.630  0.00  0.00    +0.000 HD
ENDBRANCH  18  19
ENDBRANCH   7  18
ENDBRANCH   1   7
BRANCH   4  22
ATOM     22  C   UNL     1      48.035   7.115  14.602  0.00  0.00    +0.000 C 
BRANCH  22  23
ATOM     23  N   UNL     1      49.109   6.350  15.182  0.00  0.00    +0.000 N 
ATOM     24  C   UNL     1      49.170   6.120  16.533  0.00  0.00    +0.000 C 
ATOM     25  O   UNL     1      48.303   6.522  17.303  0.00  0.00    +0.000 OA
ATOM     26  H   UNL     1      49.940   6.217  14.615  0.00  0.00    +0.000 HD
BRANCH  24  27
ATOM     27  C   UNL     1      50.300   5.307  17.007  0.00  0.00    +0.000 A 
ATOM     28  C   UNL     1      51.463   5.932  17.439  0.00  0.00    +0.000 A 
ATOM     29  S   UNL     1      52.648   4.849  18.012  0.00  0.00    +0.000 S 
ATOM     30  C   UNL     1      51.674   3.503  17.648  0.00  0.00    +0.000 A 
ATOM     31  N   UNL     1      52.116   2.237  17.874  0.00  0.00    +0.000 NA
ATOM     32  C   UNL     1      51.289   1.311  17.520  0.00  0.00    +0.000 A 
ATOM     33  N   UNL     1      50.055   1.535  16.964  0.00  0.00    +0.000 N 
ATOM     34  C   UNL     1      49.554   2.797  16.748  0.00  0.00    +0.000 A 
ATOM     35  O   UNL     1      48.425   2.962  16.295  0.00  0.00    +0.000 OA
ATOM     36  C   UNL     1      50.450   3.876  17.116  0.00  0.00    +0.000 A 
ATOM     37  H   UNL     1      49.455   0.765  16.714  0.00  0.00    +0.000 HD
ENDBRANCH  24  27
ENDBRANCH  22  23
ENDBRANCH   4  22
TORSDOF 8
ENDMDL
MODEL 4
REMARK VINA RESULT:    -7.161      2.770      4.017
REMARK INTER + INTRA:         -11.399
REMARK INTER:                 -10.303
REMARK INTRA:                  -1.096
REMARK UNBOUND:                -1.098
REMARK  Name = 
REMARK  8 active torsions:
REMARK  status: ('A' for Active; 'I' for Inactive)
REMARK    1  A    between atoms: N_1  and  C_2
REMARK    2  A    between atoms: C_2  and  C_3
REMARK    3  A    between atoms: C_3  and  N_4
REMARK    4  A    between atoms: C_3  and  C_12
REMARK    5  A    between atoms: C_5  and  C_7
REMARK    6  A    between atoms: C_15  and  C_16
REMARK    7  A    between atoms: C_16  and  N_17
REMARK    8  A    between atoms: C_18  and  C_20
REMARK                            x       y       z     vdW  Elec       q    Type
REMARK                         _______ _______ _______ _____ _____    ______ ____
ROOT
ATOM      1  C   UNL     1      45.277   4.266  12.007  0.00  0.00    +0.000 A 
ATOM      2  C   UNL     1      45.433   5.595  12.432  0.00  0.00    +0.000 A 
ATOM      3  C   UNL     1      46.264   5.910  13.515  0.00  0.00    +0.000 A 
ATOM      4  C   UNL     1      46.964   4.905  14.195  0.00  0.00    +0.000 A 
ATOM      5  C   UNL     1      46.776   3.574  13.800  0.00  0.00    +0.000 A 
ATOM      6  C   UNL     1      45.948   3.259  12.719  0.00  0.00    +0.000 A 
ENDROOT
BRANCH   1   7
ATOM      7  C   UNL     1      44.399   3.937  10.801  0.00  0.00    +0.000 C 
BRANCH   7   8
ATOM      8  N   UNL     1      45.263   3.645   9.662  0.00  0.00    +0.000 N 
ATOM      9  C   UNL     1      45.219   2.461   8.969  0.00  0.00    +0.000 C 
ATOM     10  O   UNL     1      44.403   1.578   9.199  0.00  0.00    +0.000 OA
ATOM     11  H   UNL     1      46.013   4.294   9.476  0.00  0.00    +0.000 HD
BRANCH   9  12
ATOM     12  C   UNL     1      46.218   2.330   7.940  0.00  0.00    +0.000 A 
ATOM     13  C   UNL     1      46.760   3.214   7.025  0.00  0.00    +0.000 A 
ATOM     14  C   UNL     1      47.720   2.469   6.317  0.00  0.00    +0.000 A 
ATOM     15  N   UNL     1      47.778   1.201   6.724  0.00  0.00    +0.000 NA
ATOM     16  N   UNL     1      46.856   1.141   7.702  0.00  0.00    +0.000 N 
ATOM     17  H   UNL     1      46.705   0.258   8.182  0.00  0.00    +0.000 HD
ENDBRANCH   9  12
ENDBRANCH   7   8
BRANCH   7  18
ATOM     18  C   UNL     1      43.382   5.080  10.488  0.00  0.00    +0.000 C 
BRANCH  18  19
ATOM     19  N   UNL     1      42.221   5.128  11.390  0.00  0.00    +0.000 NA
ATOM     20  H   UNL     1      41.474   5.653  10.938  0.00  0.00    +0.000 HD
ATOM     21  H   UNL     1      42.463   5.647  12.235  0.00  0.00    +0.000 HD
ENDBRANCH  18  19
ENDBRANCH   7  18
ENDBRANCH   1   7
BRANCH   4  22
ATOM     22  C   UNL     1      47.880   5.231  15.346  0.00  0.00    +0.000 C 
BRANCH  22  23
ATOM     23  N   UNL     1      48.405   6.568  15.238  0.00  0.00    +0.000 N 
ATOM     24  C   UNL     1      49.661   6.879  15.696  0.00  0.00    +0.000 C 
ATOM     25  O   UNL     1      50.404   6.033  16.185  0.00  0.00    +0.000 OA
ATOM     26  H   UNL     1      47.739   7.313  15.063  0.00  0.00    +0.000 HD
BRANCH  24  27
ATOM     27  C   UNL     1      50.097   8.270  15.511  0.00  0.00    +0.000 A 
ATOM     28  C   UNL     1      50.479   9.023  16.614  0.00  0.00    +0.000 A 
ATOM     29  S   UNL     1      51.015  10.593  16.219  0.00  0.00    +0.000 S 
ATOM     30  C   UNL     1      50.701  10.342  14.566  0.00  0.00    +0.000 A 
ATOM     31  N   UNL     1      50.921  11.327  13.655  0.00  0.00    +0.000 NA
ATOM     32  C   UNL     1      50.608  11.014  12.442  0.00  0.00    +0.000 A 
ATOM     33  N   UNL     1      50.099   9.800  12.055  0.00  0.00    +0.000 N 
ATOM     34  C   UNL     1      49.891   8.765  12.935  0.00  0.00    +0.000 A 
ATOM     35  O   UNL     1      49.480   7.675  12.547  0.00  0.00    +0.000 OA
ATOM     36  C   UNL     1      50.214   9.070  14.316  0.00  0.00    +0.000 A 
ATOM     37  H   UNL     1      49.878   9.619  11.089  0.00  0.00    +0.000 HD
ENDBRANCH  24  27
ENDBRANCH  22  23
ENDBRANCH   4  22
TORSDOF 8
ENDMDL
MODEL 5
REMARK VINA RESULT:    -7.141      3.761      5.460
REMARK INTER + INTRA:         -11.370
REMARK INTER:                 -10.283
REMARK INTRA:                  -1.088
REMARK UNBOUND:                -1.098
REMARK  Name = 
REMARK  8 active torsions:
REMARK  status: ('A' for Active; 'I' for Inactive)
REMARK    1  A    between atoms: N_1  and  C_2
REMARK    2  A    between atoms: C_2  and  C_3
REMARK    3  A    between atoms: C_3  and  N_4
REMARK    4  A    between atoms: C_3  and  C_12
REMARK    5  A    between atoms: C_5  and  C_7
REMARK    6  A    between atoms: C_15  and  C_16
REMARK    7  A    between atoms: C_16  and  N_17
REMARK    8  A    between atoms: C_18  and  C_20
REMARK                            x       y       z     vdW  Elec       q    Type
REMARK                         _______ _______ _______ _____ _____    ______ ____
ROOT
ATOM      1  C   UNL     1      47.535   5.857  14.434  0.00  0.00    +0.000 A 
ATOM      2  C   UNL     1      48.281   6.264  15.551  0.00  0.00    +0.000 A 
ATOM      3  C   UNL     1      48.476   5.401  16.637  0.00  0.00    +0.000 A 
ATOM      4  C   UNL     1      47.936   4.109  16.630  0.00  0.00    +0.000 A 
ATOM      5  C   UNL     1      47.155   3.716  15.535  0.00  0.00    +0.000 A 
ATOM      6  C   UNL     1      46.961   4.575  14.450  0.00  0.00    +0.000 A 
ENDROOT
BRANCH   1   7
ATOM      7  C   UNL     1      47.361   6.791  13.237  0.00  0.00    +0.000 C 
BRANCH   7   8
ATOM      8  N   UNL     1      46.879   6.009  12.103  0.00  0.00    +0.000 N 
ATOM      9  C   UNL     1      45.686   6.259  11.470  0.00  0.00    +0.000 C 
ATOM     10  O   UNL     1      44.960   7.203  11.754  0.00  0.00    +0.000 OA
ATOM     11  H   UNL     1      47.387   5.168  11.875  0.00  0.00    +0.000 HD
BRANCH   9  12
ATOM     12  C   UNL     1      45.347   5.317  10.436  0.00  0.00    +0.000 A 
ATOM     13  C   UNL     1      44.563   4.178  10.408  0.00  0.00    +0.000 A 
ATOM     14  C   UNL     1      44.615   3.727   9.076  0.00  0.00    +0.000 A 
ATOM     15  N   UNL     1      45.389   4.497   8.311  0.00  0.00    +0.000 NA
ATOM     16  N   UNL     1      45.824   5.448   9.157  0.00  0.00    +0.000 N 
ATOM     17  H   UNL     1      46.446   6.172   8.807  0.00  0.00    +0.000 HD
ENDBRANCH   9  12
ENDBRANCH   7   8
BRANCH   7  18
ATOM     18  C   UNL     1      48.675   7.564  12.902  0.00  0.00    +0.000 C 
BRANCH  18  19
ATOM     19  N   UNL     1      49.796   6.709  12.484  0.00  0.00    +0.000 NA
ATOM     20  H   UNL     1      50.278   7.154  11.704  0.00  0.00    +0.000 HD
ATOM     21  H   UNL     1      49.439   5.821  12.131  0.00  0.00    +0.000 HD
ENDBRANCH  18  19
ENDBRANCH   7  18
ENDBRANCH   1   7
BRANCH   4  22
ATOM     22  C   UNL     1      48.157   3.161  17.780  0.00  0.00    +0.000 C 
BRANCH  22  23
ATOM     23  N   UNL     1      49.561   2.954  18.028  0.00  0.00    +0.000 N 
ATOM     24  C   UNL     1      50.323   2.173  17.197  0.00  0.00    +0.000 C 
ATOM     25  O   UNL     1      49.858   1.644  16.191  0.00  0.00    +0.000 OA
ATOM     26  H   UNL     1      49.904   3.176  18.958  0.00  0.00    +0.000 HD
BRANCH  24  27
ATOM     27  C   UNL     1      51.748   2.053  17.538  0.00  0.00    +0.000 A 
ATOM     28  C   UNL     1      52.312   0.795  17.703  0.00  0.00    +0.000 A 
ATOM     29  S   UNL     1      53.984   0.833  18.034  0.00  0.00    +0.000 S 
ATOM     30  C   UNL     1      54.002   2.534  18.027  0.00  0.00    +0.000 A 
ATOM     31  N   UNL     1      55.148   3.222  18.276  0.00  0.00    +0.000 NA
ATOM     32  C   UNL     1      55.012   4.506  18.274  0.00  0.00    +0.000 A 
ATOM     33  N   UNL     1      53.833   5.166  18.038  0.00  0.00    +0.000 N 
ATOM     34  C   UNL     1      52.659   4.513  17.749  0.00  0.00    +0.000 A 
ATOM     35  O   UNL     1      51.632   5.137  17.494  0.00  0.00    +0.000 OA
ATOM     36  C   UNL     1      52.753   3.066  17.753  0.00  0.00    +0.000 A 
ATOM     37  H   UNL     1      53.796   6.173  18.046  0.00  0.00    +0.000 HD
ENDBRANCH  24  27
ENDBRANCH  22  23
ENDBRANCH   4  22
TORSDOF 8
ENDMDL
MODEL 6
REMARK VINA RESULT:    -7.075      3.983      9.279
REMARK INTER + INTRA:         -11.275
REMARK INTER:                 -10.087
REMARK INTRA:                  -1.188
REMARK UNBOUND:                -1.098
REMARK  Name = 
REMARK  8 active torsions:
REMARK  status: ('A' for Active; 'I' for Inactive)
REMARK    1  A    between atoms: N_1  and  C_2
REMARK    2  A    between atoms: C_2  and  C_3
REMARK    3  A    between atoms: C_3  and  N_4
REMARK    4  A    between atoms: C_3  and  C_12
REMARK    5  A    between atoms: C_5  and  C_7
REMARK    6  A    between atoms: C_15  and  C_16
REMARK    7  A    between atoms: C_16  and  N_17
REMARK    8  A    between atoms: C_18  and  C_20
REMARK                            x       y       z     vdW  Elec       q    Type
REMARK                         _______ _______ _______ _____ _____    ______ ____
ROOT
ATOM      1  C   UNL     1      49.233   5.644  17.413  0.00  0.00    +0.000 A 
ATOM      2  C   UNL     1      48.287   5.009  16.593  0.00  0.00    +0.000 A 
ATOM      3  C   UNL     1      47.994   5.506  15.317  0.00  0.00    +0.000 A 
ATOM      4  C   UNL     1      48.644   6.646  14.827  0.00  0.00    +0.000 A 
ATOM      5  C   UNL     1      49.557   7.306  15.659  0.00  0.00    +0.000 A 
ATOM      6  C   UNL     1      49.851   6.810  16.933  0.00  0.00    +0.000 A 
ENDROOT
BRANCH   1   7
ATOM      7  C   UNL     1      49.574   5.071  18.788  0.00  0.00    +0.000 C 
BRANCH   7   8
ATOM      8  N   UNL     1      50.405   3.886  18.606  0.00  0.00    +0.000 N 
ATOM      9  C   UNL     1      51.768   3.941  18.446  0.00  0.00    +0.000 C 
ATOM     10  O   UNL     1      52.411   4.981  18.516  0.00  0.00    +0.000 OA
ATOM     11  H   UNL     1      49.930   3.010  18.454  0.00  0.00    +0.000 HD
BRANCH   9  12
ATOM     12  C   UNL     1      52.393   2.671  18.184  0.00  0.00    +0.000 A 
ATOM     13  C   UNL     1      53.693   2.291  17.906  0.00  0.00    +0.000 A 
ATOM     14  C   UNL     1      53.650   0.890  17.784  0.00  0.00    +0.000 A 
ATOM     15  N   UNL     1      52.420   0.406  17.945  0.00  0.00    +0.000 NA
ATOM     16  N   UNL     1      51.676   1.502  18.181  0.00  0.00    +0.000 N 
ATOM     17  H   UNL     1      50.678   1.396  18.339  0.00  0.00    +0.000 HD
ENDBRANCH   9  12
ENDBRANCH   7   8
BRANCH   7  18
ATOM     18  C   UNL     1      48.294   4.767  19.629  0.00  0.00    +0.000 C 
BRANCH  18  19
ATOM     19  N   UNL     1      48.472   3.737  20.662  0.00  0.00    +0.000 NA
ATOM     20  H   UNL     1      48.547   2.826  20.211  0.00  0.00    +0.000 HD
ATOM     21  H   UNL     1      47.642   3.695  21.254  0.00  0.00    +0.000 HD
ENDBRANCH  18  19
ENDBRANCH   7  18
ENDBRANCH   1   7
BRANCH   4  22
ATOM     22  C   UNL     1      48.358   7.179  13.447  0.00  0.00    +0.000 C 
BRANCH  22  23
ATOM     23  N   UNL     1      47.566   6.251  12.680  0.00  0.00    +0.000 N 
ATOM     24  C   UNL     1      46.547   6.685  11.869  0.00  0.00    +0.000 C 
ATOM     25  O   UNL     1      46.285   7.877  11.734  0.00  0.00    +0.000 OA
ATOM     26  H   UNL     1      47.605   5.274  12.952  0.00  0.00    +0.000 HD
BRANCH  24  27
ATOM     27  C   UNL     1      45.824   5.650  11.118  0.00  0.00    +0.000 A 
ATOM     28  C   UNL     1      45.889   5.634   9.731  0.00  0.00    +0.000 A 
ATOM     29  S   UNL     1      45.045   4.334   9.021  0.00  0.00    +0.000 S 
ATOM     30  C   UNL     1      44.513   3.779  10.539  0.00  0.00    +0.000 A 
ATOM     31  N   UNL     1      43.707   2.689  10.641  0.00  0.00    +0.000 NA
ATOM     32  C   UNL     1      43.350   2.400  11.848  0.00  0.00    +0.000 A 
ATOM     33  N   UNL     1      43.732   3.099  12.965  0.00  0.00    +0.000 N 
ATOM     34  C   UNL     1      44.572   4.186  12.912  0.00  0.00    +0.000 A 
ATOM     35  O   UNL     1      44.933   4.759  13.936  0.00  0.00    +0.000 OA
ATOM     36  C   UNL     1      44.991   4.563  11.576  0.00  0.00    +0.000 A 
ATOM     37  H   UNL     1      43.421   2.817  13.881  0.00  0.00    +0.000 HD
ENDBRANCH  24  27
ENDBRANCH  22  23
ENDBRANCH   4  22
TORSDOF 8
ENDMDL
MODEL 7
REMARK VINA RESULT:    -6.892      1.557      2.035
REMARK INTER + INTRA:         -11.012
REMARK INTER:                 -10.057
REMARK INTRA:                  -0.955
REMARK UNBOUND:                -1.098
REMARK  Name = 
REMARK  8 active torsions:
REMARK  status: ('A' for Active; 'I' for Inactive)
REMARK    1  A    between atoms: N_1  and  C_2
REMARK    2  A    between atoms: C_2  and  C_3
REMARK    3  A    between atoms: C_3  and  N_4
REMARK    4  A    between atoms: C_3  and  C_12
REMARK    5  A    between atoms: C_5  and  C_7
REMARK    6  A    between atoms: C_15  and  C_16
REMARK    7  A    between atoms: C_16  and  N_17
REMARK    8  A    between atoms: C_18  and  C_20
REMARK                            x       y       z     vdW  Elec       q    Type
REMARK                         _______ _______ _______ _____ _____    ______ ____
ROOT
ATOM      1  C   UNL     1      45.809   4.679  12.124  0.00  0.00    +0.000 A 
ATOM      2  C   UNL     1      46.211   4.279  13.408  0.00  0.00    +0.000 A 
ATOM      3  C   UNL     1      47.044   5.095  14.185  0.00  0.00    +0.000 A 
ATOM      4  C   UNL     1      47.487   6.332  13.701  0.00  0.00    +0.000 A 
ATOM      5  C   UNL     1      47.121   6.713  12.404  0.00  0.00    +0.000 A 
ATOM      6  C   UNL     1      46.290   5.901  11.627  0.00  0.00    +0.000 A 
ENDROOT
BRANCH   1   7
ATOM      7  C   UNL     1      44.869   3.799  11.299  0.00  0.00    +0.000 C 
BRANCH   7   8
ATOM      8  N   UNL     1      45.474   3.575   9.989  0.00  0.00    +0.000 N 
ATOM      9  C   UNL     1      45.201   2.474   9.215  0.00  0.00    +0.000 C 
ATOM     10  O   UNL     1      44.374   1.625   9.521  0.00  0.00    +0.000 OA
ATOM     11  H   UNL     1      46.225   4.191   9.717  0.00  0.00    +0.000 HD
BRANCH   9  12
ATOM     12  C   UNL     1      45.971   2.390   8.001  0.00  0.00    +0.000 A 
ATOM     13  C   UNL     1      46.886   1.473   7.518  0.00  0.00    +0.000 A 
ATOM     14  C   UNL     1      47.254   1.953   6.248  0.00  0.00    +0.000 A 
ATOM     15  N   UNL     1      46.645   3.099   5.944  0.00  0.00    +0.000 NA
ATOM     16  N   UNL     1      45.878   3.345   7.021  0.00  0.00    +0.000 N 
ATOM     17  H   UNL     1      45.303   4.183   7.036  0.00  0.00    +0.000 HD
ENDBRANCH   9  12
ENDBRANCH   7   8
BRANCH   7  18
ATOM     18  C   UNL     1      43.439   4.416  11.187  0.00  0.00    +0.000 C 
BRANCH  18  19
ATOM     19  N   UNL     1      43.247   5.308  10.035  0.00  0.00    +0.000 NA
ATOM     20  H   UNL     1      42.658   6.090  10.318  0.00  0.00    +0.000 HD
ATOM     21  H   UNL     1      42.736   4.818   9.301  0.00  0.00    +0.000 HD
ENDBRANCH  18  19
ENDBRANCH   7  18
ENDBRANCH   1   7
BRANCH   4  22
ATOM     22  C   UNL     1      48.363   7.231  14.535  0.00  0.00    +0.000 C 
BRANCH  22  23
ATOM     23  N   UNL     1      48.909   6.529  15.668  0.00  0.00    +0.000 N 
ATOM     24  C   UNL     1      50.182   6.780  16.114  0.00  0.00    +0.000 C 
ATOM     25  O   UNL     1      50.899   7.631  15.596  0.00  0.00    +0.000 OA
ATOM     26  H   UNL     1      48.439   5.676  15.953  0.00  0.00    +0.000 HD
BRANCH  24  27
ATOM     27  C   UNL     1      50.623   6.019  17.291  0.00  0.00    +0.000 A 
ATOM     28  C   UNL     1      51.818   5.313  17.247  0.00  0.00    +0.000 A 
ATOM     29  S   UNL     1      52.211   4.537  18.713  0.00  0.00    +0.000 S 
ATOM     30  C   UNL     1      50.769   5.068  19.443  0.00  0.00    +0.000 A 
ATOM     31  N   UNL     1      50.464   4.722  20.722  0.00  0.00    +0.000 NA
ATOM     32  C   UNL     1      49.324   5.164  21.139  0.00  0.00    +0.000 A 
ATOM     33  N   UNL     1      48.463   5.928  20.392  0.00  0.00    +0.000 N 
ATOM     34  C   UNL     1      48.744   6.328  19.108  0.00  0.00    +0.000 A 
ATOM     35  O   UNL     1      47.972   7.052  18.486  0.00  0.00    +0.000 OA
ATOM     36  C   UNL     1      50.008   5.846  18.586  0.00  0.00    +0.000 A 
ATOM     37  H   UNL     1      47.588   6.244  20.780  0.00  0.00    +0.000 HD
ENDBRANCH  24  27
ENDBRANCH  22  23
ENDBRANCH   4  22
TORSDOF 8
ENDMDL
MODEL 8
REMARK VINA RESULT:    -6.889      1.701      2.104
REMARK INTER + INTRA:         -11.007
REMARK INTER:                 -10.164
REMARK INTRA:                  -0.843
REMARK UNBOUND:                -1.098
REMARK  Name = 
REMARK  8 active torsions:
REMARK  status: ('A' for Active; 'I' for Inactive)
REMARK    1  A    between atoms: N_1  and  C_2
REMARK    2  A    between atoms: C_2  and  C_3
REMARK    3  A    between atoms: C_3  and  N_4
REMARK    4  A    between atoms: C_3  and  C_12
REMARK    5  A    between atoms: C_5  and  C_7
REMARK    6  A    between atoms: C_15  and  C_16
REMARK    7  A    between atoms: C_16  and  N_17
REMARK    8  A    between atoms: C_18  and  C_20
REMARK                            x       y       z     vdW  Elec       q    Type
REMARK                         _______ _______ _______ _____ _____    ______ ____
ROOT
ATOM      1  C   UNL     1      45.152   4.441  12.039  0.00  0.00    +0.000 A 
ATOM      2  C   UNL     1      45.470   5.651  12.674  0.00  0.00    +0.000 A 
ATOM      3  C   UNL     1      46.347   5.680  13.767  0.00  0.00    +0.000 A 
ATOM      4  C   UNL     1      46.931   4.501  14.245  0.00  0.00    +0.000 A 
ATOM      5  C   UNL     1      46.582   3.287  13.640  0.00  0.00    +0.000 A 
ATOM      6  C   UNL     1      45.709   3.257  12.549  0.00  0.00    +0.000 A 
ENDROOT
BRANCH   1   7
ATOM      7  C   UNL     1      44.225   4.425  10.824  0.00  0.00    +0.000 C 
BRANCH   7   8
ATOM      8  N   UNL     1      45.006   4.052   9.648  0.00  0.00    +0.000 N 
ATOM      9  C   UNL     1      44.991   2.791   9.105  0.00  0.00    +0.000 C 
ATOM     10  O   UNL     1      44.268   1.892   9.514  0.00  0.00    +0.000 OA
ATOM     11  H   UNL     1      45.685   4.720   9.316  0.00  0.00    +0.000 HD
BRANCH   9  12
ATOM     12  C   UNL     1      45.902   2.600   8.006  0.00  0.00    +0.000 A 
ATOM     13  C   UNL     1      46.282   3.393   6.939  0.00  0.00    +0.000 A 
ATOM     14  C   UNL     1      47.238   2.634   6.238  0.00  0.00    +0.000 A 
ATOM     15  N   UNL     1      47.441   1.440   6.792  0.00  0.00    +0.000 NA
ATOM     16  N   UNL     1      46.619   1.441   7.857  0.00  0.00    +0.000 N 
ATOM     17  H   UNL     1      46.587   0.621   8.457  0.00  0.00    +0.000 HD
ENDBRANCH   9  12
ENDBRANCH   7   8
BRANCH   7  18
ATOM     18  C   UNL     1      43.489   5.788  10.631  0.00  0.00    +0.000 C 
BRANCH  18  19
ATOM     19  N   UNL     1      42.272   5.944  11.442  0.00  0.00    +0.000 NA
ATOM     20  H   UNL     1      42.387   5.427  12.313  0.00  0.00    +0.000 HD
ATOM     21  H   UNL     1      41.480   5.520  10.960  0.00  0.00    +0.000 HD
ENDBRANCH  18  19
ENDBRANCH   7  18
ENDBRANCH   1   7
BRANCH   4  22
ATOM     22  C   UNL     1      47.895   4.519  15.404  0.00  0.00    +0.000 C 
BRANCH  22  23
ATOM     23  N   UNL     1      47.804   5.752  16.143  0.00  0.00    +0.000 N 
ATOM     24  C   UNL     1      48.924   6.491  16.435  0.00  0.00    +0.000 C 
ATOM     25  O   UNL     1      50.042   6.158  16.054  0.00  0.00    +0.000 OA
ATOM     26  H   UNL     1      46.948   5.919  16.661  0.00  0.00    +0.000 HD
BRANCH  24  27
ATOM     27  C   UNL     1      48.706   7.742  17.174  0.00  0.00    +0.000 A 
ATOM     28  C   UNL     1      48.611   8.943  16.483  0.00  0.00    +0.000 A 
ATOM     29  S   UNL     1      48.297  10.286  17.485  0.00  0.00    +0.000 S 
ATOM     30  C   UNL     1      48.336   9.320  18.885  0.00  0.00    +0.000 A 
ATOM     31  N   UNL     1      48.163   9.868  20.117  0.00  0.00    +0.000 NA
ATOM     32  C   UNL     1      48.251   9.027  21.093  0.00  0.00    +0.000 A 
ATOM     33  N   UNL     1      48.491   7.684  20.948  0.00  0.00    +0.000 N 
ATOM     34  C   UNL     1      48.639   7.082  19.722  0.00  0.00    +0.000 A 
ATOM     35  O   UNL     1      48.804   5.869  19.626  0.00  0.00    +0.000 OA
ATOM     36  C   UNL     1      48.564   7.986  18.590  0.00  0.00    +0.000 A 
ATOM     37  H   UNL     1      48.543   7.081  21.753  0.00  0.00    +0.000 HD
ENDBRANCH  24  27
ENDBRANCH  22  23
ENDBRANCH   4  22
TORSDOF 8
ENDMDL
MODEL 9
REMARK VINA RESULT:    -6.788      3.089      3.887
REMARK INTER + INTRA:         -10.862
REMARK INTER:                  -9.667
REMARK INTRA:                  -1.195
REMARK UNBOUND:                -1.098
REMARK  Name = 
REMARK  8 active torsions:
REMARK  status: ('A' for Active; 'I' for Inactive)
REMARK    1  A    between atoms: N_1  and  C_2
REMARK    2  A    between atoms: C_2  and  C_3
REMARK    3  A    between atoms: C_3  and  N_4
REMARK    4  A    between atoms: C_3  and  C_12
REMARK    5  A    between atoms: C_5  and  C_7
REMARK    6  A    between atoms: C_15  and  C_16
REMARK    7  A    between atoms: C_16  and  N_17
REMARK    8  A    between atoms: C_18  and  C_20
REMARK                            x       y       z     vdW  Elec       q    Type
REMARK                         _______ _______ _______ _____ _____    ______ ____
ROOT
ATOM      1  C   UNL     1      46.276   7.892  12.150  0.00  0.00    +0.000 A 
ATOM      2  C   UNL     1      47.351   7.086  11.744  0.00  0.00    +0.000 A 
ATOM      3  C   UNL     1      48.661   7.383  12.141  0.00  0.00    +0.000 A 
ATOM      4  C   UNL     1      48.927   8.489  12.960  0.00  0.00    +0.000 A 
ATOM      5  C   UNL     1      47.861   9.318  13.331  0.00  0.00    +0.000 A 
ATOM      6  C   UNL     1      46.553   9.022  12.936  0.00  0.00    +0.000 A 
ENDROOT
BRANCH   1   7
ATOM      7  C   UNL     1      44.846   7.538  11.744  0.00  0.00    +0.000 C 
BRANCH   7   8
ATOM      8  N   UNL     1      44.883   6.342  10.908  0.00  0.00    +0.000 N 
ATOM      9  C   UNL     1      43.885   5.399  10.902  0.00  0.00    +0.000 C 
ATOM     10  O   UNL     1      42.847   5.515  11.540  0.00  0.00    +0.000 OA
ATOM     11  H   UNL     1      45.746   6.145  10.425  0.00  0.00    +0.000 HD
BRANCH   9  12
ATOM     12  C   UNL     1      44.154   4.247  10.080  0.00  0.00    +0.000 A 
ATOM     13  C   UNL     1      44.312   2.901  10.354  0.00  0.00    +0.000 A 
ATOM     14  C   UNL     1      44.523   2.293   9.104  0.00  0.00    +0.000 A 
ATOM     15  N   UNL     1      44.527   3.175   8.106  0.00  0.00    +0.000 NA
ATOM     16  N   UNL     1      44.306   4.351   8.722  0.00  0.00    +0.000 N 
ATOM     17  H   UNL     1      44.265   5.199   8.164  0.00  0.00    +0.000 HD
ENDBRANCH   9  12
ENDBRANCH   7   8
BRANCH   7  18
ATOM     18  C   UNL     1      44.128   8.729  11.033  0.00  0.00    +0.000 C 
BRANCH  18  19
ATOM     19  N   UNL     1      42.663   8.619  10.986  0.00  0.00    +0.000 NA
ATOM     20  H   UNL     1      42.278   9.493  10.631  0.00  0.00    +0.000 HD
ATOM     21  H   UNL     1      42.295   8.508  11.931  0.00  0.00    +0.000 HD
ENDBRANCH  18  19
ENDBRANCH   7  18
ENDBRANCH   1   7
BRANCH   4  22
ATOM     22  C   UNL     1      50.328   8.807  13.415  0.00  0.00    +0.000 C 
BRANCH  22  23
ATOM     23  N   UNL     1      50.861   7.757  14.245  0.00  0.00    +0.000 N 
ATOM     24  C   UNL     1      50.800   7.832  15.614  0.00  0.00    +0.000 C 
ATOM     25  O   UNL     1      50.263   8.772  16.192  0.00  0.00    +0.000 OA
ATOM     26  H   UNL     1      51.506   7.106  13.809  0.00  0.00    +0.000 HD
BRANCH  24  27
ATOM     27  C   UNL     1      51.357   6.692  16.355  0.00  0.00    +0.000 A 
ATOM     28  C   UNL     1      52.727   6.619  16.579  0.00  0.00    +0.000 A 
ATOM     29  S   UNL     1      53.198   5.269  17.506  0.00  0.00    +0.000 S 
ATOM     30  C   UNL     1      51.597   4.701  17.592  0.00  0.00    +0.000 A 
ATOM     31  N   UNL     1      51.300   3.542  18.239  0.00  0.00    +0.000 NA
ATOM     32  C   UNL     1      50.052   3.211  18.198  0.00  0.00    +0.000 A 
ATOM     33  N   UNL     1      49.071   3.939  17.573  0.00  0.00    +0.000 N 
ATOM     34  C   UNL     1      49.319   5.132  16.937  0.00  0.00    +0.000 A 
ATOM     35  O   UNL     1      48.409   5.782  16.431  0.00  0.00    +0.000 OA
ATOM     36  C   UNL     1      50.710   5.542  16.941  0.00  0.00    +0.000 A 
ATOM     37  H   UNL     1      48.113   3.626  17.582  0.00  0.00    +0.000 HD
ENDBRANCH  24  27
ENDBRANCH  22  23
ENDBRANCH   4  22
TORSDOF 8
ENDMDL
