MODEL 1
REMARK VINA RESULT:    -8.270      0.000      0.000
REMARK INTER + INTRA:         -12.231
REMARK INTER:                 -11.171
REMARK INTRA:                  -1.060
REMARK UNBOUND:                -1.060
REMARK  Name = 
REMARK  6 active torsions:
REMARK  status: ('A' for Active; 'I' for Inactive)
REMARK    1  A    between atoms: C_2  and  C_25
REMARK    2  A    between atoms: N_3  and  C_4
REMARK    3  A    between atoms: C_4  and  C_5
REMARK    4  A    between atoms: C_8  and  C_9
REMARK    5  A    between atoms: C_9  and  N_10
REMARK    6  A    between atoms: C_11  and  C_13
REMARK                            x       y       z     vdW  Elec       q    Type
REMARK                         _______ _______ _______ _____ _____    ______ ____
ROOT
ATOM      1  C   UNL     1      44.940   6.194  11.289  0.00  0.00    +0.000 A 
ATOM      2  C   UNL     1      44.610   7.523  11.562  0.00  0.00    +0.000 A 
ATOM      3  C   UNL     1      45.437   8.289  12.379  0.00  0.00    +0.000 A 
ATOM      4  C   UNL     1      46.568   7.699  12.935  0.00  0.00    +0.000 A 
ATOM      5  N   UNL     1      46.911   6.408  12.684  0.00  0.00    +0.000 NA
ATOM      6  C   UNL     1      46.096   5.693  11.875  0.00  0.00    +0.000 A 
ENDROOT
BRANCH   1   7
ATOM      7  C   UNL     1      44.092   5.343  10.397  0.00  0.00    +0.000 C 
BRANCH   7  10
ATOM      8  O   UNL     1      44.407   2.592  10.242  0.00  0.00    +0.000 OA
ATOM      9  C   UNL     1      44.944   3.290   9.385  0.00  0.00    +0.000 C 
ATOM     10  N   UNL     1      44.850   4.666   9.376  0.00  0.00    +0.000 N 
ATOM     11  H   UNL     1      45.356   5.174   8.654  0.00  0.00    +0.000 HD
BRANCH   9  12
ATOM     12  C   UNL     1      45.742   2.673   8.278  0.00  0.00    +0.000 A 
ATOM     13  C   UNL     1      46.023   3.437   7.149  0.00  0.00    +0.000 A 
ATOM     14  C   UNL     1      46.763   2.859   6.124  0.00  0.00    +0.000 A 
ATOM     15  C   UNL     1      47.191   1.543   6.258  0.00  0.00    +0.000 A 
ATOM     16  C   UNL     1      46.868   0.857   7.421  0.00  0.00    +0.000 A 
ATOM     17  N   UNL     1      46.153   1.385   8.443  0.00  0.00    +0.000 NA
ENDBRANCH   9  12
ENDBRANCH   7  10
ENDBRANCH   1   7
BRANCH   4  18
ATOM     18  C   UNL     1      47.468   8.493  13.850  0.00  0.00    +0.000 C 
BRANCH  18  19
ATOM     19  N   UNL     1      47.889   7.736  15.004  0.00  0.00    +0.000 N 
ATOM     20  C   UNL     1      49.165   7.265  15.167  0.00  0.00    +0.000 C 
ATOM     21  O   UNL     1      50.042   7.441  14.328  0.00  0.00    +0.000 OA
ATOM     22  H   UNL     1      47.139   7.363  15.577  0.00  0.00    +0.000 HD
BRANCH  20  23
ATOM     23  C   UNL     1      49.446   6.604  16.450  0.00  0.00    +0.000 A 
ATOM     24  C   UNL     1      50.389   7.146  17.315  0.00  0.00    +0.000 A 
ATOM     25  S   UNL     1      50.561   6.270  18.770  0.00  0.00    +0.000 S 
ATOM     26  C   UNL     1      49.415   5.113  18.276  0.00  0.00    +0.000 A 
ATOM     27  N   UNL     1      49.112   4.046  19.065  0.00  0.00    +0.000 NA
ATOM     28  C   UNL     1      48.249   3.234  18.552  0.00  0.00    +0.000 A 
ATOM     29  N   UNL     1      47.651   3.398  17.329  0.00  0.00    +0.000 N 
ATOM     30  C   UNL     1      47.885   4.487  16.528  0.00  0.00    +0.000 A 
ATOM     31  O   UNL     1      47.259   4.653  15.486  0.00  0.00    +0.000 OA
ATOM     32  C   UNL     1      48.883   5.410  17.035  0.00  0.00    +0.000 A 
ATOM     33  H   UNL     1      46.963   2.741  16.994  0.00  0.00    +0.000 HD
ENDBRANCH  20  23
ENDBRANCH  18  19
ENDBRANCH   4  18
TORSDOF 6
ENDMDL
MODEL 2
REMARK VINA RESULT:    -7.618      2.243      2.561
REMARK INTER + INTRA:         -11.349
REMARK INTER:                 -10.477
REMARK INTRA:                  -0.873
REMARK UNBOUND:                -1.060
REMARK  Name = 
REMARK  6 active torsions:
REMARK  status: ('A' for Active; 'I' for Inactive)
REMARK    1  A    between atoms: C_2  and  C_25
REMARK    2  A    between atoms: N_3  and  C_4
REMARK    3  A    between atoms: C_4  and  C_5
REMARK    4  A    between atoms: C_8  and  C_9
REMARK    5  A    between atoms: C_9  and  N_10
REMARK    6  A    between atoms: C_11  and  C_13
REMARK                            x       y       z     vdW  Elec       q    Type
REMARK                         _______ _______ _______ _____ _____    ______ ____
ROOT
ATOM      1  C   UNL     1      45.364   6.519  11.680  0.00  0.00    +0.000 A 
ATOM      2  C   UNL     1      46.552   6.041  12.237  0.00  0.00    +0.000 A 
ATOM      3  C   UNL     1      47.318   6.870  13.052  0.00  0.00    +0.000 A 
ATOM      4  C   UNL     1      46.894   8.177  13.272  0.00  0.00    +0.000 A 
ATOM      5  N   UNL     1      45.742   8.665  12.742  0.00  0.00    +0.000 NA
ATOM      6  C   UNL     1      45.011   7.832  11.966  0.00  0.00    +0.000 A 
ENDROOT
BRANCH   1   7
ATOM      7  C   UNL     1      44.499   5.655  10.818  0.00  0.00    +0.000 C 
BRANCH   7  10
ATOM      8  O   UNL     1      43.923   3.107   9.886  0.00  0.00    +0.000 OA
ATOM      9  C   UNL     1      44.864   3.713   9.381  0.00  0.00    +0.000 C 
ATOM     10  N   UNL     1      45.233   4.982   9.776  0.00  0.00    +0.000 N 
ATOM     11  H   UNL     1      46.049   5.400   9.335  0.00  0.00    +0.000 HD
BRANCH   9  12
ATOM     12  C   UNL     1      45.676   3.098   8.283  0.00  0.00    +0.000 A 
ATOM     13  C   UNL     1      46.071   1.770   8.405  0.00  0.00    +0.000 A 
ATOM     14  C   UNL     1      46.826   1.205   7.383  0.00  0.00    +0.000 A 
ATOM     15  C   UNL     1      47.163   1.984   6.283  0.00  0.00    +0.000 A 
ATOM     16  C   UNL     1      46.723   3.300   6.243  0.00  0.00    +0.000 A 
ATOM     17  N   UNL     1      45.984   3.886   7.214  0.00  0.00    +0.000 NA
ENDBRANCH   9  12
ENDBRANCH   7  10
ENDBRANCH   1   7
BRANCH   4  18
ATOM     18  C   UNL     1      47.717   9.111  14.125  0.00  0.00    +0.000 C 
BRANCH  18  19
ATOM     19  N   UNL     1      47.590   8.830  15.535  0.00  0.00    +0.000 N 
ATOM     20  C   UNL     1      48.306   9.488  16.498  0.00  0.00    +0.000 C 
ATOM     21  O   UNL     1      49.126  10.360  16.226  0.00  0.00    +0.000 OA
ATOM     22  H   UNL     1      47.123   7.957  15.764  0.00  0.00    +0.000 HD
BRANCH  20  23
ATOM     23  C   UNL     1      47.976   9.147  17.889  0.00  0.00    +0.000 A 
ATOM     24  C   UNL     1      47.589  10.147  18.774  0.00  0.00    +0.000 A 
ATOM     25  S   UNL     1      47.210   9.568  20.334  0.00  0.00    +0.000 S 
ATOM     26  C   UNL     1      47.591   7.968  19.895  0.00  0.00    +0.000 A 
ATOM     27  N   UNL     1      47.512   6.955  20.800  0.00  0.00    +0.000 NA
ATOM     28  C   UNL     1      47.858   5.800  20.338  0.00  0.00    +0.000 A 
ATOM     29  N   UNL     1      48.264   5.563  19.050  0.00  0.00    +0.000 N 
ATOM     30  C   UNL     1      48.304   6.543  18.091  0.00  0.00    +0.000 A 
ATOM     31  O   UNL     1      48.574   6.278  16.925  0.00  0.00    +0.000 OA
ATOM     32  C   UNL     1      47.968   7.872  18.568  0.00  0.00    +0.000 A 
ATOM     33  H   UNL     1      48.496   4.632  18.741  0.00  0.00    +0.000 HD
ENDBRANCH  20  23
ENDBRANCH  18  19
ENDBRANCH   4  18
TORSDOF 6
ENDMDL
MODEL 3
REMARK VINA RESULT:    -6.869      2.060      2.515
REMARK INTER + INTRA:         -10.338
REMARK INTER:                  -9.483
REMARK INTRA:                  -0.855
REMARK UNBOUND:                -1.060
REMARK  Name = 
REMARK  6 active torsions:
REMARK  status: ('A' for Active; 'I' for Inactive)
REMARK    1  A    between atoms: C_2  and  C_25
REMARK    2  A    between atoms: N_3  and  C_4
REMARK    3  A    between atoms: C_4  and  C_5
REMARK    4  A    between atoms: C_8  and  C_9
REMARK    5  A    between atoms: C_9  and  N_10
REMARK    6  A    between atoms: C_11  and  C_13
REMARK                            x       y       z     vdW  Elec       q    Type
REMARK                         _______ _______ _______ _____ _____    ______ ____
ROOT
ATOM      1  C   UNL     1      45.471   6.207  11.809  0.00  0.00    +0.000 A 
ATOM      2  C   UNL     1      46.271   5.599  12.779  0.00  0.00    +0.000 A 
ATOM      3  C   UNL     1      47.081   6.381  13.598  0.00  0.00    +0.000 A 
ATOM      4  C   UNL     1      47.098   7.760  13.411  0.00  0.00    +0.000 A 
ATOM      5  N   UNL     1      46.328   8.375  12.474  0.00  0.00    +0.000 NA
ATOM      6  C   UNL     1      45.541   7.591  11.703  0.00  0.00    +0.000 A 
ENDROOT
BRANCH   1   7
ATOM      7  C   UNL     1      44.568   5.407  10.924  0.00  0.00    +0.000 C 
BRANCH   7  10
ATOM      8  O   UNL     1      43.859   2.902   9.966  0.00  0.00    +0.000 OA
ATOM      9  C   UNL     1      44.840   3.456   9.478  0.00  0.00    +0.000 C 
ATOM     10  N   UNL     1      45.277   4.699   9.887  0.00  0.00    +0.000 N 
ATOM     11  H   UNL     1      46.121   5.072   9.460  0.00  0.00    +0.000 HD
BRANCH   9  12
ATOM     12  C   UNL     1      45.630   2.803   8.387  0.00  0.00    +0.000 A 
ATOM     13  C   UNL     1      45.944   3.543   7.251  0.00  0.00    +0.000 A 
ATOM     14  C   UNL     1      46.677   2.931   6.240  0.00  0.00    +0.000 A 
ATOM     15  C   UNL     1      47.066   1.606   6.397  0.00  0.00    +0.000 A 
ATOM     16  C   UNL     1      46.713   0.944   7.565  0.00  0.00    +0.000 A 
ATOM     17  N   UNL     1      46.003   1.505   8.573  0.00  0.00    +0.000 NA
ENDBRANCH   9  12
ENDBRANCH   7  10
ENDBRANCH   1   7
BRANCH   4  18
ATOM     18  C   UNL     1      47.988   8.633  14.261  0.00  0.00    +0.000 C 
BRANCH  18  19
ATOM     19  N   UNL     1      49.246   8.000  14.576  0.00  0.00    +0.000 N 
ATOM     20  C   UNL     1      50.356   8.696  14.973  0.00  0.00    +0.000 C 
ATOM     21  O   UNL     1      50.364   9.918  15.074  0.00  0.00    +0.000 OA
ATOM     22  H   UNL     1      49.341   7.040  14.259  0.00  0.00    +0.000 HD
BRANCH  20  23
ATOM     23  C   UNL     1      51.521   7.883  15.353  0.00  0.00    +0.000 A 
ATOM     24  C   UNL     1      52.767   8.163  14.807  0.00  0.00    +0.000 A 
ATOM     25  S   UNL     1      54.009   7.145  15.385  0.00  0.00    +0.000 S 
ATOM     26  C   UNL     1      52.918   6.266  16.351  0.00  0.00    +0.000 A 
ATOM     27  N   UNL     1      53.337   5.208  17.096  0.00  0.00    +0.000 NA
ATOM     28  C   UNL     1      52.398   4.617  17.757  0.00  0.00    +0.000 A 
ATOM     29  N   UNL     1      51.080   4.996  17.750  0.00  0.00    +0.000 N 
ATOM     30  C   UNL     1      50.625   6.090  17.059  0.00  0.00    +0.000 A 
ATOM     31  O   UNL     1      49.460   6.461  17.155  0.00  0.00    +0.000 OA
ATOM     32  C   UNL     1      51.631   6.765  16.261  0.00  0.00    +0.000 A 
ATOM     33  H   UNL     1      50.396   4.510  18.309  0.00  0.00    +0.000 HD
ENDBRANCH  20  23
ENDBRANCH  18  19
ENDBRANCH   4  18
TORSDOF 6
ENDMDL
MODEL 4
REMARK VINA RESULT:    -6.516      4.812      7.652
REMARK INTER + INTRA:          -9.862
REMARK INTER:                  -9.049
REMARK INTRA:                  -0.813
REMARK UNBOUND:                -1.060
REMARK  Name = 
REMARK  6 active torsions:
REMARK  status: ('A' for Active; 'I' for Inactive)
REMARK    1  A    between atoms: C_2  and  C_25
REMARK    2  A    between atoms: N_3  and  C_4
REMARK    3  A    between atoms: C_4  and  C_5
REMARK    4  A    between atoms: C_8  and  C_9
REMARK    5  A    between atoms: C_9  and  N_10
REMARK    6  A    between atoms: C_11  and  C_13
REMARK                            x       y       z     vdW  Elec       q    Type
REMARK                         _______ _______ _______ _____ _____    ______ ____
ROOT
ATOM      1  C   UNL     1      50.544   8.312  12.420  0.00  0.00    +0.000 A 
ATOM      2  C   UNL     1      49.686   7.911  11.394  0.00  0.00    +0.000 A 
ATOM      3  C   UNL     1      48.318   7.817  11.631  0.00  0.00    +0.000 A 
ATOM      4  C   UNL     1      47.834   8.098  12.905  0.00  0.00    +0.000 A 
ATOM      5  N   UNL     1      48.648   8.491  13.921  0.00  0.00    +0.000 NA
ATOM      6  C   UNL     1      49.971   8.588  13.656  0.00  0.00    +0.000 A 
ENDROOT
BRANCH   1   7
ATOM      7  C   UNL     1      52.017   8.450  12.202  0.00  0.00    +0.000 C 
BRANCH   7  10
ATOM      8  O   UNL     1      52.509   8.902   9.510  0.00  0.00    +0.000 OA
ATOM      9  C   UNL     1      52.759   7.791   9.969  0.00  0.00    +0.000 C 
ATOM     10  N   UNL     1      52.548   7.465  11.293  0.00  0.00    +0.000 N 
ATOM     11  H   UNL     1      52.744   6.511  11.586  0.00  0.00    +0.000 HD
BRANCH   9  12
ATOM     12  C   UNL     1      53.324   6.708   9.103  0.00  0.00    +0.000 A 
ATOM     13  C   UNL     1      52.766   6.496   7.846  0.00  0.00    +0.000 A 
ATOM     14  C   UNL     1      53.294   5.488   7.047  0.00  0.00    +0.000 A 
ATOM     15  C   UNL     1      54.353   4.728   7.529  0.00  0.00    +0.000 A 
ATOM     16  C   UNL     1      54.850   5.012   8.794  0.00  0.00    +0.000 A 
ATOM     17  N   UNL     1      54.367   5.986   9.601  0.00  0.00    +0.000 NA
ENDBRANCH   9  12
ENDBRANCH   7  10
ENDBRANCH   1   7
BRANCH   4  18
ATOM     18  C   UNL     1      46.360   7.975  13.204  0.00  0.00    +0.000 C 
BRANCH  18  19
ATOM     19  N   UNL     1      45.822   6.693  12.818  0.00  0.00    +0.000 N 
ATOM     20  C   UNL     1      44.886   6.540  11.830  0.00  0.00    +0.000 C 
ATOM     21  O   UNL     1      44.423   7.492  11.211  0.00  0.00    +0.000 OA
ATOM     22  H   UNL     1      45.990   5.936  13.473  0.00  0.00    +0.000 HD
BRANCH  20  23
ATOM     23  C   UNL     1      44.526   5.154  11.497  0.00  0.00    +0.000 A 
ATOM     24  C   UNL     1      43.756   4.408  12.382  0.00  0.00    +0.000 A 
ATOM     25  S   UNL     1      43.405   2.835  11.820  0.00  0.00    +0.000 S 
ATOM     26  C   UNL     1      44.305   3.080  10.397  0.00  0.00    +0.000 A 
ATOM     27  N   UNL     1      44.441   2.089   9.474  0.00  0.00    +0.000 NA
ATOM     28  C   UNL     1      45.174   2.404   8.459  0.00  0.00    +0.000 A 
ATOM     29  N   UNL     1      45.772   3.625   8.275  0.00  0.00    +0.000 N 
ATOM     30  C   UNL     1      45.614   4.669   9.151  0.00  0.00    +0.000 A 
ATOM     31  O   UNL     1      46.079   5.777   8.906  0.00  0.00    +0.000 OA
ATOM     32  C   UNL     1      44.836   4.356  10.335  0.00  0.00    +0.000 A 
ATOM     33  H   UNL     1      46.312   3.820   7.446  0.00  0.00    +0.000 HD
ENDBRANCH  20  23
ENDBRANCH  18  19
ENDBRANCH   4  18
TORSDOF 6
ENDMDL
MODEL 5
REMARK VINA RESULT:    -6.145      2.165      2.760
REMARK INTER + INTRA:          -9.361
REMARK INTER:                  -8.550
REMARK INTRA:                  -0.811
REMARK UNBOUND:                -1.060
REMARK  Name = 
REMARK  6 active torsions:
REMARK  status: ('A' for Active; 'I' for Inactive)
REMARK    1  A    between atoms: C_2  and  C_25
REMARK    2  A    between atoms: N_3  and  C_4
REMARK    3  A    between atoms: C_4  and  C_5
REMARK    4  A    between atoms: C_8  and  C_9
REMARK    5  A    between atoms: C_9  and  N_10
REMARK    6  A    between atoms: C_11  and  C_13
REMARK                            x       y       z     vdW  Elec       q    Type
REMARK                         _______ _______ _______ _____ _____    ______ ____
ROOT
ATOM      1  C   UNL     1      46.121   6.447  12.653  0.00  0.00    +0.000 A 
ATOM      2  C   UNL     1      46.158   7.837  12.778  0.00  0.00    +0.000 A 
ATOM      3  C   UNL     1      47.148   8.437  13.551  0.00  0.00    +0.000 A 
ATOM      4  C   UNL     1      48.068   7.630  14.213  0.00  0.00    +0.000 A 
ATOM      5  N   UNL     1      48.053   6.275  14.107  0.00  0.00    +0.000 NA
ATOM      6  C   UNL     1      47.088   5.721  13.337  0.00  0.00    +0.000 A 
ENDROOT
BRANCH   1   7
ATOM      7  C   UNL     1      45.089   5.762  11.813  0.00  0.00    +0.000 C 
BRANCH   7  10
ATOM      8  O   UNL     1      43.661   3.987  10.232  0.00  0.00    +0.000 OA
ATOM      9  C   UNL     1      44.860   4.129  10.011  0.00  0.00    +0.000 C 
ATOM     10  N   UNL     1      45.659   4.983  10.743  0.00  0.00    +0.000 N 
ATOM     11  H   UNL     1      46.651   5.014  10.523  0.00  0.00    +0.000 HD
BRANCH   9  12
ATOM     12  C   UNL     1      45.536   3.369   8.911  0.00  0.00    +0.000 A 
ATOM     13  C   UNL     1      46.050   4.075   7.828  0.00  0.00    +0.000 A 
ATOM     14  C   UNL     1      46.676   3.365   6.809  0.00  0.00    +0.000 A 
ATOM     15  C   UNL     1      46.763   1.981   6.905  0.00  0.00    +0.000 A 
ATOM     16  C   UNL     1      46.226   1.360   8.025  0.00  0.00    +0.000 A 
ATOM     17  N   UNL     1      45.612   2.015   9.039  0.00  0.00    +0.000 NA
ENDBRANCH   9  12
ENDBRANCH   7  10
ENDBRANCH   1   7
BRANCH   4  18
ATOM     18  C   UNL     1      49.134   8.247  15.084  0.00  0.00    +0.000 C 
BRANCH  18  19
ATOM     19  N   UNL     1      49.647   7.325  16.069  0.00  0.00    +0.000 N 
ATOM     20  C   UNL     1      50.110   7.720  17.296  0.00  0.00    +0.000 C 
ATOM     21  O   UNL     1      50.136   8.897  17.640  0.00  0.00    +0.000 OA
ATOM     22  H   UNL     1      49.872   6.398  15.721  0.00  0.00    +0.000 HD
BRANCH  20  23
ATOM     23  C   UNL     1      50.498   6.639  18.213  0.00  0.00    +0.000 A 
ATOM     24  C   UNL     1      49.723   6.372  19.335  0.00  0.00    +0.000 A 
ATOM     25  S   UNL     1      50.301   5.064  20.267  0.00  0.00    +0.000 S 
ATOM     26  C   UNL     1      51.630   4.838  19.230  0.00  0.00    +0.000 A 
ATOM     27  N   UNL     1      52.560   3.877  19.482  0.00  0.00    +0.000 NA
ATOM     28  C   UNL     1      53.529   3.837  18.629  0.00  0.00    +0.000 A 
ATOM     29  N   UNL     1      53.647   4.662  17.540  0.00  0.00    +0.000 N 
ATOM     30  C   UNL     1      52.704   5.605  17.217  0.00  0.00    +0.000 A 
ATOM     31  O   UNL     1      52.788   6.256  16.181  0.00  0.00    +0.000 OA
ATOM     32  C   UNL     1      51.614   5.724  18.168  0.00  0.00    +0.000 A 
ATOM     33  H   UNL     1      54.414   4.564  16.893  0.00  0.00    +0.000 HD
ENDBRANCH  20  23
ENDBRANCH  18  19
ENDBRANCH   4  18
TORSDOF 6
ENDMDL
MODEL 6
REMARK VINA RESULT:    -5.748      5.375      7.555
REMARK INTER + INTRA:          -8.825
REMARK INTER:                  -7.976
REMARK INTRA:                  -0.849
REMARK UNBOUND:                -1.060
REMARK  Name = 
REMARK  6 active torsions:
REMARK  status: ('A' for Active; 'I' for Inactive)
REMARK    1  A    between atoms: C_2  and  C_25
REMARK    2  A    between atoms: N_3  and  C_4
REMARK    3  A    between atoms: C_4  and  C_5
REMARK    4  A    between atoms: C_8  and  C_9
REMARK    5  A    between atoms: C_9  and  N_10
REMARK    6  A    between atoms: C_11  and  C_13
REMARK                            x       y       z     vdW  Elec       q    Type
REMARK                         _______ _______ _______ _____ _____    ______ ____
ROOT
ATOM      1  C   UNL     1      51.773   8.355  12.113  0.00  0.00    +0.000 A 
ATOM      2  C   UNL     1      51.580   8.488  13.490  0.00  0.00    +0.000 A 
ATOM      3  C   UNL     1      50.352   8.151  14.053  0.00  0.00    +0.000 A 
ATOM      4  C   UNL     1      49.326   7.713  13.221  0.00  0.00    +0.000 A 
ATOM      5  N   UNL     1      49.489   7.575  11.879  0.00  0.00    +0.000 NA
ATOM      6  C   UNL     1      50.697   7.897  11.362  0.00  0.00    +0.000 A 
ENDROOT
BRANCH   1   7
ATOM      7  C   UNL     1      53.083   8.683  11.470  0.00  0.00    +0.000 C 
BRANCH   7  10
ATOM      8  O   UNL     1      53.052   9.037   8.720  0.00  0.00    +0.000 OA
ATOM      9  C   UNL     1      53.456   7.966   9.165  0.00  0.00    +0.000 C 
ATOM     10  N   UNL     1      53.508   7.690  10.516  0.00  0.00    +0.000 N 
ATOM     11  H   UNL     1      53.818   6.765  10.802  0.00  0.00    +0.000 HD
BRANCH   9  12
ATOM     12  C   UNL     1      53.929   6.880   8.249  0.00  0.00    +0.000 A 
ATOM     13  C   UNL     1      52.987   6.042   7.661  0.00  0.00    +0.000 A 
ATOM     14  C   UNL     1      53.432   5.034   6.812  0.00  0.00    +0.000 A 
ATOM     15  C   UNL     1      54.796   4.896   6.585  0.00  0.00    +0.000 A 
ATOM     16  C   UNL     1      55.665   5.779   7.211  0.00  0.00    +0.000 A 
ATOM     17  N   UNL     1      55.272   6.775   8.041  0.00  0.00    +0.000 NA
ENDBRANCH   9  12
ENDBRANCH   7  10
ENDBRANCH   1   7
BRANCH   4  18
ATOM     18  C   UNL     1      47.974   7.370  13.796  0.00  0.00    +0.000 C 
BRANCH  18  19
ATOM     19  N   UNL     1      47.236   6.451  12.964  0.00  0.00    +0.000 N 
ATOM     20  C   UNL     1      46.259   6.849  12.090  0.00  0.00    +0.000 C 
ATOM     21  O   UNL     1      45.929   8.024  11.966  0.00  0.00    +0.000 OA
ATOM     22  H   UNL     1      47.305   5.473  13.228  0.00  0.00    +0.000 HD
BRANCH  20  23
ATOM     23  C   UNL     1      45.683   5.793  11.247  0.00  0.00    +0.000 A 
ATOM     24  C   UNL     1      45.876   5.823   9.871  0.00  0.00    +0.000 A 
ATOM     25  S   UNL     1      45.169   4.503   9.053  0.00  0.00    +0.000 S 
ATOM     26  C   UNL     1      44.541   3.868  10.502  0.00  0.00    +0.000 A 
ATOM     27  N   UNL     1      43.786   2.737  10.503  0.00  0.00    +0.000 NA
ATOM     28  C   UNL     1      43.352   2.386  11.667  0.00  0.00    +0.000 A 
ATOM     29  N   UNL     1      43.615   3.057  12.834  0.00  0.00    +0.000 N 
ATOM     30  C   UNL     1      44.418   4.168  12.887  0.00  0.00    +0.000 A 
ATOM     31  O   UNL     1      44.715   4.685  13.959  0.00  0.00    +0.000 OA
ATOM     32  C   UNL     1      44.896   4.634  11.598  0.00  0.00    +0.000 A 
ATOM     33  H   UNL     1      43.269   2.718  13.718  0.00  0.00    +0.000 HD
ENDBRANCH  20  23
ENDBRANCH  18  19
ENDBRANCH   4  18
TORSDOF 6
ENDMDL
MODEL 7
REMARK VINA RESULT:    -5.578      4.385      5.914
REMARK INTER + INTRA:          -8.594
REMARK INTER:                  -7.468
REMARK INTRA:                  -1.126
REMARK UNBOUND:                -1.060
REMARK  Name = 
REMARK  6 active torsions:
REMARK  status: ('A' for Active; 'I' for Inactive)
REMARK    1  A    between atoms: C_2  and  C_25
REMARK    2  A    between atoms: N_3  and  C_4
REMARK    3  A    between atoms: C_4  and  C_5
REMARK    4  A    between atoms: C_8  and  C_9
REMARK    5  A    between atoms: C_9  and  N_10
REMARK    6  A    between atoms: C_11  and  C_13
REMARK                            x       y       z     vdW  Elec       q    Type
REMARK                         _______ _______ _______ _____ _____    ______ ____
ROOT
ATOM      1  C   UNL     1      46.633   7.567  13.094  0.00  0.00    +0.000 A 
ATOM      2  C   UNL     1      47.570   6.578  13.395  0.00  0.00    +0.000 A 
ATOM      3  C   UNL     1      48.810   6.933  13.920  0.00  0.00    +0.000 A 
ATOM      4  C   UNL     1      49.100   8.281  14.107  0.00  0.00    +0.000 A 
ATOM      5  N   UNL     1      48.205   9.263  13.823  0.00  0.00    +0.000 NA
ATOM      6  C   UNL     1      47.004   8.886  13.327  0.00  0.00    +0.000 A 
ENDROOT
BRANCH   1   7
ATOM      7  C   UNL     1      45.281   7.228  12.551  0.00  0.00    +0.000 C 
BRANCH   7  10
ATOM      8  O   UNL     1      44.470   4.575  12.563  0.00  0.00    +0.000 OA
ATOM      9  C   UNL     1      44.904   5.047  11.516  0.00  0.00    +0.000 C 
ATOM     10  N   UNL     1      45.336   6.353  11.406  0.00  0.00    +0.000 N 
ATOM     11  H   UNL     1      45.719   6.655  10.514  0.00  0.00    +0.000 HD
BRANCH   9  12
ATOM     12  C   UNL     1      44.987   4.216  10.272  0.00  0.00    +0.000 A 
ATOM     13  C   UNL     1      45.589   4.761   9.142  0.00  0.00    +0.000 A 
ATOM     14  C   UNL     1      45.662   3.985   7.990  0.00  0.00    +0.000 A 
ATOM     15  C   UNL     1      45.131   2.701   8.006  0.00  0.00    +0.000 A 
ATOM     16  C   UNL     1      44.552   2.237   9.180  0.00  0.00    +0.000 A 
ATOM     17  N   UNL     1      44.464   2.959  10.322  0.00  0.00    +0.000 NA
ENDBRANCH   9  12
ENDBRANCH   7  10
ENDBRANCH   1   7
BRANCH   4  18
ATOM     18  C   UNL     1      50.446   8.702  14.646  0.00  0.00    +0.000 C 
BRANCH  18  19
ATOM     19  N   UNL     1      51.506   8.530  13.682  0.00  0.00    +0.000 N 
ATOM     20  C   UNL     1      51.979   9.548  12.898  0.00  0.00    +0.000 C 
ATOM     21  O   UNL     1      51.519  10.684  12.950  0.00  0.00    +0.000 OA
ATOM     22  H   UNL     1      51.721   7.568  13.440  0.00  0.00    +0.000 HD
BRANCH  20  23
ATOM     23  C   UNL     1      53.131   9.220  12.046  0.00  0.00    +0.000 A 
ATOM     24  C   UNL     1      54.361   9.820  12.285  0.00  0.00    +0.000 A 
ATOM     25  S   UNL     1      55.592   9.298  11.224  0.00  0.00    +0.000 S 
ATOM     26  C   UNL     1      54.515   8.286  10.381  0.00  0.00    +0.000 A 
ATOM     27  N   UNL     1      54.929   7.559   9.308  0.00  0.00    +0.000 NA
ATOM     28  C   UNL     1      54.001   6.859   8.747  0.00  0.00    +0.000 A 
ATOM     29  N   UNL     1      52.697   6.808   9.171  0.00  0.00    +0.000 N 
ATOM     30  C   UNL     1      52.250   7.478  10.281  0.00  0.00    +0.000 A 
ATOM     31  O   UNL     1      51.103   7.331  10.690  0.00  0.00    +0.000 OA
ATOM     32  C   UNL     1      53.243   8.319  10.923  0.00  0.00    +0.000 A 
ATOM     33  H   UNL     1      52.023   6.219   8.707  0.00  0.00    +0.000 HD
ENDBRANCH  20  23
ENDBRANCH  18  19
ENDBRANCH   4  18
TORSDOF 6
ENDMDL
MODEL 8
REMARK VINA RESULT:    -5.507      5.540      7.816
REMARK INTER + INTRA:          -8.498
REMARK INTER:                  -7.456
REMARK INTRA:                  -1.042
REMARK UNBOUND:                -1.060
REMARK  Name = 
REMARK  6 active torsions:
REMARK  status: ('A' for Active; 'I' for Inactive)
REMARK    1  A    between atoms: C_2  and  C_25
REMARK    2  A    between atoms: N_3  and  C_4
REMARK    3  A    between atoms: C_4  and  C_5
REMARK    4  A    between atoms: C_8  and  C_9
REMARK    5  A    between atoms: C_9  and  N_10
REMARK    6  A    between atoms: C_11  and  C_13
REMARK                            x       y       z     vdW  Elec       q    Type
REMARK                         _______ _______ _______ _____ _____    ______ ____
ROOT
ATOM      1  C   UNL     1      49.157   7.175  14.339  0.00  0.00    +0.000 A 
ATOM      2  C   UNL     1      50.149   7.805  15.093  0.00  0.00    +0.000 A 
ATOM      3  C   UNL     1      50.919   8.815  14.521  0.00  0.00    +0.000 A 
ATOM      4  C   UNL     1      50.700   9.156  13.190  0.00  0.00    +0.000 A 
ATOM      5  N   UNL     1      49.741   8.558  12.435  0.00  0.00    +0.000 NA
ATOM      6  C   UNL     1      48.999   7.591  13.023  0.00  0.00    +0.000 A 
ENDROOT
BRANCH   1   7
ATOM      7  C   UNL     1      48.292   6.103  14.922  0.00  0.00    +0.000 C 
BRANCH   7  10
ATOM      8  O   UNL     1      47.193   3.609  14.404  0.00  0.00    +0.000 OA
ATOM      9  C   UNL     1      46.614   4.602  13.973  0.00  0.00    +0.000 C 
ATOM     10  N   UNL     1      47.080   5.886  14.172  0.00  0.00    +0.000 N 
ATOM     11  H   UNL     1      46.564   6.652  13.749  0.00  0.00    +0.000 HD
BRANCH   9  12
ATOM     12  C   UNL     1      45.342   4.475  13.193  0.00  0.00    +0.000 A 
ATOM     13  C   UNL     1      44.582   5.617  12.958  0.00  0.00    +0.000 A 
ATOM     14  C   UNL     1      43.401   5.492  12.235  0.00  0.00    +0.000 A 
ATOM     15  C   UNL     1      43.019   4.236  11.777  0.00  0.00    +0.000 A 
ATOM     16  C   UNL     1      43.840   3.151  12.054  0.00  0.00    +0.000 A 
ATOM     17  N   UNL     1      44.999   3.232  12.752  0.00  0.00    +0.000 NA
ENDBRANCH   9  12
ENDBRANCH   7  10
ENDBRANCH   1   7
BRANCH   4  18
ATOM     18  C   UNL     1      51.538  10.224  12.530  0.00  0.00    +0.000 C 
BRANCH  18  19
ATOM     19  N   UNL     1      52.211   9.747  11.347  0.00  0.00    +0.000 N 
ATOM     20  C   UNL     1      51.932  10.209  10.088  0.00  0.00    +0.000 C 
ATOM     21  O   UNL     1      51.070  11.056   9.876  0.00  0.00    +0.000 OA
ATOM     22  H   UNL     1      52.732   8.883  11.461  0.00  0.00    +0.000 HD
BRANCH  20  23
ATOM     23  C   UNL     1      52.784   9.689   9.010  0.00  0.00    +0.000 A 
ATOM     24  C   UNL     1      53.433  10.571   8.154  0.00  0.00    +0.000 A 
ATOM     25  S   UNL     1      54.406   9.796   6.986  0.00  0.00    +0.000 S 
ATOM     26  C   UNL     1      53.961   8.255   7.553  0.00  0.00    +0.000 A 
ATOM     27  N   UNL     1      54.428   7.125   6.955  0.00  0.00    +0.000 NA
ATOM     28  C   UNL     1      53.985   6.027   7.471  0.00  0.00    +0.000 A 
ATOM     29  N   UNL     1      53.129   5.955   8.540  0.00  0.00    +0.000 N 
ATOM     30  C   UNL     1      52.680   7.066   9.208  0.00  0.00    +0.000 A 
ATOM     31  O   UNL     1      51.997   6.963  10.221  0.00  0.00    +0.000 OA
ATOM     32  C   UNL     1      53.110   8.331   8.641  0.00  0.00    +0.000 A 
ATOM     33  H   UNL     1      52.840   5.066   8.915  0.00  0.00    +0.000 HD
ENDBRANCH  20  23
ENDBRANCH  18  19
ENDBRANCH   4  18
TORSDOF 6
ENDMDL
