MODEL 1
REMARK VINA RESULT:    -8.428      0.000      0.000
REMARK INTER + INTRA:         -12.667
REMARK INTER:                 -11.631
REMARK INTRA:                  -1.036
REMARK UNBOUND:                -1.036
REMARK  Name = 
REMARK  8 active torsions:
REMARK  status: ('A' for Active; 'I' for Inactive)
REMARK    1  A    between atoms: C_1  and  C_2
REMARK    2  A    between atoms: C_2  and  N_3
REMARK    3  A    between atoms: C_2  and  C_19
REMARK    4  A    between atoms: N_3  and  C_4
REMARK    5  A    between atoms: C_7  and  C_8
REMARK    6  A    between atoms: C_8  and  O_9
REMARK    7  A    between atoms: C_8  and  C_10
REMARK    8  A    between atoms: C_10  and  C_11
REMARK                            x       y       z     vdW  Elec       q    Type
REMARK                         _______ _______ _______ _____ _____    ______ ____
ROOT
ATOM      1  C   UNL     1      46.631   4.811  14.130  0.00  0.00    +0.000 A 
ATOM      2  C   UNL     1      46.688   3.500  13.638  0.00  0.00    +0.000 A 
ATOM      3  C   UNL     1      45.864   3.075  12.590  0.00  0.00    +0.000 A 
ATOM      4  C   UNL     1      44.925   3.949  12.035  0.00  0.00    +0.000 A 
ATOM      5  C   UNL     1      44.825   5.243  12.577  0.00  0.00    +0.000 A 
ATOM      6  C   UNL     1      45.669   5.666  13.603  0.00  0.00    +0.000 A 
ENDROOT
BRANCH   1   7
ATOM      7  N   UNL     1      47.447   5.130  15.212  0.00  0.00    +0.000 N 
ATOM      8  H   UNL     1      48.247   5.656  14.859  0.00  0.00    +0.000 HD
BRANCH   7  10
ATOM      9  C   UNL     1      46.806   3.806  17.205  0.00  0.00    +0.000 C 
ATOM     10  C   UNL     1      47.915   4.123  16.188  0.00  0.00    +0.000 C 
BRANCH  10  11
ATOM     11  C   UNL     1      49.122   4.631  16.960  0.00  0.00    +0.000 A 
ATOM     12  C   UNL     1      49.237   5.936  17.417  0.00  0.00    +0.000 A 
ATOM     13  S   UNL     1      50.654   6.210  18.321  0.00  0.00    +0.000 S 
ATOM     14  C   UNL     1      51.152   4.593  18.136  0.00  0.00    +0.000 A 
ATOM     15  N   UNL     1      52.305   4.145  18.699  0.00  0.00    +0.000 NA
ATOM     16  C   UNL     1      52.547   2.894  18.485  0.00  0.00    +0.000 A 
ATOM     17  N   UNL     1      51.747   2.051  17.753  0.00  0.00    +0.000 N 
ATOM     18  C   UNL     1      50.566   2.456  17.169  0.00  0.00    +0.000 A 
ATOM     19  O   UNL     1      49.855   1.681  16.537  0.00  0.00    +0.000 OA
ATOM     20  C   UNL     1      50.258   3.856  17.383  0.00  0.00    +0.000 A 
ATOM     21  H   UNL     1      52.000   1.083  17.628  0.00  0.00    +0.000 HD
ENDBRANCH  10  11
ENDBRANCH   7  10
ENDBRANCH   1   7
BRANCH   4  22
ATOM     22  C   UNL     1      44.014   3.473  10.925  0.00  0.00    +0.000 C 
BRANCH  22  23
ATOM     23  O   UNL     1      42.673   3.646  11.384  0.00  0.00    +0.000 OA
ATOM     24  H   UNL     1      42.387   2.799  11.766  0.00  0.00    +0.000 HD
ENDBRANCH  22  23
BRANCH  22  25
ATOM     25  C   UNL     1      44.261   4.187   9.583  0.00  0.00    +0.000 C 
BRANCH  25  26
ATOM     26  C   UNL     1      45.258   3.480   8.712  0.00  0.00    +0.000 A 
ATOM     27  C   UNL     1      45.487   2.117   8.846  0.00  0.00    +0.000 A 
ATOM     28  C   UNL     1      46.382   1.503   7.976  0.00  0.00    +0.000 A 
ATOM     29  C   UNL     1      47.028   2.268   7.013  0.00  0.00    +0.000 A 
ATOM     30  C   UNL     1      46.763   3.624   6.967  0.00  0.00    +0.000 A 
ATOM     31  N   UNL     1      45.898   4.246   7.792  0.00  0.00    +0.000 NA
ENDBRANCH  25  26
ENDBRANCH  22  25
ENDBRANCH   4  22
TORSDOF 7
ENDMDL
MODEL 2
REMARK VINA RESULT:    -7.767      2.566      3.331
REMARK INTER + INTRA:         -11.754
REMARK INTER:                 -10.866
REMARK INTRA:                  -0.888
REMARK UNBOUND:                -1.036
REMARK  Name = 
REMARK  8 active torsions:
REMARK  status: ('A' for Active; 'I' for Inactive)
REMARK    1  A    between atoms: C_1  and  C_2
REMARK    2  A    between atoms: C_2  and  N_3
REMARK    3  A    between atoms: C_2  and  C_19
REMARK    4  A    between atoms: N_3  and  C_4
REMARK    5  A    between atoms: C_7  and  C_8
REMARK    6  A    between atoms: C_8  and  O_9
REMARK    7  A    between atoms: C_8  and  C_10
REMARK    8  A    between atoms: C_10  and  C_11
REMARK                            x       y       z     vdW  Elec       q    Type
REMARK                         _______ _______ _______ _____ _____    ______ ____
ROOT
ATOM      1  C   UNL     1      46.433   5.921  13.088  0.00  0.00    +0.000 A 
ATOM      2  C   UNL     1      46.310   4.587  13.501  0.00  0.00    +0.000 A 
ATOM      3  C   UNL     1      45.710   3.621  12.687  0.00  0.00    +0.000 A 
ATOM      4  C   UNL     1      45.174   3.980  11.447  0.00  0.00    +0.000 A 
ATOM      5  C   UNL     1      45.238   5.333  11.066  0.00  0.00    +0.000 A 
ATOM      6  C   UNL     1      45.864   6.283  11.872  0.00  0.00    +0.000 A 
ENDROOT
BRANCH   1   7
ATOM      7  N   UNL     1      46.993   6.826  13.986  0.00  0.00    +0.000 N 
ATOM      8  H   UNL     1      46.232   7.340  14.430  0.00  0.00    +0.000 HD
BRANCH   7  10
ATOM      9  C   UNL     1      49.220   7.019  12.919  0.00  0.00    +0.000 C 
ATOM     10  C   UNL     1      48.068   7.767  13.611  0.00  0.00    +0.000 C 
BRANCH  10  11
ATOM     11  C   UNL     1      48.637   8.463  14.837  0.00  0.00    +0.000 A 
ATOM     12  C   UNL     1      48.739   9.842  14.949  0.00  0.00    +0.000 A 
ATOM     13  S   UNL     1      49.338  10.353  16.459  0.00  0.00    +0.000 S 
ATOM     14  C   UNL     1      49.472   8.748  17.012  0.00  0.00    +0.000 A 
ATOM     15  N   UNL     1      49.913   8.473  18.266  0.00  0.00    +0.000 NA
ATOM     16  C   UNL     1      49.950   7.213  18.550  0.00  0.00    +0.000 A 
ATOM     17  N   UNL     1      49.593   6.202  17.692  0.00  0.00    +0.000 N 
ATOM     18  C   UNL     1      49.133   6.430  16.413  0.00  0.00    +0.000 A 
ATOM     19  O   UNL     1      48.799   5.513  15.670  0.00  0.00    +0.000 OA
ATOM     20  C   UNL     1      49.079   7.834  16.053  0.00  0.00    +0.000 A 
ATOM     21  H   UNL     1      49.647   5.238  17.983  0.00  0.00    +0.000 HD
ENDBRANCH  10  11
ENDBRANCH   7  10
ENDBRANCH   1   7
BRANCH   4  22
ATOM     22  C   UNL     1      44.496   2.937  10.587  0.00  0.00    +0.000 C 
BRANCH  22  23
ATOM     23  O   UNL     1      43.200   2.715  11.145  0.00  0.00    +0.000 OA
ATOM     24  H   UNL     1      43.039   3.424  11.792  0.00  0.00    +0.000 HD
ENDBRANCH  22  23
BRANCH  22  25
ATOM     25  C   UNL     1      44.423   3.326   9.098  0.00  0.00    +0.000 C 
BRANCH  25  26
ATOM     26  C   UNL     1      45.517   2.711   8.274  0.00  0.00    +0.000 A 
ATOM     27  C   UNL     1      46.225   3.465   7.347  0.00  0.00    +0.000 A 
ATOM     28  C   UNL     1      47.265   2.858   6.651  0.00  0.00    +0.000 A 
ATOM     29  C   UNL     1      47.556   1.520   6.890  0.00  0.00    +0.000 A 
ATOM     30  C   UNL     1      46.783   0.837   7.810  0.00  0.00    +0.000 A 
ATOM     31  N   UNL     1      45.773   1.398   8.504  0.00  0.00    +0.000 NA
ENDBRANCH  25  26
ENDBRANCH  22  25
ENDBRANCH   4  22
TORSDOF 7
ENDMDL
MODEL 3
REMARK VINA RESULT:    -7.721      4.582      5.919
REMARK INTER + INTRA:         -11.691
REMARK INTER:                 -10.590
REMARK INTRA:                  -1.101
REMARK UNBOUND:                -1.036
REMARK  Name = 
REMARK  8 active torsions:
REMARK  status: ('A' for Active; 'I' for Inactive)
REMARK    1  A    between atoms: C_1  and  C_2
REMARK    2  A    between atoms: C_2  and  N_3
REMARK    3  A    between atoms: C_2  and  C_19
REMARK    4  A    between atoms: N_3  and  C_4
REMARK    5  A    between atoms: C_7  and  C_8
REMARK    6  A    between atoms: C_8  and  O_9
REMARK    7  A    between atoms: C_8  and  C_10
REMARK    8  A    between atoms: C_10  and  C_11
REMARK                            x       y       z     vdW  Elec       q    Type
REMARK                         _______ _______ _______ _____ _____    ______ ____
ROOT
ATOM      1  C   UNL     1      46.090   6.523  12.712  0.00  0.00    +0.000 A 
ATOM      2  C   UNL     1      46.016   5.283  13.363  0.00  0.00    +0.000 A 
ATOM      3  C   UNL     1      45.610   4.126  12.691  0.00  0.00    +0.000 A 
ATOM      4  C   UNL     1      45.222   4.192  11.350  0.00  0.00    +0.000 A 
ATOM      5  C   UNL     1      45.233   5.449  10.719  0.00  0.00    +0.000 A 
ATOM      6  C   UNL     1      45.666   6.592  11.389  0.00  0.00    +0.000 A 
ENDROOT
BRANCH   1   7
ATOM      7  N   UNL     1      46.450   7.631  13.474  0.00  0.00    +0.000 N 
ATOM      8  H   UNL     1      45.771   8.371  13.293  0.00  0.00    +0.000 HD
BRANCH   7  10
ATOM      9  C   UNL     1      48.172   8.758  14.852  0.00  0.00    +0.000 C 
ATOM     10  C   UNL     1      47.812   8.203  13.464  0.00  0.00    +0.000 C 
BRANCH  10  11
ATOM     11  C   UNL     1      47.918   9.345  12.466  0.00  0.00    +0.000 A 
ATOM     12  C   UNL     1      46.863  10.196  12.171  0.00  0.00    +0.000 A 
ATOM     13  S   UNL     1      47.281  11.435  11.080  0.00  0.00    +0.000 S 
ATOM     14  C   UNL     1      48.886  10.875  10.973  0.00  0.00    +0.000 A 
ATOM     15  N   UNL     1      49.802  11.516  10.201  0.00  0.00    +0.000 NA
ATOM     16  C   UNL     1      50.980  10.986  10.229  0.00  0.00    +0.000 A 
ATOM     17  N   UNL     1      51.325   9.869  10.950  0.00  0.00    +0.000 N 
ATOM     18  C   UNL     1      50.434   9.189  11.752  0.00  0.00    +0.000 A 
ATOM     19  O   UNL     1      50.767   8.206  12.406  0.00  0.00    +0.000 OA
ATOM     20  C   UNL     1      49.097   9.751  11.748  0.00  0.00    +0.000 A 
ATOM     21  H   UNL     1      52.267   9.511  10.923  0.00  0.00    +0.000 HD
ENDBRANCH  10  11
ENDBRANCH   7  10
ENDBRANCH   1   7
BRANCH   4  22
ATOM     22  C   UNL     1      44.751   2.942  10.638  0.00  0.00    +0.000 C 
BRANCH  22  23
ATOM     23  O   UNL     1      43.608   2.465  11.347  0.00  0.00    +0.000 OA
ATOM     24  H   UNL     1      43.552   1.506  11.195  0.00  0.00    +0.000 HD
ENDBRANCH  22  23
BRANCH  22  25
ATOM     25  C   UNL     1      44.450   3.167   9.144  0.00  0.00    +0.000 C 
BRANCH  25  26
ATOM     26  C   UNL     1      45.515   2.620   8.239  0.00  0.00    +0.000 A 
ATOM     27  C   UNL     1      46.063   3.396   7.226  0.00  0.00    +0.000 A 
ATOM     28  C   UNL     1      47.085   2.857   6.452  0.00  0.00    +0.000 A 
ATOM     29  C   UNL     1      47.519   1.561   6.704  0.00  0.00    +0.000 A 
ATOM     30  C   UNL     1      46.901   0.848   7.715  0.00  0.00    +0.000 A 
ATOM     31  N   UNL     1      45.911   1.345   8.483  0.00  0.00    +0.000 NA
ENDBRANCH  25  26
ENDBRANCH  22  25
ENDBRANCH   4  22
TORSDOF 7
ENDMDL
MODEL 4
REMARK VINA RESULT:    -7.558      2.388      2.807
REMARK INTER + INTRA:         -11.465
REMARK INTER:                 -10.622
REMARK INTRA:                  -0.844
REMARK UNBOUND:                -1.036
REMARK  Name = 
REMARK  8 active torsions:
REMARK  status: ('A' for Active; 'I' for Inactive)
REMARK    1  A    between atoms: C_1  and  C_2
REMARK    2  A    between atoms: C_2  and  N_3
REMARK    3  A    between atoms: C_2  and  C_19
REMARK    4  A    between atoms: N_3  and  C_4
REMARK    5  A    between atoms: C_7  and  C_8
REMARK    6  A    between atoms: C_8  and  O_9
REMARK    7  A    between atoms: C_8  and  C_10
REMARK    8  A    between atoms: C_10  and  C_11
REMARK                            x       y       z     vdW  Elec       q    Type
REMARK                         _______ _______ _______ _____ _____    ______ ____
ROOT
ATOM      1  C   UNL     1      46.485   5.246  13.790  0.00  0.00    +0.000 A 
ATOM      2  C   UNL     1      46.539   3.850  13.664  0.00  0.00    +0.000 A 
ATOM      3  C   UNL     1      45.849   3.181  12.648  0.00  0.00    +0.000 A 
ATOM      4  C   UNL     1      45.046   3.894  11.754  0.00  0.00    +0.000 A 
ATOM      5  C   UNL     1      44.941   5.287  11.926  0.00  0.00    +0.000 A 
ATOM      6  C   UNL     1      45.655   5.949  12.924  0.00  0.00    +0.000 A 
ENDROOT
BRANCH   1   7
ATOM      7  N   UNL     1      47.157   5.822  14.864  0.00  0.00    +0.000 N 
ATOM      8  H   UNL     1      47.628   6.662  14.527  0.00  0.00    +0.000 HD
BRANCH   7  10
ATOM      9  C   UNL     1      47.282   4.254  16.778  0.00  0.00    +0.000 C 
ATOM     10  C   UNL     1      48.076   5.062  15.737  0.00  0.00    +0.000 C 
BRANCH  10  11
ATOM     11  C   UNL     1      49.012   5.995  16.489  0.00  0.00    +0.000 A 
ATOM     12  C   UNL     1      49.172   5.961  17.867  0.00  0.00    +0.000 A 
ATOM     13  S   UNL     1      50.342   7.060  18.437  0.00  0.00    +0.000 S 
ATOM     14  C   UNL     1      50.674   7.609  16.859  0.00  0.00    +0.000 A 
ATOM     15  N   UNL     1      51.617   8.560  16.633  0.00  0.00    +0.000 NA
ATOM     16  C   UNL     1      51.770   8.867  15.387  0.00  0.00    +0.000 A 
ATOM     17  N   UNL     1      51.059   8.317  14.347  0.00  0.00    +0.000 N 
ATOM     18  C   UNL     1      50.098   7.346  14.526  0.00  0.00    +0.000 A 
ATOM     19  O   UNL     1      49.490   6.852  13.582  0.00  0.00    +0.000 OA
ATOM     20  C   UNL     1      49.894   6.973  15.913  0.00  0.00    +0.000 A 
ATOM     21  H   UNL     1      51.233   8.607  13.397  0.00  0.00    +0.000 HD
ENDBRANCH  10  11
ENDBRANCH   7  10
ENDBRANCH   1   7
BRANCH   4  22
ATOM     22  C   UNL     1      44.275   3.160  10.679  0.00  0.00    +0.000 C 
BRANCH  22  23
ATOM     23  O   UNL     1      42.922   3.068  11.126  0.00  0.00    +0.000 OA
ATOM     24  H   UNL     1      42.833   3.651  11.899  0.00  0.00    +0.000 HD
ENDBRANCH  22  23
BRANCH  22  25
ATOM     25  C   UNL     1      44.380   3.821   9.292  0.00  0.00    +0.000 C 
BRANCH  25  26
ATOM     26  C   UNL     1      45.381   3.153   8.394  0.00  0.00    +0.000 A 
ATOM     27  C   UNL     1      45.784   1.843   8.618  0.00  0.00    +0.000 A 
ATOM     28  C   UNL     1      46.672   1.257   7.723  0.00  0.00    +0.000 A 
ATOM     29  C   UNL     1      47.139   1.997   6.644  0.00  0.00    +0.000 A 
ATOM     30  C   UNL     1      46.708   3.304   6.510  0.00  0.00    +0.000 A 
ATOM     31  N   UNL     1      45.845   3.898   7.358  0.00  0.00    +0.000 NA
ENDBRANCH  25  26
ENDBRANCH  22  25
ENDBRANCH   4  22
TORSDOF 7
ENDMDL
MODEL 5
REMARK VINA RESULT:    -7.516      1.872      2.391
REMARK INTER + INTRA:         -11.408
REMARK INTER:                 -10.290
REMARK INTRA:                  -1.118
REMARK UNBOUND:                -1.036
REMARK  Name = 
REMARK  8 active torsions:
REMARK  status: ('A' for Active; 'I' for Inactive)
REMARK    1  A    between atoms: C_1  and  C_2
REMARK    2  A    between atoms: C_2  and  N_3
REMARK    3  A    between atoms: C_2  and  C_19
REMARK    4  A    between atoms: N_3  and  C_4
REMARK    5  A    between atoms: C_7  and  C_8
REMARK    6  A    between atoms: C_8  and  O_9
REMARK    7  A    between atoms: C_8  and  C_10
REMARK    8  A    between atoms: C_10  and  C_11
REMARK                            x       y       z     vdW  Elec       q    Type
REMARK                         _______ _______ _______ _____ _____    ______ ____
ROOT
ATOM      1  C   UNL     1      47.323   6.213  13.091  0.00  0.00    +0.000 A 
ATOM      2  C   UNL     1      46.599   6.742  12.014  0.00  0.00    +0.000 A 
ATOM      3  C   UNL     1      45.530   6.047  11.438  0.00  0.00    +0.000 A 
ATOM      4  C   UNL     1      45.187   4.774  11.902  0.00  0.00    +0.000 A 
ATOM      5  C   UNL     1      45.960   4.218  12.938  0.00  0.00    +0.000 A 
ATOM      6  C   UNL     1      47.005   4.930  13.525  0.00  0.00    +0.000 A 
ENDROOT
BRANCH   1   7
ATOM      7  N   UNL     1      48.406   6.949  13.564  0.00  0.00    +0.000 N 
ATOM      8  H   UNL     1      49.260   6.459  13.296  0.00  0.00    +0.000 HD
BRANCH   7  10
ATOM      9  C   UNL     1      48.461   8.934  15.044  0.00  0.00    +0.000 C 
ATOM     10  C   UNL     1      48.518   7.399  14.966  0.00  0.00    +0.000 C 
BRANCH  10  11
ATOM     11  C   UNL     1      49.836   6.952  15.579  0.00  0.00    +0.000 A 
ATOM     12  C   UNL     1      51.045   7.582  15.322  0.00  0.00    +0.000 A 
ATOM     13  S   UNL     1      52.347   6.926  16.202  0.00  0.00    +0.000 S 
ATOM     14  C   UNL     1      51.334   5.786  16.959  0.00  0.00    +0.000 A 
ATOM     15  N   UNL     1      51.825   4.907  17.871  0.00  0.00    +0.000 NA
ATOM     16  C   UNL     1      50.938   4.112  18.371  0.00  0.00    +0.000 A 
ATOM     17  N   UNL     1      49.605   4.109  18.037  0.00  0.00    +0.000 N 
ATOM     18  C   UNL     1      49.059   4.985  17.123  0.00  0.00    +0.000 A 
ATOM     19  O   UNL     1      47.862   4.980  16.855  0.00  0.00    +0.000 OA
ATOM     20  C   UNL     1      50.023   5.895  16.536  0.00  0.00    +0.000 A 
ATOM     21  H   UNL     1      48.969   3.458  18.469  0.00  0.00    +0.000 HD
ENDBRANCH  10  11
ENDBRANCH   7  10
ENDBRANCH   1   7
BRANCH   4  22
ATOM     22  C   UNL     1      44.052   4.014  11.252  0.00  0.00    +0.000 C 
BRANCH  22  23
ATOM     23  O   UNL     1      42.860   4.364  11.955  0.00  0.00    +0.000 OA
ATOM     24  H   UNL     1      42.437   5.089  11.464  0.00  0.00    +0.000 HD
ENDBRANCH  22  23
BRANCH  22  25
ATOM     25  C   UNL     1      43.928   4.276   9.740  0.00  0.00    +0.000 C 
BRANCH  25  26
ATOM     26  C   UNL     1      44.950   3.537   8.926  0.00  0.00    +0.000 A 
ATOM     27  C   UNL     1      45.166   2.178   9.111  0.00  0.00    +0.000 A 
ATOM     28  C   UNL     1      46.087   1.533   8.292  0.00  0.00    +0.000 A 
ATOM     29  C   UNL     1      46.769   2.264   7.326  0.00  0.00    +0.000 A 
ATOM     30  C   UNL     1      46.512   3.618   7.228  0.00  0.00    +0.000 A 
ATOM     31  N   UNL     1      45.623   4.270   8.003  0.00  0.00    +0.000 NA
ENDBRANCH  25  26
ENDBRANCH  22  25
ENDBRANCH   4  22
TORSDOF 7
ENDMDL
MODEL 6
REMARK VINA RESULT:    -7.387      1.843      2.249
REMARK INTER + INTRA:         -11.230
REMARK INTER:                 -10.723
REMARK INTRA:                  -0.507
REMARK UNBOUND:                -1.036
REMARK  Name = 
REMARK  8 active torsions:
REMARK  status: ('A' for Active; 'I' for Inactive)
REMARK    1  A    between atoms: C_1  and  C_2
REMARK    2  A    between atoms: C_2  and  N_3
REMARK    3  A    between atoms: C_2  and  C_19
REMARK    4  A    between atoms: N_3  and  C_4
REMARK    5  A    between atoms: C_7  and  C_8
REMARK    6  A    between atoms: C_8  and  O_9
REMARK    7  A    between atoms: C_8  and  C_10
REMARK    8  A    between atoms: C_10  and  C_11
REMARK                            x       y       z     vdW  Elec       q    Type
REMARK                         _______ _______ _______ _____ _____    ______ ____
ROOT
ATOM      1  C   UNL     1      46.777   5.022  13.685  0.00  0.00    +0.000 A 
ATOM      2  C   UNL     1      46.321   3.745  13.329  0.00  0.00    +0.000 A 
ATOM      3  C   UNL     1      45.545   3.538  12.184  0.00  0.00    +0.000 A 
ATOM      4  C   UNL     1      45.167   4.620  11.385  0.00  0.00    +0.000 A 
ATOM      5  C   UNL     1      45.569   5.908  11.783  0.00  0.00    +0.000 A 
ATOM      6  C   UNL     1      46.366   6.102  12.910  0.00  0.00    +0.000 A 
ENDROOT
BRANCH   1   7
ATOM      7  N   UNL     1      47.495   5.144  14.871  0.00  0.00    +0.000 N 
ATOM      8  H   UNL     1      46.900   4.819  15.634  0.00  0.00    +0.000 HD
BRANCH   7  10
ATOM      9  C   UNL     1      48.918   7.011  14.080  0.00  0.00    +0.000 C 
ATOM     10  C   UNL     1      48.171   6.394  15.275  0.00  0.00    +0.000 C 
BRANCH  10  11
ATOM     11  C   UNL     1      49.189   6.135  16.374  0.00  0.00    +0.000 A 
ATOM     12  C   UNL     1      50.504   6.573  16.310  0.00  0.00    +0.000 A 
ATOM     13  S   UNL     1      51.402   6.215  17.712  0.00  0.00    +0.000 S 
ATOM     14  C   UNL     1      50.059   5.470  18.450  0.00  0.00    +0.000 A 
ATOM     15  N   UNL     1      50.145   4.953  19.703  0.00  0.00    +0.000 NA
ATOM     16  C   UNL     1      49.044   4.432  20.136  0.00  0.00    +0.000 A 
ATOM     17  N   UNL     1      47.869   4.373  19.429  0.00  0.00    +0.000 N 
ATOM     18  C   UNL     1      47.731   4.889  18.158  0.00  0.00    +0.000 A 
ATOM     19  O   UNL     1      46.665   4.845  17.552  0.00  0.00    +0.000 OA
ATOM     20  C   UNL     1      48.945   5.482  17.632  0.00  0.00    +0.000 A 
ATOM     21  H   UNL     1      47.047   3.950  19.832  0.00  0.00    +0.000 HD
ENDBRANCH  10  11
ENDBRANCH   7  10
ENDBRANCH   1   7
BRANCH   4  22
ATOM     22  C   UNL     1      44.299   4.392  10.167  0.00  0.00    +0.000 C 
BRANCH  22  23
ATOM     23  O   UNL     1      43.118   5.175  10.345  0.00  0.00    +0.000 OA
ATOM     24  H   UNL     1      42.738   4.934  11.207  0.00  0.00    +0.000 HD
ENDBRANCH  22  23
BRANCH  22  25
ATOM     25  C   UNL     1      45.011   4.716   8.840  0.00  0.00    +0.000 C 
BRANCH  25  26
ATOM     26  C   UNL     1      45.781   3.554   8.284  0.00  0.00    +0.000 A 
ATOM     27  C   UNL     1      45.515   2.255   8.697  0.00  0.00    +0.000 A 
ATOM     28  C   UNL     1      46.221   1.211   8.108  0.00  0.00    +0.000 A 
ATOM     29  C   UNL     1      47.176   1.496   7.140  0.00  0.00    +0.000 A 
ATOM     30  C   UNL     1      47.397   2.819   6.807  0.00  0.00    +0.000 A 
ATOM     31  N   UNL     1      46.725   3.851   7.356  0.00  0.00    +0.000 NA
ENDBRANCH  25  26
ENDBRANCH  22  25
ENDBRANCH   4  22
TORSDOF 7
ENDMDL
MODEL 7
REMARK VINA RESULT:    -7.370      1.797      2.413
REMARK INTER + INTRA:         -11.206
REMARK INTER:                 -10.244
REMARK INTRA:                  -0.962
REMARK UNBOUND:                -1.036
REMARK  Name = 
REMARK  8 active torsions:
REMARK  status: ('A' for Active; 'I' for Inactive)
REMARK    1  A    between atoms: C_1  and  C_2
REMARK    2  A    between atoms: C_2  and  N_3
REMARK    3  A    between atoms: C_2  and  C_19
REMARK    4  A    between atoms: N_3  and  C_4
REMARK    5  A    between atoms: C_7  and  C_8
REMARK    6  A    between atoms: C_8  and  O_9
REMARK    7  A    between atoms: C_8  and  C_10
REMARK    8  A    between atoms: C_10  and  C_11
REMARK                            x       y       z     vdW  Elec       q    Type
REMARK                         _______ _______ _______ _____ _____    ______ ____
ROOT
ATOM      1  C   UNL     1      48.213   6.119  14.875  0.00  0.00    +0.000 A 
ATOM      2  C   UNL     1      47.356   5.033  14.645  0.00  0.00    +0.000 A 
ATOM      3  C   UNL     1      46.374   5.074  13.650  0.00  0.00    +0.000 A 
ATOM      4  C   UNL     1      46.195   6.229  12.884  0.00  0.00    +0.000 A 
ATOM      5  C   UNL     1      47.011   7.341  13.164  0.00  0.00    +0.000 A 
ATOM      6  C   UNL     1      48.006   7.281  14.139  0.00  0.00    +0.000 A 
ENDROOT
BRANCH   1   7
ATOM      7  N   UNL     1      49.123   6.013  15.923  0.00  0.00    +0.000 N 
ATOM      8  H   UNL     1      50.057   5.927  15.522  0.00  0.00    +0.000 HD
BRANCH   7  10
ATOM      9  C   UNL     1      48.164   5.652  18.179  0.00  0.00    +0.000 C 
ATOM     10  C   UNL     1      48.969   5.037  17.022  0.00  0.00    +0.000 C 
BRANCH  10  11
ATOM     11  C   UNL     1      50.323   4.617  17.572  0.00  0.00    +0.000 A 
ATOM     12  C   UNL     1      51.152   5.472  18.284  0.00  0.00    +0.000 A 
ATOM     13  S   UNL     1      52.571   4.718  18.850  0.00  0.00    +0.000 S 
ATOM     14  C   UNL     1      52.117   3.225  18.167  0.00  0.00    +0.000 A 
ATOM     15  N   UNL     1      52.899   2.124  18.306  0.00  0.00    +0.000 NA
ATOM     16  C   UNL     1      52.421   1.061  17.747  0.00  0.00    +0.000 A 
ATOM     17  N   UNL     1      51.236   1.001  17.055  0.00  0.00    +0.000 N 
ATOM     18  C   UNL     1      50.405   2.088  16.893  0.00  0.00    +0.000 A 
ATOM     19  O   UNL     1      49.340   2.007  16.290  0.00  0.00    +0.000 OA
ATOM     20  C   UNL     1      50.907   3.304  17.504  0.00  0.00    +0.000 A 
ATOM     21  H   UNL     1      50.925   0.134  16.645  0.00  0.00    +0.000 HD
ENDBRANCH  10  11
ENDBRANCH   7  10
ENDBRANCH   1   7
BRANCH   4  22
ATOM     22  C   UNL     1      45.108   6.277  11.833  0.00  0.00    +0.000 C 
BRANCH  22  23
ATOM     23  O   UNL     1      44.444   7.533  11.978  0.00  0.00    +0.000 OA
ATOM     24  H   UNL     1      44.974   8.196  11.503  0.00  0.00    +0.000 HD
ENDBRANCH  22  23
BRANCH  22  25
ATOM     25  C   UNL     1      45.634   6.065  10.401  0.00  0.00    +0.000 C 
BRANCH  25  26
ATOM     26  C   UNL     1      45.250   4.734   9.822  0.00  0.00    +0.000 A 
ATOM     27  C   UNL     1      45.617   4.381   8.530  0.00  0.00    +0.000 A 
ATOM     28  C   UNL     1      45.281   3.114   8.065  0.00  0.00    +0.000 A 
ATOM     29  C   UNL     1      44.582   2.247   8.896  0.00  0.00    +0.000 A 
ATOM     30  C   UNL     1      44.232   2.688  10.158  0.00  0.00    +0.000 A 
ATOM     31  N   UNL     1      44.547   3.908  10.638  0.00  0.00    +0.000 NA
ENDBRANCH  25  26
ENDBRANCH  22  25
ENDBRANCH   4  22
TORSDOF 7
ENDMDL
MODEL 8
REMARK VINA RESULT:    -7.119      2.990      3.975
REMARK INTER + INTRA:         -10.860
REMARK INTER:                  -9.603
REMARK INTRA:                  -1.257
REMARK UNBOUND:                -1.036
REMARK  Name = 
REMARK  8 active torsions:
REMARK  status: ('A' for Active; 'I' for Inactive)
REMARK    1  A    between atoms: C_1  and  C_2
REMARK    2  A    between atoms: C_2  and  N_3
REMARK    3  A    between atoms: C_2  and  C_19
REMARK    4  A    between atoms: N_3  and  C_4
REMARK    5  A    between atoms: C_7  and  C_8
REMARK    6  A    between atoms: C_8  and  O_9
REMARK    7  A    between atoms: C_8  and  C_10
REMARK    8  A    between atoms: C_10  and  C_11
REMARK                            x       y       z     vdW  Elec       q    Type
REMARK                         _______ _______ _______ _____ _____    ______ ____
ROOT
ATOM      1  C   UNL     1      47.526   6.626  13.576  0.00  0.00    +0.000 A 
ATOM      2  C   UNL     1      47.200   5.295  13.867  0.00  0.00    +0.000 A 
ATOM      3  C   UNL     1      45.968   4.745  13.496  0.00  0.00    +0.000 A 
ATOM      4  C   UNL     1      45.009   5.536  12.858  0.00  0.00    +0.000 A 
ATOM      5  C   UNL     1      45.314   6.890  12.629  0.00  0.00    +0.000 A 
ATOM      6  C   UNL     1      46.555   7.421  12.977  0.00  0.00    +0.000 A 
ENDROOT
BRANCH   1   7
ATOM      7  N   UNL     1      48.751   7.105  14.034  0.00  0.00    +0.000 N 
ATOM      8  H   UNL     1      49.379   6.309  14.143  0.00  0.00    +0.000 HD
BRANCH   7  10
ATOM      9  C   UNL     1      50.126   8.882  15.078  0.00  0.00    +0.000 C 
ATOM     10  C   UNL     1      48.876   7.995  15.207  0.00  0.00    +0.000 C 
BRANCH  10  11
ATOM     11  C   UNL     1      49.009   7.190  16.490  0.00  0.00    +0.000 A 
ATOM     12  C   UNL     1      49.647   5.959  16.552  0.00  0.00    +0.000 A 
ATOM     13  S   UNL     1      49.722   5.317  18.127  0.00  0.00    +0.000 S 
ATOM     14  C   UNL     1      48.911   6.667  18.776  0.00  0.00    +0.000 A 
ATOM     15  N   UNL     1      48.664   6.763  20.108  0.00  0.00    +0.000 NA
ATOM     16  C   UNL     1      48.053   7.848  20.456  0.00  0.00    +0.000 A 
ATOM     17  N   UNL     1      47.659   8.841  19.592  0.00  0.00    +0.000 N 
ATOM     18  C   UNL     1      47.893   8.792  18.235  0.00  0.00    +0.000 A 
ATOM     19  O   UNL     1      47.552   9.700  17.485  0.00  0.00    +0.000 OA
ATOM     20  C   UNL     1      48.575   7.588  17.802  0.00  0.00    +0.000 A 
ATOM     21  H   UNL     1      47.186   9.662  19.936  0.00  0.00    +0.000 HD
ENDBRANCH  10  11
ENDBRANCH   7  10
ENDBRANCH   1   7
BRANCH   4  22
ATOM     22  C   UNL     1      43.666   4.943  12.490  0.00  0.00    +0.000 C 
BRANCH  22  23
ATOM     23  O   UNL     1      42.703   5.512  13.377  0.00  0.00    +0.000 OA
ATOM     24  H   UNL     1      42.467   4.827  14.026  0.00  0.00    +0.000 HD
ENDBRANCH  22  23
BRANCH  22  25
ATOM     25  C   UNL     1      43.287   5.160  11.013  0.00  0.00    +0.000 C 
BRANCH  25  26
ATOM     26  C   UNL     1      44.064   4.287  10.070  0.00  0.00    +0.000 A 
ATOM     27  C   UNL     1      44.976   4.832   9.176  0.00  0.00    +0.000 A 
ATOM     28  C   UNL     1      45.708   3.972   8.364  0.00  0.00    +0.000 A 
ATOM     29  C   UNL     1      45.498   2.602   8.460  0.00  0.00    +0.000 A 
ATOM     30  C   UNL     1      44.551   2.145   9.358  0.00  0.00    +0.000 A 
ATOM     31  N   UNL     1      43.830   2.953  10.161  0.00  0.00    +0.000 NA
ENDBRANCH  25  26
ENDBRANCH  22  25
ENDBRANCH   4  22
TORSDOF 7
ENDMDL
MODEL 9
REMARK VINA RESULT:    -7.027      2.669      3.492
REMARK INTER + INTRA:         -10.733
REMARK INTER:                  -9.947
REMARK INTRA:                  -0.787
REMARK UNBOUND:                -1.036
REMARK  Name = 
REMARK  8 active torsions:
REMARK  status: ('A' for Active; 'I' for Inactive)
REMARK    1  A    between atoms: C_1  and  C_2
REMARK    2  A    between atoms: C_2  and  N_3
REMARK    3  A    between atoms: C_2  and  C_19
REMARK    4  A    between atoms: N_3  and  C_4
REMARK    5  A    between atoms: C_7  and  C_8
REMARK    6  A    between atoms: C_8  and  O_9
REMARK    7  A    between atoms: C_8  and  C_10
REMARK    8  A    between atoms: C_10  and  C_11
REMARK                            x       y       z     vdW  Elec       q    Type
REMARK                         _______ _______ _______ _____ _____    ______ ____
ROOT
ATOM      1  C   UNL     1      46.678   5.281  13.596  0.00  0.00    +0.000 A 
ATOM      2  C   UNL     1      46.246   3.981  13.298  0.00  0.00    +0.000 A 
ATOM      3  C   UNL     1      45.558   3.692  12.115  0.00  0.00    +0.000 A 
ATOM      4  C   UNL     1      45.244   4.715  11.216  0.00  0.00    +0.000 A 
ATOM      5  C   UNL     1      45.619   6.029  11.552  0.00  0.00    +0.000 A 
ATOM      6  C   UNL     1      46.329   6.303  12.720  0.00  0.00    +0.000 A 
ENDROOT
BRANCH   1   7
ATOM      7  N   UNL     1      47.306   5.486  14.822  0.00  0.00    +0.000 N 
ATOM      8  H   UNL     1      46.612   5.348  15.558  0.00  0.00    +0.000 HD
BRANCH   7  10
ATOM      9  C   UNL     1      49.235   6.858  14.092  0.00  0.00    +0.000 C 
ATOM     10  C   UNL     1      48.104   6.693  15.121  0.00  0.00    +0.000 C 
BRANCH  10  11
ATOM     11  C   UNL     1      48.742   6.597  16.499  0.00  0.00    +0.000 A 
ATOM     12  C   UNL     1      49.312   5.433  16.992  0.00  0.00    +0.000 A 
ATOM     13  S   UNL     1      50.024   5.630  18.527  0.00  0.00    +0.000 S 
ATOM     14  C   UNL     1      49.599   7.278  18.575  0.00  0.00    +0.000 A 
ATOM     15  N   UNL     1      49.937   8.059  19.633  0.00  0.00    +0.000 NA
ATOM     16  C   UNL     1      49.560   9.291  19.524  0.00  0.00    +0.000 A 
ATOM     17  N   UNL     1      48.867   9.810  18.457  0.00  0.00    +0.000 N 
ATOM     18  C   UNL     1      48.507   9.060  17.359  0.00  0.00    +0.000 A 
ATOM     19  O   UNL     1      47.908   9.549  16.407  0.00  0.00    +0.000 OA
ATOM     20  C   UNL     1      48.911   7.670  17.442  0.00  0.00    +0.000 A 
ATOM     21  H   UNL     1      48.605  10.784  18.441  0.00  0.00    +0.000 HD
ENDBRANCH  10  11
ENDBRANCH   7  10
ENDBRANCH   1   7
BRANCH   4  22
ATOM     22  C   UNL     1      44.469   4.401   9.955  0.00  0.00    +0.000 C 
BRANCH  22  23
ATOM     23  O   UNL     1      43.268   5.172  10.001  0.00  0.00    +0.000 OA
ATOM     24  H   UNL     1      42.831   4.976  10.847  0.00  0.00    +0.000 HD
ENDBRANCH  22  23
BRANCH  22  25
ATOM     25  C   UNL     1      45.271   4.658   8.665  0.00  0.00    +0.000 C 
BRANCH  25  26
ATOM     26  C   UNL     1      45.978   3.436   8.155  0.00  0.00    +0.000 A 
ATOM     27  C   UNL     1      45.614   2.167   8.585  0.00  0.00    +0.000 A 
ATOM     28  C   UNL     1      46.266   1.067   8.038  0.00  0.00    +0.000 A 
ATOM     29  C   UNL     1      47.266   1.268   7.094  0.00  0.00    +0.000 A 
ATOM     30  C   UNL     1      47.584   2.566   6.743  0.00  0.00    +0.000 A 
ATOM     31  N   UNL     1      46.967   3.651   7.251  0.00  0.00    +0.000 NA
ENDBRANCH  25  26
ENDBRANCH  22  25
ENDBRANCH   4  22
TORSDOF 7
ENDMDL
