MODEL 1
REMARK VINA RESULT:    -8.299      0.000      0.000
REMARK INTER + INTRA:         -14.570
REMARK INTER:                 -12.907
REMARK INTRA:                  -1.662
REMARK UNBOUND:                -1.662
REMARK  Name = 
REMARK  10 active torsions:
REMARK  status: ('A' for Active; 'I' for Inactive)
REMARK    1  A    between atoms: C_2  and  C_23
REMARK    2  A    between atoms: N_3  and  C_4
REMARK    3  A    between atoms: C_4  and  C_5
REMARK    4  A    between atoms: C_8  and  C_9
REMARK    5  A    between atoms: C_9  and  N_10
REMARK    6  A    between atoms: N_10  and  C_11
REMARK    7  A    between atoms: N_10  and  C_14
REMARK    8  A    between atoms: C_11  and  C_12
REMARK    9  A    between atoms: C_12  and  O_13
REMARK   10  A    between atoms: C_14  and  C_15
REMARK                            x       y       z     vdW  Elec       q    Type
REMARK                         _______ _______ _______ _____ _____    ______ ____
ROOT
ATOM      1  C   UNL     1      46.770   7.832  12.825  0.00  0.00    +0.000 A 
ATOM      2  C   UNL     1      47.263   6.799  12.026  0.00  0.00    +0.000 A 
ATOM      3  C   UNL     1      46.374   6.061  11.248  0.00  0.00    +0.000 A 
ATOM      4  C   UNL     1      45.005   6.327  11.320  0.00  0.00    +0.000 A 
ATOM      5  C   UNL     1      44.608   7.403  12.106  0.00  0.00    +0.000 A 
ATOM      6  N   UNL     1      45.451   8.147  12.861  0.00  0.00    +0.000 NA
ENDROOT
BRANCH   1   7
ATOM      7  C   UNL     1      47.692   8.570  13.770  0.00  0.00    +0.000 C 
BRANCH   7  10
ATOM      8  O   UNL     1      50.164   7.353  14.406  0.00  0.00    +0.000 OA
ATOM      9  C   UNL     1      49.194   7.165  15.137  0.00  0.00    +0.000 C 
ATOM     10  N   UNL     1      47.987   7.780  14.944  0.00  0.00    +0.000 N 
ATOM     11  H   UNL     1      47.212   7.580  15.562  0.00  0.00    +0.000 HD
BRANCH   9  12
ATOM     12  C   UNL     1      49.275   6.323  16.333  0.00  0.00    +0.000 A 
ATOM     13  C   UNL     1      50.132   6.625  17.380  0.00  0.00    +0.000 A 
ATOM     14  S   UNL     1      49.979   5.556  18.702  0.00  0.00    +0.000 S 
ATOM     15  C   UNL     1      48.799   4.628  17.895  0.00  0.00    +0.000 A 
ATOM     16  N   UNL     1      48.209   3.551  18.492  0.00  0.00    +0.000 NA
ATOM     17  C   UNL     1      47.342   2.953  17.749  0.00  0.00    +0.000 A 
ATOM     18  N   UNL     1      47.018   3.302  16.459  0.00  0.00    +0.000 N 
ATOM     19  C   UNL     1      47.624   4.352  15.808  0.00  0.00    +0.000 A 
ATOM     20  O   UNL     1      47.360   4.607  14.638  0.00  0.00    +0.000 OA
ATOM     21  C   UNL     1      48.553   5.110  16.625  0.00  0.00    +0.000 A 
ATOM     22  H   UNL     1      46.346   2.774  15.924  0.00  0.00    +0.000 HD
ENDBRANCH   9  12
ENDBRANCH   7  10
ENDBRANCH   1   7
BRANCH   4  23
ATOM     23  C   UNL     1      43.993   5.436  10.638  0.00  0.00    +0.000 C 
BRANCH  23  24
ATOM     24  N   UNL     1      44.536   4.088  10.279  0.00  0.00    +0.000 NA
BRANCH  24  25
ATOM     25  C   UNL     1      43.757   3.025  10.971  0.00  0.00    +0.000 C 
BRANCH  25  26
ATOM     26  C   UNL     1      43.916   2.947  12.504  0.00  0.00    +0.000 C 
BRANCH  26  27
ATOM     27  O   UNL     1      45.278   3.020  12.909  0.00  0.00    +0.000 OA
ATOM     28  H   UNL     1      45.444   3.949  13.150  0.00  0.00    +0.000 HD
ENDBRANCH  26  27
ENDBRANCH  25  26
ENDBRANCH  24  25
BRANCH  24  29
ATOM     29  C   UNL     1      44.473   3.909   8.805  0.00  0.00    +0.000 C 
BRANCH  29  30
ATOM     30  C   UNL     1      45.583   3.049   8.240  0.00  0.00    +0.000 A 
ATOM     31  C   UNL     1      46.498   3.556   7.326  0.00  0.00    +0.000 A 
ATOM     32  C   UNL     1      47.424   2.690   6.765  0.00  0.00    +0.000 A 
ATOM     33  C   UNL     1      47.393   1.366   7.155  0.00  0.00    +0.000 A 
ATOM     34  N   UNL     1      46.517   0.898   8.067  0.00  0.00    +0.000 NA
ATOM     35  N   UNL     1      45.603   1.747   8.613  0.00  0.00    +0.000 NA
ENDBRANCH  29  30
ENDBRANCH  24  29
ENDBRANCH  23  24
ENDBRANCH   4  23
TORSDOF 10
ENDMDL
MODEL 2
REMARK VINA RESULT:    -7.442      2.633      3.761
REMARK INTER + INTRA:         -13.237
REMARK INTER:                 -12.392
REMARK INTRA:                  -0.845
REMARK UNBOUND:                -1.662
REMARK  Name = 
REMARK  10 active torsions:
REMARK  status: ('A' for Active; 'I' for Inactive)
REMARK    1  A    between atoms: C_2  and  C_23
REMARK    2  A    between atoms: N_3  and  C_4
REMARK    3  A    between atoms: C_4  and  C_5
REMARK    4  A    between atoms: C_8  and  C_9
REMARK    5  A    between atoms: C_9  and  N_10
REMARK    6  A    between atoms: N_10  and  C_11
REMARK    7  A    between atoms: N_10  and  C_14
REMARK    8  A    between atoms: C_11  and  C_12
REMARK    9  A    between atoms: C_12  and  O_13
REMARK   10  A    between atoms: C_14  and  C_15
REMARK                            x       y       z     vdW  Elec       q    Type
REMARK                         _______ _______ _______ _____ _____    ______ ____
ROOT
ATOM      1  C   UNL     1      47.111   4.692  14.688  0.00  0.00    +0.000 A 
ATOM      2  C   UNL     1      47.277   5.927  14.061  0.00  0.00    +0.000 A 
ATOM      3  C   UNL     1      46.711   6.131  12.804  0.00  0.00    +0.000 A 
ATOM      4  C   UNL     1      46.036   5.086  12.171  0.00  0.00    +0.000 A 
ATOM      5  C   UNL     1      45.878   3.906  12.889  0.00  0.00    +0.000 A 
ATOM      6  N   UNL     1      46.405   3.684  14.116  0.00  0.00    +0.000 NA
ENDROOT
BRANCH   1   7
ATOM      7  C   UNL     1      47.814   4.400  15.995  0.00  0.00    +0.000 C 
BRANCH   7  10
ATOM      8  O   UNL     1      49.770   6.136  17.071  0.00  0.00    +0.000 OA
ATOM      9  C   UNL     1      48.614   6.201  17.483  0.00  0.00    +0.000 C 
ATOM     10  N   UNL     1      47.594   5.454  16.959  0.00  0.00    +0.000 N 
ATOM     11  H   UNL     1      46.662   5.530  17.343  0.00  0.00    +0.000 HD
BRANCH   9  12
ATOM     12  C   UNL     1      48.213   7.152  18.523  0.00  0.00    +0.000 A 
ATOM     13  C   UNL     1      48.023   6.757  19.837  0.00  0.00    +0.000 A 
ATOM     14  S   UNL     1      47.655   8.056  20.883  0.00  0.00    +0.000 S 
ATOM     15  C   UNL     1      47.689   9.178  19.600  0.00  0.00    +0.000 A 
ATOM     16  N   UNL     1      47.480  10.510  19.814  0.00  0.00    +0.000 NA
ATOM     17  C   UNL     1      47.532  11.224  18.742  0.00  0.00    +0.000 A 
ATOM     18  N   UNL     1      47.747  10.746  17.472  0.00  0.00    +0.000 N 
ATOM     19  C   UNL     1      47.916   9.406  17.210  0.00  0.00    +0.000 A 
ATOM     20  O   UNL     1      48.048   8.997  16.061  0.00  0.00    +0.000 OA
ATOM     21  C   UNL     1      47.944   8.562  18.391  0.00  0.00    +0.000 A 
ATOM     22  H   UNL     1      47.752  11.360  16.672  0.00  0.00    +0.000 HD
ENDBRANCH   9  12
ENDBRANCH   7  10
ENDBRANCH   1   7
BRANCH   4  23
ATOM     23  C   UNL     1      45.568   5.204  10.740  0.00  0.00    +0.000 C 
BRANCH  23  24
ATOM     24  N   UNL     1      44.504   4.214  10.380  0.00  0.00    +0.000 NA
BRANCH  24  25
ATOM     25  C   UNL     1      43.193   4.649  10.935  0.00  0.00    +0.000 C 
BRANCH  25  26
ATOM     26  C   UNL     1      43.036   6.158  11.216  0.00  0.00    +0.000 C 
BRANCH  26  27
ATOM     27  O   UNL     1      41.790   6.465  11.831  0.00  0.00    +0.000 OA
ATOM     28  H   UNL     1      41.868   7.376  12.169  0.00  0.00    +0.000 HD
ENDBRANCH  26  27
ENDBRANCH  25  26
ENDBRANCH  24  25
BRANCH  24  29
ATOM     29  C   UNL     1      44.431   4.086   8.901  0.00  0.00    +0.000 C 
BRANCH  29  30
ATOM     30  C   UNL     1      45.460   3.146   8.311  0.00  0.00    +0.000 A 
ATOM     31  C   UNL     1      46.319   3.556   7.299  0.00  0.00    +0.000 A 
ATOM     32  C   UNL     1      47.164   2.617   6.727  0.00  0.00    +0.000 A 
ATOM     33  C   UNL     1      47.115   1.323   7.205  0.00  0.00    +0.000 A 
ATOM     34  N   UNL     1      46.297   0.950   8.210  0.00  0.00    +0.000 NA
ATOM     35  N   UNL     1      45.461   1.870   8.767  0.00  0.00    +0.000 NA
ENDBRANCH  29  30
ENDBRANCH  24  29
ENDBRANCH  23  24
ENDBRANCH   4  23
TORSDOF 10
ENDMDL
MODEL 3
REMARK VINA RESULT:    -7.274      2.153      2.467
REMARK INTER + INTRA:         -12.976
REMARK INTER:                 -12.266
REMARK INTRA:                  -0.710
REMARK UNBOUND:                -1.662
REMARK  Name = 
REMARK  10 active torsions:
REMARK  status: ('A' for Active; 'I' for Inactive)
REMARK    1  A    between atoms: C_2  and  C_23
REMARK    2  A    between atoms: N_3  and  C_4
REMARK    3  A    between atoms: C_4  and  C_5
REMARK    4  A    between atoms: C_8  and  C_9
REMARK    5  A    between atoms: C_9  and  N_10
REMARK    6  A    between atoms: N_10  and  C_11
REMARK    7  A    between atoms: N_10  and  C_14
REMARK    8  A    between atoms: C_11  and  C_12
REMARK    9  A    between atoms: C_12  and  O_13
REMARK   10  A    between atoms: C_14  and  C_15
REMARK                            x       y       z     vdW  Elec       q    Type
REMARK                         _______ _______ _______ _____ _____    ______ ____
ROOT
ATOM      1  C   UNL     1      47.925   6.851  14.038  0.00  0.00    +0.000 A 
ATOM      2  C   UNL     1      47.136   5.701  14.008  0.00  0.00    +0.000 A 
ATOM      3  C   UNL     1      46.518   5.332  12.815  0.00  0.00    +0.000 A 
ATOM      4  C   UNL     1      46.652   6.144  11.687  0.00  0.00    +0.000 A 
ATOM      5  C   UNL     1      47.494   7.245  11.794  0.00  0.00    +0.000 A 
ATOM      6  N   UNL     1      48.118   7.619  12.936  0.00  0.00    +0.000 NA
ENDROOT
BRANCH   1   7
ATOM      7  C   UNL     1      48.508   7.342  15.344  0.00  0.00    +0.000 C 
BRANCH   7  10
ATOM      8  O   UNL     1      48.601   5.941  17.799  0.00  0.00    +0.000 OA
ATOM      9  C   UNL     1      49.569   5.897  17.042  0.00  0.00    +0.000 C 
ATOM     10  N   UNL     1      49.573   6.479  15.803  0.00  0.00    +0.000 N 
ATOM     11  H   UNL     1      50.399   6.431  15.224  0.00  0.00    +0.000 HD
BRANCH   9  12
ATOM     12  C   UNL     1      50.779   5.140  17.373  0.00  0.00    +0.000 A 
ATOM     13  C   UNL     1      51.961   5.773  17.720  0.00  0.00    +0.000 A 
ATOM     14  S   UNL     1      53.202   4.684  18.158  0.00  0.00    +0.000 S 
ATOM     15  C   UNL     1      52.210   3.333  17.846  0.00  0.00    +0.000 A 
ATOM     16  N   UNL     1      52.658   2.060  18.051  0.00  0.00    +0.000 NA
ATOM     17  C   UNL     1      51.791   1.150  17.764  0.00  0.00    +0.000 A 
ATOM     18  N   UNL     1      50.528   1.377  17.270  0.00  0.00    +0.000 N 
ATOM     19  C   UNL     1      50.058   2.643  17.007  0.00  0.00    +0.000 A 
ATOM     20  O   UNL     1      48.949   2.816  16.512  0.00  0.00    +0.000 OA
ATOM     21  C   UNL     1      50.965   3.710  17.385  0.00  0.00    +0.000 A 
ATOM     22  H   UNL     1      49.907   0.614  17.043  0.00  0.00    +0.000 HD
ENDBRANCH   9  12
ENDBRANCH   7  10
ENDBRANCH   1   7
BRANCH   4  23
ATOM     23  C   UNL     1      45.855   5.882  10.431  0.00  0.00    +0.000 C 
BRANCH  23  24
ATOM     24  N   UNL     1      45.147   4.563  10.440  0.00  0.00    +0.000 NA
BRANCH  24  25
ATOM     25  C   UNL     1      43.952   4.633  11.326  0.00  0.00    +0.000 C 
BRANCH  25  26
ATOM     26  C   UNL     1      43.392   3.287  11.830  0.00  0.00    +0.000 C 
BRANCH  26  27
ATOM     27  O   UNL     1      44.374   2.516  12.512  0.00  0.00    +0.000 OA
ATOM     28  H   UNL     1      43.892   1.815  12.987  0.00  0.00    +0.000 HD
ENDBRANCH  26  27
ENDBRANCH  25  26
ENDBRANCH  24  25
BRANCH  24  29
ATOM     29  C   UNL     1      44.752   4.207   9.054  0.00  0.00    +0.000 C 
BRANCH  29  30
ATOM     30  C   UNL     1      45.698   3.242   8.371  0.00  0.00    +0.000 A 
ATOM     31  C   UNL     1      46.533   3.655   7.340  0.00  0.00    +0.000 A 
ATOM     32  C   UNL     1      47.297   2.701   6.685  0.00  0.00    +0.000 A 
ATOM     33  C   UNL     1      47.193   1.389   7.101  0.00  0.00    +0.000 A 
ATOM     34  N   UNL     1      46.400   1.012   8.123  0.00  0.00    +0.000 NA
ATOM     35  N   UNL     1      45.644   1.947   8.762  0.00  0.00    +0.000 NA
ENDBRANCH  29  30
ENDBRANCH  24  29
ENDBRANCH  23  24
ENDBRANCH   4  23
TORSDOF 10
ENDMDL
MODEL 4
REMARK VINA RESULT:    -7.192      2.124      2.624
REMARK INTER + INTRA:         -12.848
REMARK INTER:                 -11.684
REMARK INTRA:                  -1.164
REMARK UNBOUND:                -1.662
REMARK  Name = 
REMARK  10 active torsions:
REMARK  status: ('A' for Active; 'I' for Inactive)
REMARK    1  A    between atoms: C_2  and  C_23
REMARK    2  A    between atoms: N_3  and  C_4
REMARK    3  A    between atoms: C_4  and  C_5
REMARK    4  A    between atoms: C_8  and  C_9
REMARK    5  A    between atoms: C_9  and  N_10
REMARK    6  A    between atoms: N_10  and  C_11
REMARK    7  A    between atoms: N_10  and  C_14
REMARK    8  A    between atoms: C_11  and  C_12
REMARK    9  A    between atoms: C_12  and  O_13
REMARK   10  A    between atoms: C_14  and  C_15
REMARK                            x       y       z     vdW  Elec       q    Type
REMARK                         _______ _______ _______ _____ _____    ______ ____
ROOT
ATOM      1  C   UNL     1      48.083   6.710  13.335  0.00  0.00    +0.000 A 
ATOM      2  C   UNL     1      47.246   5.654  13.699  0.00  0.00    +0.000 A 
ATOM      3  C   UNL     1      46.225   5.269  12.833  0.00  0.00    +0.000 A 
ATOM      4  C   UNL     1      46.021   5.975  11.646  0.00  0.00    +0.000 A 
ATOM      5  C   UNL     1      46.930   6.982  11.343  0.00  0.00    +0.000 A 
ATOM      6  N   UNL     1      47.939   7.369  12.158  0.00  0.00    +0.000 NA
ENDROOT
BRANCH   1   7
ATOM      7  C   UNL     1      49.121   7.228  14.305  0.00  0.00    +0.000 C 
BRANCH   7  10
ATOM      8  O   UNL     1      50.908   6.211  16.246  0.00  0.00    +0.000 OA
ATOM      9  C   UNL     1      49.714   6.309  16.519  0.00  0.00    +0.000 C 
ATOM     10  N   UNL     1      48.799   6.865  15.667  0.00  0.00    +0.000 N 
ATOM     11  H   UNL     1      47.824   6.908  15.929  0.00  0.00    +0.000 HD
BRANCH   9  12
ATOM     12  C   UNL     1      49.181   5.911  17.825  0.00  0.00    +0.000 A 
ATOM     13  C   UNL     1      49.259   4.603  18.275  0.00  0.00    +0.000 A 
ATOM     14  S   UNL     1      48.660   4.403  19.862  0.00  0.00    +0.000 S 
ATOM     15  C   UNL     1      48.231   6.049  19.973  0.00  0.00    +0.000 A 
ATOM     16  N   UNL     1      47.681   6.565  21.111  0.00  0.00    +0.000 NA
ATOM     17  C   UNL     1      47.409   7.822  21.035  0.00  0.00    +0.000 A 
ATOM     18  N   UNL     1      47.606   8.617  19.930  0.00  0.00    +0.000 N 
ATOM     19  C   UNL     1      48.116   8.124  18.751  0.00  0.00    +0.000 A 
ATOM     20  O   UNL     1      48.227   8.840  17.762  0.00  0.00    +0.000 OA
ATOM     21  C   UNL     1      48.512   6.729  18.806  0.00  0.00    +0.000 A 
ATOM     22  H   UNL     1      47.348   9.592  19.931  0.00  0.00    +0.000 HD
ENDBRANCH   9  12
ENDBRANCH   7  10
ENDBRANCH   1   7
BRANCH   4  23
ATOM     23  C   UNL     1      44.819   5.711  10.770  0.00  0.00    +0.000 C 
BRANCH  23  24
ATOM     24  N   UNL     1      44.690   4.278  10.354  0.00  0.00    +0.000 NA
BRANCH  24  25
ATOM     25  C   UNL     1      43.447   3.692  10.926  0.00  0.00    +0.000 C 
BRANCH  25  26
ATOM     26  C   UNL     1      43.633   2.658  12.056  0.00  0.00    +0.000 C 
BRANCH  26  27
ATOM     27  O   UNL     1      42.931   1.447  11.801  0.00  0.00    +0.000 OA
ATOM     28  H   UNL     1      42.599   1.135  12.662  0.00  0.00    +0.000 HD
ENDBRANCH  26  27
ENDBRANCH  25  26
ENDBRANCH  24  25
BRANCH  24  29
ATOM     29  C   UNL     1      44.676   4.196   8.871  0.00  0.00    +0.000 C 
BRANCH  29  30
ATOM     30  C   UNL     1      45.653   3.190   8.299  0.00  0.00    +0.000 A 
ATOM     31  C   UNL     1      46.559   3.545   7.307  0.00  0.00    +0.000 A 
ATOM     32  C   UNL     1      47.351   2.553   6.750  0.00  0.00    +0.000 A 
ATOM     33  C   UNL     1      47.205   1.264   7.221  0.00  0.00    +0.000 A 
ATOM     34  N   UNL     1      46.342   0.944   8.207  0.00  0.00    +0.000 NA
ATOM     35  N   UNL     1      45.558   1.917   8.749  0.00  0.00    +0.000 NA
ENDBRANCH  29  30
ENDBRANCH  24  29
ENDBRANCH  23  24
ENDBRANCH   4  23
TORSDOF 10
ENDMDL
MODEL 5
REMARK VINA RESULT:    -7.153      1.749      2.038
REMARK INTER + INTRA:         -12.788
REMARK INTER:                 -11.422
REMARK INTRA:                  -1.366
REMARK UNBOUND:                -1.662
REMARK  Name = 
REMARK  10 active torsions:
REMARK  status: ('A' for Active; 'I' for Inactive)
REMARK    1  A    between atoms: C_2  and  C_23
REMARK    2  A    between atoms: N_3  and  C_4
REMARK    3  A    between atoms: C_4  and  C_5
REMARK    4  A    between atoms: C_8  and  C_9
REMARK    5  A    between atoms: C_9  and  N_10
REMARK    6  A    between atoms: N_10  and  C_11
REMARK    7  A    between atoms: N_10  and  C_14
REMARK    8  A    between atoms: C_11  and  C_12
REMARK    9  A    between atoms: C_12  and  O_13
REMARK   10  A    between atoms: C_14  and  C_15
REMARK                            x       y       z     vdW  Elec       q    Type
REMARK                         _______ _______ _______ _____ _____    ______ ____
ROOT
ATOM      1  C   UNL     1      48.340   6.807  13.238  0.00  0.00    +0.000 A 
ATOM      2  C   UNL     1      47.481   5.816  13.714  0.00  0.00    +0.000 A 
ATOM      3  C   UNL     1      46.369   5.460  12.954  0.00  0.00    +0.000 A 
ATOM      4  C   UNL     1      46.100   6.134  11.762  0.00  0.00    +0.000 A 
ATOM      5  C   UNL     1      47.034   7.075  11.341  0.00  0.00    +0.000 A 
ATOM      6  N   UNL     1      48.131   7.430  12.051  0.00  0.00    +0.000 NA
ENDROOT
BRANCH   1   7
ATOM      7  C   UNL     1      49.485   7.298  14.094  0.00  0.00    +0.000 C 
BRANCH   7  10
ATOM      8  O   UNL     1      51.172   8.007  16.251  0.00  0.00    +0.000 OA
ATOM      9  C   UNL     1      50.072   7.512  16.484  0.00  0.00    +0.000 C 
ATOM     10  N   UNL     1      49.166   7.216  15.501  0.00  0.00    +0.000 N 
ATOM     11  H   UNL     1      48.279   6.793  15.741  0.00  0.00    +0.000 HD
BRANCH   9  12
ATOM     12  C   UNL     1      49.602   7.272  17.851  0.00  0.00    +0.000 A 
ATOM     13  C   UNL     1      49.325   8.315  18.719  0.00  0.00    +0.000 A 
ATOM     14  S   UNL     1      48.700   7.791  20.219  0.00  0.00    +0.000 S 
ATOM     15  C   UNL     1      48.831   6.152  19.771  0.00  0.00    +0.000 A 
ATOM     16  N   UNL     1      48.428   5.151  20.608  0.00  0.00    +0.000 NA
ATOM     17  C   UNL     1      48.598   3.969  20.125  0.00  0.00    +0.000 A 
ATOM     18  N   UNL     1      49.151   3.676  18.901  0.00  0.00    +0.000 N 
ATOM     19  C   UNL     1      49.610   4.655  18.049  0.00  0.00    +0.000 A 
ATOM     20  O   UNL     1      50.153   4.366  16.988  0.00  0.00    +0.000 OA
ATOM     21  C   UNL     1      49.373   6.010  18.510  0.00  0.00    +0.000 A 
ATOM     22  H   UNL     1      49.276   2.723  18.594  0.00  0.00    +0.000 HD
ENDBRANCH   9  12
ENDBRANCH   7  10
ENDBRANCH   1   7
BRANCH   4  23
ATOM     23  C   UNL     1      44.814   5.910  11.003  0.00  0.00    +0.000 C 
BRANCH  23  24
ATOM     24  N   UNL     1      44.516   4.464  10.753  0.00  0.00    +0.000 NA
BRANCH  24  25
ATOM     25  C   UNL     1      43.317   4.048  11.532  0.00  0.00    +0.000 C 
BRANCH  25  26
ATOM     26  C   UNL     1      43.438   2.731  12.326  0.00  0.00    +0.000 C 
BRANCH  26  27
ATOM     27  O   UNL     1      43.104   1.594  11.539  0.00  0.00    +0.000 OA
ATOM     28  H   UNL     1      42.553   1.022  12.103  0.00  0.00    +0.000 HD
ENDBRANCH  26  27
ENDBRANCH  25  26
ENDBRANCH  24  25
BRANCH  24  29
ATOM     29  C   UNL     1      44.298   4.251   9.299  0.00  0.00    +0.000 C 
BRANCH  29  30
ATOM     30  C   UNL     1      45.288   3.302   8.658  0.00  0.00    +0.000 A 
ATOM     31  C   UNL     1      46.192   3.739   7.699  0.00  0.00    +0.000 A 
ATOM     32  C   UNL     1      46.999   2.801   7.073  0.00  0.00    +0.000 A 
ATOM     33  C   UNL     1      46.867   1.479   7.447  0.00  0.00    +0.000 A 
ATOM     34  N   UNL     1      46.005   1.077   8.402  0.00  0.00    +0.000 NA
ATOM     35  N   UNL     1      45.207   1.997   9.012  0.00  0.00    +0.000 NA
ENDBRANCH  29  30
ENDBRANCH  24  29
ENDBRANCH  23  24
ENDBRANCH   4  23
TORSDOF 10
ENDMDL
MODEL 6
REMARK VINA RESULT:    -6.989      3.620      4.751
REMARK INTER + INTRA:         -12.533
REMARK INTER:                 -11.434
REMARK INTRA:                  -1.099
REMARK UNBOUND:                -1.662
REMARK  Name = 
REMARK  10 active torsions:
REMARK  status: ('A' for Active; 'I' for Inactive)
REMARK    1  A    between atoms: C_2  and  C_23
REMARK    2  A    between atoms: N_3  and  C_4
REMARK    3  A    between atoms: C_4  and  C_5
REMARK    4  A    between atoms: C_8  and  C_9
REMARK    5  A    between atoms: C_9  and  N_10
REMARK    6  A    between atoms: N_10  and  C_11
REMARK    7  A    between atoms: N_10  and  C_14
REMARK    8  A    between atoms: C_11  and  C_12
REMARK    9  A    between atoms: C_12  and  O_13
REMARK   10  A    between atoms: C_14  and  C_15
REMARK                            x       y       z     vdW  Elec       q    Type
REMARK                         _______ _______ _______ _____ _____    ______ ____
ROOT
ATOM      1  C   UNL     1      47.900   4.076  16.236  0.00  0.00    +0.000 A 
ATOM      2  C   UNL     1      48.159   5.437  16.074  0.00  0.00    +0.000 A 
ATOM      3  C   UNL     1      47.747   6.071  14.904  0.00  0.00    +0.000 A 
ATOM      4  C   UNL     1      47.134   5.328  13.893  0.00  0.00    +0.000 A 
ATOM      5  C   UNL     1      46.875   3.988  14.159  0.00  0.00    +0.000 A 
ATOM      6  N   UNL     1      47.250   3.350  15.292  0.00  0.00    +0.000 NA
ENDROOT
BRANCH   1   7
ATOM      7  C   UNL     1      48.440   3.336  17.439  0.00  0.00    +0.000 C 
BRANCH   7  10
ATOM      8  O   UNL     1      50.350   4.449  19.203  0.00  0.00    +0.000 OA
ATOM      9  C   UNL     1      50.733   3.818  18.220  0.00  0.00    +0.000 C 
ATOM     10  N   UNL     1      49.875   3.182  17.364  0.00  0.00    +0.000 N 
ATOM     11  H   UNL     1      50.236   2.689  16.559  0.00  0.00    +0.000 HD
BRANCH   9  12
ATOM     12  C   UNL     1      52.155   3.625  17.927  0.00  0.00    +0.000 A 
ATOM     13  C   UNL     1      53.023   4.697  17.790  0.00  0.00    +0.000 A 
ATOM     14  S   UNL     1      54.645   4.221  17.549  0.00  0.00    +0.000 S 
ATOM     15  C   UNL     1      54.227   2.569  17.569  0.00  0.00    +0.000 A 
ATOM     16  N   UNL     1      55.175   1.594  17.441  0.00  0.00    +0.000 NA
ATOM     17  C   UNL     1      54.698   0.397  17.471  0.00  0.00    +0.000 A 
ATOM     18  N   UNL     1      53.368   0.068  17.590  0.00  0.00    +0.000 N 
ATOM     19  C   UNL     1      52.380   1.022  17.675  0.00  0.00    +0.000 A 
ATOM     20  O   UNL     1      51.197   0.705  17.722  0.00  0.00    +0.000 OA
ATOM     21  C   UNL     1      52.867   2.388  17.724  0.00  0.00    +0.000 A 
ATOM     22  H   UNL     1      53.061  -0.892  17.583  0.00  0.00    +0.000 HD
ENDBRANCH   9  12
ENDBRANCH   7  10
ENDBRANCH   1   7
BRANCH   4  23
ATOM     23  C   UNL     1      46.839   5.932  12.540  0.00  0.00    +0.000 C 
BRANCH  23  24
ATOM     24  N   UNL     1      45.546   5.461  11.949  0.00  0.00    +0.000 NA
BRANCH  24  25
ATOM     25  C   UNL     1      44.404   5.937  12.777  0.00  0.00    +0.000 C 
BRANCH  25  26
ATOM     26  C   UNL     1      43.199   4.982  12.895  0.00  0.00    +0.000 C 
BRANCH  26  27
ATOM     27  O   UNL     1      42.231   5.205  11.877  0.00  0.00    +0.000 OA
ATOM     28  H   UNL     1      41.631   5.894  12.214  0.00  0.00    +0.000 HD
ENDBRANCH  26  27
ENDBRANCH  25  26
ENDBRANCH  24  25
BRANCH  24  29
ATOM     29  C   UNL     1      45.431   5.963  10.556  0.00  0.00    +0.000 C 
BRANCH  29  30
ATOM     30  C   UNL     1      45.447   4.875   9.504  0.00  0.00    +0.000 A 
ATOM     31  C   UNL     1      44.838   3.645   9.725  0.00  0.00    +0.000 A 
ATOM     32  C   UNL     1      44.981   2.654   8.765  0.00  0.00    +0.000 A 
ATOM     33  C   UNL     1      45.713   2.948   7.633  0.00  0.00    +0.000 A 
ATOM     34  N   UNL     1      46.271   4.157   7.422  0.00  0.00    +0.000 NA
ATOM     35  N   UNL     1      46.137   5.128   8.367  0.00  0.00    +0.000 NA
ENDBRANCH  29  30
ENDBRANCH  24  29
ENDBRANCH  23  24
ENDBRANCH   4  23
TORSDOF 10
ENDMDL
MODEL 7
REMARK VINA RESULT:    -6.703      1.958      2.547
REMARK INTER + INTRA:         -12.089
REMARK INTER:                 -10.809
REMARK INTRA:                  -1.279
REMARK UNBOUND:                -1.662
REMARK  Name = 
REMARK  10 active torsions:
REMARK  status: ('A' for Active; 'I' for Inactive)
REMARK    1  A    between atoms: C_2  and  C_23
REMARK    2  A    between atoms: N_3  and  C_4
REMARK    3  A    between atoms: C_4  and  C_5
REMARK    4  A    between atoms: C_8  and  C_9
REMARK    5  A    between atoms: C_9  and  N_10
REMARK    6  A    between atoms: N_10  and  C_11
REMARK    7  A    between atoms: N_10  and  C_14
REMARK    8  A    between atoms: C_11  and  C_12
REMARK    9  A    between atoms: C_12  and  O_13
REMARK   10  A    between atoms: C_14  and  C_15
REMARK                            x       y       z     vdW  Elec       q    Type
REMARK                         _______ _______ _______ _____ _____    ______ ____
ROOT
ATOM      1  C   UNL     1      47.348   7.921  13.641  0.00  0.00    +0.000 A 
ATOM      2  C   UNL     1      47.521   6.621  13.166  0.00  0.00    +0.000 A 
ATOM      3  C   UNL     1      46.620   6.115  12.232  0.00  0.00    +0.000 A 
ATOM      4  C   UNL     1      45.533   6.891  11.828  0.00  0.00    +0.000 A 
ATOM      5  C   UNL     1      45.465   8.191  12.316  0.00  0.00    +0.000 A 
ATOM      6  N   UNL     1      46.334   8.714  13.213  0.00  0.00    +0.000 NA
ENDROOT
BRANCH   1   7
ATOM      7  C   UNL     1      48.237   8.455  14.742  0.00  0.00    +0.000 C 
BRANCH   7  10
ATOM      8  O   UNL     1      48.226   8.670  17.562  0.00  0.00    +0.000 OA
ATOM      9  C   UNL     1      48.624   7.632  17.039  0.00  0.00    +0.000 C 
ATOM     10  N   UNL     1      48.586   7.419  15.687  0.00  0.00    +0.000 N 
ATOM     11  H   UNL     1      48.941   6.554  15.301  0.00  0.00    +0.000 HD
BRANCH   9  12
ATOM     12  C   UNL     1      49.099   6.496  17.831  0.00  0.00    +0.000 A 
ATOM     13  C   UNL     1      48.309   5.905  18.804  0.00  0.00    +0.000 A 
ATOM     14  S   UNL     1      49.040   4.540  19.524  0.00  0.00    +0.000 S 
ATOM     15  C   UNL     1      50.455   4.730  18.594  0.00  0.00    +0.000 A 
ATOM     16  N   UNL     1      51.498   3.855  18.699  0.00  0.00    +0.000 NA
ATOM     17  C   UNL     1      52.495   4.139  17.933  0.00  0.00    +0.000 A 
ATOM     18  N   UNL     1      52.572   5.221  17.088  0.00  0.00    +0.000 N 
ATOM     19  C   UNL     1      51.561   6.149  16.989  0.00  0.00    +0.000 A 
ATOM     20  O   UNL     1      51.677   7.137  16.272  0.00  0.00    +0.000 OA
ATOM     21  C   UNL     1      50.380   5.837  17.772  0.00  0.00    +0.000 A 
ATOM     22  H   UNL     1      53.395   5.398  16.533  0.00  0.00    +0.000 HD
ENDBRANCH   9  12
ENDBRANCH   7  10
ENDBRANCH   1   7
BRANCH   4  23
ATOM     23  C   UNL     1      44.435   6.319  10.962  0.00  0.00    +0.000 C 
BRANCH  23  24
ATOM     24  N   UNL     1      44.381   4.823  10.983  0.00  0.00    +0.000 NA
BRANCH  24  25
ATOM     25  C   UNL     1      43.505   4.361  12.096  0.00  0.00    +0.000 C 
BRANCH  25  26
ATOM     26  C   UNL     1      43.752   2.929  12.613  0.00  0.00    +0.000 C 
BRANCH  26  27
ATOM     27  O   UNL     1      45.116   2.541  12.496  0.00  0.00    +0.000 OA
ATOM     28  H   UNL     1      45.585   3.298  12.103  0.00  0.00    +0.000 HD
ENDBRANCH  26  27
ENDBRANCH  25  26
ENDBRANCH  24  25
BRANCH  24  29
ATOM     29  C   UNL     1      43.874   4.330   9.677  0.00  0.00    +0.000 C 
BRANCH  29  30
ATOM     30  C   UNL     1      44.929   3.674   8.813  0.00  0.00    +0.000 A 
ATOM     31  C   UNL     1      45.178   2.309   8.885  0.00  0.00    +0.000 A 
ATOM     32  C   UNL     1      46.230   1.788   8.147  0.00  0.00    +0.000 A 
ATOM     33  C   UNL     1      46.968   2.656   7.368  0.00  0.00    +0.000 A 
ATOM     34  N   UNL     1      46.692   3.972   7.286  0.00  0.00    +0.000 NA
ATOM     35  N   UNL     1      45.664   4.486   8.017  0.00  0.00    +0.000 NA
ENDBRANCH  29  30
ENDBRANCH  24  29
ENDBRANCH  23  24
ENDBRANCH   4  23
TORSDOF 10
ENDMDL
MODEL 8
REMARK VINA RESULT:    -6.587      3.094      4.733
REMARK INTER + INTRA:         -11.908
REMARK INTER:                 -10.738
REMARK INTRA:                  -1.170
REMARK UNBOUND:                -1.662
REMARK  Name = 
REMARK  10 active torsions:
REMARK  status: ('A' for Active; 'I' for Inactive)
REMARK    1  A    between atoms: C_2  and  C_23
REMARK    2  A    between atoms: N_3  and  C_4
REMARK    3  A    between atoms: C_4  and  C_5
REMARK    4  A    between atoms: C_8  and  C_9
REMARK    5  A    between atoms: C_9  and  N_10
REMARK    6  A    between atoms: N_10  and  C_11
REMARK    7  A    between atoms: N_10  and  C_14
REMARK    8  A    between atoms: C_11  and  C_12
REMARK    9  A    between atoms: C_12  and  O_13
REMARK   10  A    between atoms: C_14  and  C_15
REMARK                            x       y       z     vdW  Elec       q    Type
REMARK                         _______ _______ _______ _____ _____    ______ ____
ROOT
ATOM      1  C   UNL     1      47.941   3.555  16.061  0.00  0.00    +0.000 A 
ATOM      2  C   UNL     1      47.913   4.941  16.210  0.00  0.00    +0.000 A 
ATOM      3  C   UNL     1      47.448   5.727  15.158  0.00  0.00    +0.000 A 
ATOM      4  C   UNL     1      47.071   5.124  13.957  0.00  0.00    +0.000 A 
ATOM      5  C   UNL     1      47.087   3.734  13.913  0.00  0.00    +0.000 A 
ATOM      6  N   UNL     1      47.520   2.945  14.924  0.00  0.00    +0.000 NA
ENDROOT
BRANCH   1   7
ATOM      7  C   UNL     1      48.551   2.685  17.137  0.00  0.00    +0.000 C 
BRANCH   7  10
ATOM      8  O   UNL     1      49.862   4.301  19.052  0.00  0.00    +0.000 OA
ATOM      9  C   UNL     1      50.521   3.764  18.164  0.00  0.00    +0.000 C 
ATOM     10  N   UNL     1      49.975   2.905  17.249  0.00  0.00    +0.000 N 
ATOM     11  H   UNL     1      50.554   2.501  16.526  0.00  0.00    +0.000 HD
BRANCH   9  12
ATOM     12  C   UNL     1      51.972   3.937  18.062  0.00  0.00    +0.000 A 
ATOM     13  C   UNL     1      52.854   3.084  18.705  0.00  0.00    +0.000 A 
ATOM     14  S   UNL     1      54.491   3.426  18.358  0.00  0.00    +0.000 S 
ATOM     15  C   UNL     1      54.070   4.756  17.379  0.00  0.00    +0.000 A 
ATOM     16  N   UNL     1      55.020   5.494  16.734  0.00  0.00    +0.000 NA
ATOM     17  C   UNL     1      54.541   6.467  16.038  0.00  0.00    +0.000 A 
ATOM     18  N   UNL     1      53.210   6.799  15.937  0.00  0.00    +0.000 N 
ATOM     19  C   UNL     1      52.228   6.108  16.609  0.00  0.00    +0.000 A 
ATOM     20  O   UNL     1      51.055   6.459  16.549  0.00  0.00    +0.000 OA
ATOM     21  C   UNL     1      52.704   4.953  17.346  0.00  0.00    +0.000 A 
ATOM     22  H   UNL     1      52.906   7.591  15.393  0.00  0.00    +0.000 HD
ENDBRANCH   9  12
ENDBRANCH   7  10
ENDBRANCH   1   7
BRANCH   4  23
ATOM     23  C   UNL     1      46.737   5.945  12.734  0.00  0.00    +0.000 C 
BRANCH  23  24
ATOM     24  N   UNL     1      45.498   5.485  12.031  0.00  0.00    +0.000 NA
BRANCH  24  25
ATOM     25  C   UNL     1      44.292   6.010  12.729  0.00  0.00    +0.000 C 
BRANCH  25  26
ATOM     26  C   UNL     1      42.964   5.276  12.450  0.00  0.00    +0.000 C 
BRANCH  26  27
ATOM     27  O   UNL     1      42.005   6.117  11.819  0.00  0.00    +0.000 OA
ATOM     28  H   UNL     1      41.316   5.528  11.462  0.00  0.00    +0.000 HD
ENDBRANCH  26  27
ENDBRANCH  25  26
ENDBRANCH  24  25
BRANCH  24  29
ATOM     29  C   UNL     1      45.531   5.950  10.620  0.00  0.00    +0.000 C 
BRANCH  29  30
ATOM     30  C   UNL     1      45.486   4.832   9.600  0.00  0.00    +0.000 A 
ATOM     31  C   UNL     1      44.968   3.582   9.918  0.00  0.00    +0.000 A 
ATOM     32  C   UNL     1      45.054   2.570   8.974  0.00  0.00    +0.000 A 
ATOM     33  C   UNL     1      45.642   2.864   7.761  0.00  0.00    +0.000 A 
ATOM     34  N   UNL     1      46.111   4.091   7.458  0.00  0.00    +0.000 NA
ATOM     35  N   UNL     1      46.034   5.083   8.388  0.00  0.00    +0.000 NA
ENDBRANCH  29  30
ENDBRANCH  24  29
ENDBRANCH  23  24
ENDBRANCH   4  23
TORSDOF 10
ENDMDL
MODEL 9
REMARK VINA RESULT:    -6.379      2.841      8.236
REMARK INTER + INTRA:         -11.584
REMARK INTER:                  -9.867
REMARK INTRA:                  -1.717
REMARK UNBOUND:                -1.662
REMARK  Name = 
REMARK  10 active torsions:
REMARK  status: ('A' for Active; 'I' for Inactive)
REMARK    1  A    between atoms: C_2  and  C_23
REMARK    2  A    between atoms: N_3  and  C_4
REMARK    3  A    between atoms: C_4  and  C_5
REMARK    4  A    between atoms: C_8  and  C_9
REMARK    5  A    between atoms: C_9  and  N_10
REMARK    6  A    between atoms: N_10  and  C_11
REMARK    7  A    between atoms: N_10  and  C_14
REMARK    8  A    between atoms: C_11  and  C_12
REMARK    9  A    between atoms: C_12  and  O_13
REMARK   10  A    between atoms: C_14  and  C_15
REMARK                            x       y       z     vdW  Elec       q    Type
REMARK                         _______ _______ _______ _____ _____    ______ ____
ROOT
ATOM      1  C   UNL     1      47.813   7.958  13.291  0.00  0.00    +0.000 A 
ATOM      2  C   UNL     1      48.899   7.091  13.416  0.00  0.00    +0.000 A 
ATOM      3  C   UNL     1      49.684   7.148  14.566  0.00  0.00    +0.000 A 
ATOM      4  C   UNL     1      49.408   8.104  15.545  0.00  0.00    +0.000 A 
ATOM      5  C   UNL     1      48.280   8.896  15.360  0.00  0.00    +0.000 A 
ATOM      6  N   UNL     1      47.491   8.852  14.261  0.00  0.00    +0.000 NA
ENDROOT
BRANCH   1   7
ATOM      7  C   UNL     1      47.017   8.002  12.007  0.00  0.00    +0.000 C 
BRANCH   7  10
ATOM      8  O   UNL     1      44.291   7.511  11.437  0.00  0.00    +0.000 OA
ATOM      9  C   UNL     1      45.069   6.564  11.522  0.00  0.00    +0.000 C 
ATOM     10  N   UNL     1      46.415   6.721  11.715  0.00  0.00    +0.000 N 
ATOM     11  H   UNL     1      47.013   5.910  11.795  0.00  0.00    +0.000 HD
BRANCH   9  12
ATOM     12  C   UNL     1      44.628   5.178  11.340  0.00  0.00    +0.000 A 
ATOM     13  C   UNL     1      43.937   4.498  12.330  0.00  0.00    +0.000 A 
ATOM     14  S   UNL     1      43.445   2.935  11.851  0.00  0.00    +0.000 S 
ATOM     15  C   UNL     1      44.186   3.102  10.325  0.00  0.00    +0.000 A 
ATOM     16  N   UNL     1      44.116   2.112   9.388  0.00  0.00    +0.000 NA
ATOM     17  C   UNL     1      44.730   2.389   8.290  0.00  0.00    +0.000 A 
ATOM     18  N   UNL     1      45.431   3.544   8.035  0.00  0.00    +0.000 N 
ATOM     19  C   UNL     1      45.563   4.545   8.971  0.00  0.00    +0.000 A 
ATOM     20  O   UNL     1      46.242   5.540   8.741  0.00  0.00    +0.000 OA
ATOM     21  C   UNL     1      44.825   4.319  10.199  0.00  0.00    +0.000 A 
ATOM     22  H   UNL     1      45.910   3.687   7.159  0.00  0.00    +0.000 HD
ENDBRANCH   9  12
ENDBRANCH   7  10
ENDBRANCH   1   7
BRANCH   4  23
ATOM     23  C   UNL     1      50.339   8.323  16.715  0.00  0.00    +0.000 C 
BRANCH  23  24
ATOM     24  N   UNL     1      50.676   7.063  17.450  0.00  0.00    +0.000 NA
BRANCH  24  25
ATOM     25  C   UNL     1      51.777   7.317  18.419  0.00  0.00    +0.000 C 
BRANCH  25  26
ATOM     26  C   UNL     1      52.051   6.205  19.452  0.00  0.00    +0.000 C 
BRANCH  26  27
ATOM     27  O   UNL     1      52.455   4.987  18.839  0.00  0.00    +0.000 OA
ATOM     28  H   UNL     1      52.989   5.233  18.063  0.00  0.00    +0.000 HD
ENDBRANCH  26  27
ENDBRANCH  25  26
ENDBRANCH  24  25
BRANCH  24  29
ATOM     29  C   UNL     1      49.465   6.564  18.151  0.00  0.00    +0.000 C 
BRANCH  29  30
ATOM     30  C   UNL     1      48.950   5.240  17.627  0.00  0.00    +0.000 A 
ATOM     31  C   UNL     1      47.612   4.885  17.749  0.00  0.00    +0.000 A 
ATOM     32  C   UNL     1      47.225   3.615  17.347  0.00  0.00    +0.000 A 
ATOM     33  C   UNL     1      48.192   2.775  16.834  0.00  0.00    +0.000 A 
ATOM     34  N   UNL     1      49.480   3.147  16.695  0.00  0.00    +0.000 NA
ATOM     35  N   UNL     1      49.862   4.391  17.097  0.00  0.00    +0.000 NA
ENDBRANCH  29  30
ENDBRANCH  24  29
ENDBRANCH  23  24
ENDBRANCH   4  23
TORSDOF 10
ENDMDL
