MODEL 1
REMARK VINA RESULT:    -8.971      0.000      0.000
REMARK INTER + INTRA:         -14.344
REMARK INTER:                 -13.166
REMARK INTRA:                  -1.178
REMARK UNBOUND:                -1.178
REMARK  Name = 
REMARK  10 active torsions:
REMARK  status: ('A' for Active; 'I' for Inactive)
REMARK    1  A    between atoms: C_1  and  C_2
REMARK    2  A    between atoms: C_4  and  O_5
REMARK    3  A    between atoms: O_5  and  C_6
REMARK    4  A    between atoms: C_8  and  C_9
REMARK    5  A    between atoms: C_9  and  C_10
REMARK    6  A    between atoms: C_9  and  C_11
REMARK    7  A    between atoms: C_11  and  N_12
REMARK    8  A    between atoms: C_16  and  C_17
REMARK    9  A    between atoms: C_23  and  C_24
REMARK   10  A    between atoms: C_24  and  C_27
REMARK                            x       y       z     vdW  Elec       q    Type
REMARK                         _______ _______ _______ _____ _____    ______ ____
ROOT
ATOM      1  C   UNL     1      46.706   4.659  14.111  0.00  0.00    +0.000 A 
ATOM      2  C   UNL     1      45.426   4.300  13.676  0.00  0.00    +0.000 A 
ATOM      3  C   UNL     1      44.719   5.115  12.776  0.00  0.00    +0.000 A 
ATOM      4  C   UNL     1      45.335   6.295  12.349  0.00  0.00    +0.000 A 
ATOM      5  C   UNL     1      46.595   6.672  12.805  0.00  0.00    +0.000 A 
ATOM      6  C   UNL     1      47.288   5.842  13.678  0.00  0.00    +0.000 A 
ENDROOT
BRANCH   5   7
ATOM      7  C   UNL     1      47.162   7.985  12.380  0.00  0.00    +0.000 C 
ATOM      8  F   UNL     1      48.123   7.856  11.413  0.00  0.00    +0.000 F 
ATOM      9  F   UNL     1      46.212   8.792  11.812  0.00  0.00    +0.000 F 
BRANCH   7  10
ATOM     10  C   UNL     1      47.774   8.759  13.535  0.00  0.00    +0.000 C 
ATOM     11  N   UNL     1      48.281   9.401  14.494  0.00  0.00    +0.000 NA
ENDBRANCH   7  10
ENDBRANCH   5   7
BRANCH   3  12
ATOM     12  C   UNL     1      43.313   4.754  12.303  0.00  0.00    +0.000 C 
ATOM     13  C   UNL     1      42.480   6.032  12.130  0.00  0.00    +0.000 C 
BRANCH  12  14
ATOM     14  C   UNL     1      43.261   3.956  10.973  0.00  0.00    +0.000 C 
BRANCH  14  15
ATOM     15  N   UNL     1      43.945   4.673   9.883  0.00  0.00    +0.000 N 
ATOM     16  C   UNL     1      44.780   3.846   9.118  0.00  0.00    +0.000 A 
ATOM     17  C   UNL     1      45.471   4.391   8.036  0.00  0.00    +0.000 A 
ATOM     18  C   UNL     1      46.321   3.577   7.286  0.00  0.00    +0.000 A 
ATOM     19  C   UNL     1      46.453   2.233   7.632  0.00  0.00    +0.000 A 
ATOM     20  C   UNL     1      45.718   1.765   8.703  0.00  0.00    +0.000 A 
ATOM     21  N   UNL     1      44.880   2.539   9.431  0.00  0.00    +0.000 NA
ATOM     22  H   UNL     1      44.472   5.475  10.214  0.00  0.00    +0.000 HD
BRANCH  19  23
ATOM     23  C   UNL     1      47.369   1.299   6.937  0.00  0.00    +0.000 C 
ATOM     24  N   UNL     1      48.408   1.853   6.258  0.00  0.00    +0.000 N 
ATOM     25  O   UNL     1      47.186   0.085   6.968  0.00  0.00    +0.000 OA
ATOM     26  H   UNL     1      48.470   2.836   6.038  0.00  0.00    +0.000 HD
ATOM     27  H   UNL     1      48.989   1.212   5.725  0.00  0.00    +0.000 HD
ENDBRANCH  19  23
ENDBRANCH  14  15
ENDBRANCH  12  14
ENDBRANCH   3  12
BRANCH   1  28
ATOM     28  O   UNL     1      47.326   3.821  15.002  0.00  0.00    +0.000 OA
BRANCH  28  32
ATOM     29  C   UNL     1      49.560   2.128  16.749  0.00  0.00    +0.000 C 
ATOM     30  C   UNL     1      48.757   3.116  17.579  0.00  0.00    +0.000 C 
ATOM     31  C   UNL     1      48.721   4.552  17.015  0.00  0.00    +0.000 C 
ATOM     32  C   UNL     1      47.337   4.224  16.395  0.00  0.00    +0.000 C 
ATOM     33  C   UNL     1      47.224   3.062  17.399  0.00  0.00    +0.000 C 
ENDBRANCH  28  32
ENDBRANCH   1  28
TORSDOF 8
ENDMDL
MODEL 2
REMARK VINA RESULT:    -8.745      0.889      1.192
REMARK INTER + INTRA:         -14.013
REMARK INTER:                 -12.710
REMARK INTRA:                  -1.303
REMARK UNBOUND:                -1.178
REMARK  Name = 
REMARK  10 active torsions:
REMARK  status: ('A' for Active; 'I' for Inactive)
REMARK    1  A    between atoms: C_1  and  C_2
REMARK    2  A    between atoms: C_4  and  O_5
REMARK    3  A    between atoms: O_5  and  C_6
REMARK    4  A    between atoms: C_8  and  C_9
REMARK    5  A    between atoms: C_9  and  C_10
REMARK    6  A    between atoms: C_9  and  C_11
REMARK    7  A    between atoms: C_11  and  N_12
REMARK    8  A    between atoms: C_16  and  C_17
REMARK    9  A    between atoms: C_23  and  C_24
REMARK   10  A    between atoms: C_24  and  C_27
REMARK                            x       y       z     vdW  Elec       q    Type
REMARK                         _______ _______ _______ _____ _____    ______ ____
ROOT
ATOM      1  C   UNL     1      46.853   4.578  14.081  0.00  0.00    +0.000 A 
ATOM      2  C   UNL     1      45.587   4.224  13.599  0.00  0.00    +0.000 A 
ATOM      3  C   UNL     1      44.929   5.029  12.654  0.00  0.00    +0.000 A 
ATOM      4  C   UNL     1      45.577   6.192  12.229  0.00  0.00    +0.000 A 
ATOM      5  C   UNL     1      46.821   6.564  12.731  0.00  0.00    +0.000 A 
ATOM      6  C   UNL     1      47.467   5.745  13.648  0.00  0.00    +0.000 A 
ENDROOT
BRANCH   5   7
ATOM      7  C   UNL     1      47.422   7.861  12.303  0.00  0.00    +0.000 C 
ATOM      8  F   UNL     1      48.389   7.704  11.348  0.00  0.00    +0.000 F 
ATOM      9  F   UNL     1      46.496   8.686  11.720  0.00  0.00    +0.000 F 
BRANCH   7  10
ATOM     10  C   UNL     1      48.039   8.629  13.460  0.00  0.00    +0.000 C 
ATOM     11  N   UNL     1      48.550   9.266  14.421  0.00  0.00    +0.000 NA
ENDBRANCH   7  10
ENDBRANCH   5   7
BRANCH   3  12
ATOM     12  C   UNL     1      43.539   4.674  12.129  0.00  0.00    +0.000 C 
ATOM     13  C   UNL     1      42.573   5.837  12.396  0.00  0.00    +0.000 C 
BRANCH  12  14
ATOM     14  C   UNL     1      43.485   4.334  10.616  0.00  0.00    +0.000 C 
BRANCH  14  15
ATOM     15  N   UNL     1      43.916   2.950  10.355  0.00  0.00    +0.000 N 
ATOM     16  C   UNL     1      44.842   2.849   9.308  0.00  0.00    +0.000 A 
ATOM     17  C   UNL     1      45.353   1.596   8.969  0.00  0.00    +0.000 A 
ATOM     18  C   UNL     1      46.259   1.490   7.912  0.00  0.00    +0.000 A 
ATOM     19  C   UNL     1      46.638   2.641   7.224  0.00  0.00    +0.000 A 
ATOM     20  C   UNL     1      46.104   3.846   7.635  0.00  0.00    +0.000 A 
ATOM     21  N   UNL     1      45.236   3.967   8.666  0.00  0.00    +0.000 NA
ATOM     22  H   UNL     1      43.135   2.324  10.179  0.00  0.00    +0.000 HD
BRANCH  19  23
ATOM     23  C   UNL     1      47.547   2.629   6.055  0.00  0.00    +0.000 C 
ATOM     24  N   UNL     1      48.862   2.396   6.304  0.00  0.00    +0.000 N 
ATOM     25  O   UNL     1      47.127   2.830   4.919  0.00  0.00    +0.000 OA
ATOM     26  H   UNL     1      49.271   2.434   7.226  0.00  0.00    +0.000 HD
ATOM     27  H   UNL     1      49.490   2.461   5.507  0.00  0.00    +0.000 HD
ENDBRANCH  19  23
ENDBRANCH  14  15
ENDBRANCH  12  14
ENDBRANCH   3  12
BRANCH   1  28
ATOM     28  O   UNL     1      47.424   3.751  15.013  0.00  0.00    +0.000 OA
BRANCH  28  32
ATOM     29  C   UNL     1      49.672   2.193  16.866  0.00  0.00    +0.000 C 
ATOM     30  C   UNL     1      48.791   3.152  17.651  0.00  0.00    +0.000 C 
ATOM     31  C   UNL     1      48.706   4.577  17.064  0.00  0.00    +0.000 C 
ATOM     32  C   UNL     1      47.364   4.172  16.399  0.00  0.00    +0.000 C 
ATOM     33  C   UNL     1      47.270   3.020  17.416  0.00  0.00    +0.000 C 
ENDBRANCH  28  32
ENDBRANCH   1  28
TORSDOF 8
ENDMDL
MODEL 3
REMARK VINA RESULT:    -7.858      2.580      4.365
REMARK INTER + INTRA:         -12.711
REMARK INTER:                 -11.467
REMARK INTRA:                  -1.244
REMARK UNBOUND:                -1.178
REMARK  Name = 
REMARK  10 active torsions:
REMARK  status: ('A' for Active; 'I' for Inactive)
REMARK    1  A    between atoms: C_1  and  C_2
REMARK    2  A    between atoms: C_4  and  O_5
REMARK    3  A    between atoms: O_5  and  C_6
REMARK    4  A    between atoms: C_8  and  C_9
REMARK    5  A    between atoms: C_9  and  C_10
REMARK    6  A    between atoms: C_9  and  C_11
REMARK    7  A    between atoms: C_11  and  N_12
REMARK    8  A    between atoms: C_16  and  C_17
REMARK    9  A    between atoms: C_23  and  C_24
REMARK   10  A    between atoms: C_24  and  C_27
REMARK                            x       y       z     vdW  Elec       q    Type
REMARK                         _______ _______ _______ _____ _____    ______ ____
ROOT
ATOM      1  C   UNL     1      47.124   6.426  12.970  0.00  0.00    +0.000 A 
ATOM      2  C   UNL     1      45.894   6.026  12.435  0.00  0.00    +0.000 A 
ATOM      3  C   UNL     1      45.154   4.992  13.033  0.00  0.00    +0.000 A 
ATOM      4  C   UNL     1      45.696   4.378  14.165  0.00  0.00    +0.000 A 
ATOM      5  C   UNL     1      46.935   4.750  14.681  0.00  0.00    +0.000 A 
ATOM      6  C   UNL     1      47.642   5.789  14.089  0.00  0.00    +0.000 A 
ENDROOT
BRANCH   5   7
ATOM      7  C   UNL     1      47.500   3.998  15.839  0.00  0.00    +0.000 C 
ATOM      8  F   UNL     1      46.593   3.829  16.850  0.00  0.00    +0.000 F 
ATOM      9  F   UNL     1      47.866   2.725  15.490  0.00  0.00    +0.000 F 
BRANCH   7  10
ATOM     10  C   UNL     1      48.727   4.671  16.429  0.00  0.00    +0.000 C 
ATOM     11  N   UNL     1      49.746   5.230  16.919  0.00  0.00    +0.000 NA
ENDBRANCH   7  10
ENDBRANCH   5   7
BRANCH   3  12
ATOM     12  C   UNL     1      43.820   4.525  12.456  0.00  0.00    +0.000 C 
ATOM     13  C   UNL     1      42.710   5.507  12.859  0.00  0.00    +0.000 C 
BRANCH  12  14
ATOM     14  C   UNL     1      43.799   4.375  10.911  0.00  0.00    +0.000 C 
BRANCH  14  15
ATOM     15  N   UNL     1      44.042   2.982  10.498  0.00  0.00    +0.000 N 
ATOM     16  C   UNL     1      44.920   2.876   9.410  0.00  0.00    +0.000 A 
ATOM     17  C   UNL     1      45.258   1.611   8.930  0.00  0.00    +0.000 A 
ATOM     18  C   UNL     1      46.114   1.502   7.832  0.00  0.00    +0.000 A 
ATOM     19  C   UNL     1      46.618   2.662   7.246  0.00  0.00    +0.000 A 
ATOM     20  C   UNL     1      46.253   3.875   7.795  0.00  0.00    +0.000 A 
ATOM     21  N   UNL     1      45.436   3.996   8.866  0.00  0.00    +0.000 NA
ATOM     22  H   UNL     1      43.183   2.480  10.292  0.00  0.00    +0.000 HD
BRANCH  19  23
ATOM     23  C   UNL     1      47.487   2.657   6.047  0.00  0.00    +0.000 C 
ATOM     24  N   UNL     1      48.806   2.397   6.247  0.00  0.00    +0.000 N 
ATOM     25  O   UNL     1      47.032   2.888   4.930  0.00  0.00    +0.000 OA
ATOM     26  H   UNL     1      49.246   2.410   7.154  0.00  0.00    +0.000 HD
ATOM     27  H   UNL     1      49.406   2.467   5.430  0.00  0.00    +0.000 HD
ENDBRANCH  19  23
ENDBRANCH  14  15
ENDBRANCH  12  14
ENDBRANCH   3  12
BRANCH   1  28
ATOM     28  O   UNL     1      47.795   7.431  12.321  0.00  0.00    +0.000 OA
BRANCH  28  32
ATOM     29  C   UNL     1      49.007  10.298  11.219  0.00  0.00    +0.000 C 
ATOM     30  C   UNL     1      50.059   9.385  11.828  0.00  0.00    +0.000 C 
ATOM     31  C   UNL     1      49.712   8.852  13.234  0.00  0.00    +0.000 C 
ATOM     32  C   UNL     1      49.220   7.541  12.566  0.00  0.00    +0.000 C 
ATOM     33  C   UNL     1      50.055   7.922  11.330  0.00  0.00    +0.000 C 
ENDBRANCH  28  32
ENDBRANCH   1  28
TORSDOF 8
ENDMDL
MODEL 4
REMARK VINA RESULT:    -7.315      2.734      5.183
REMARK INTER + INTRA:         -11.914
REMARK INTER:                 -11.129
REMARK INTRA:                  -0.785
REMARK UNBOUND:                -1.178
REMARK  Name = 
REMARK  10 active torsions:
REMARK  status: ('A' for Active; 'I' for Inactive)
REMARK    1  A    between atoms: C_1  and  C_2
REMARK    2  A    between atoms: C_4  and  O_5
REMARK    3  A    between atoms: O_5  and  C_6
REMARK    4  A    between atoms: C_8  and  C_9
REMARK    5  A    between atoms: C_9  and  C_10
REMARK    6  A    between atoms: C_9  and  C_11
REMARK    7  A    between atoms: C_11  and  N_12
REMARK    8  A    between atoms: C_16  and  C_17
REMARK    9  A    between atoms: C_23  and  C_24
REMARK   10  A    between atoms: C_24  and  C_27
REMARK                            x       y       z     vdW  Elec       q    Type
REMARK                         _______ _______ _______ _____ _____    ______ ____
ROOT
ATOM      1  C   UNL     1      45.279   8.692  12.188  0.00  0.00    +0.000 A 
ATOM      2  C   UNL     1      44.458   7.570  12.031  0.00  0.00    +0.000 A 
ATOM      3  C   UNL     1      44.953   6.279  12.278  0.00  0.00    +0.000 A 
ATOM      4  C   UNL     1      46.289   6.161  12.671  0.00  0.00    +0.000 A 
ATOM      5  C   UNL     1      47.118   7.272  12.795  0.00  0.00    +0.000 A 
ATOM      6  C   UNL     1      46.605   8.543  12.568  0.00  0.00    +0.000 A 
ENDROOT
BRANCH   5   7
ATOM      7  C   UNL     1      48.558   7.075  13.133  0.00  0.00    +0.000 C 
ATOM      8  F   UNL     1      49.108   5.998  12.492  0.00  0.00    +0.000 F 
ATOM      9  F   UNL     1      49.326   8.138  12.737  0.00  0.00    +0.000 F 
BRANCH   7  10
ATOM     10  C   UNL     1      48.788   6.888  14.624  0.00  0.00    +0.000 C 
ATOM     11  N   UNL     1      48.978   6.733  15.861  0.00  0.00    +0.000 NA
ENDBRANCH   7  10
ENDBRANCH   5   7
BRANCH   3  12
ATOM     12  C   UNL     1      44.082   5.038  12.094  0.00  0.00    +0.000 C 
ATOM     13  C   UNL     1      42.730   5.248  12.792  0.00  0.00    +0.000 C 
BRANCH  12  14
ATOM     14  C   UNL     1      43.811   4.649  10.616  0.00  0.00    +0.000 C 
BRANCH  14  15
ATOM     15  N   UNL     1      44.064   3.218  10.377  0.00  0.00    +0.000 N 
ATOM     16  C   UNL     1      44.969   2.986   9.330  0.00  0.00    +0.000 A 
ATOM     17  C   UNL     1      45.318   1.674   9.011  0.00  0.00    +0.000 A 
ATOM     18  C   UNL     1      46.200   1.438   7.955  0.00  0.00    +0.000 A 
ATOM     19  C   UNL     1      46.718   2.522   7.249  0.00  0.00    +0.000 A 
ATOM     20  C   UNL     1      46.341   3.790   7.641  0.00  0.00    +0.000 A 
ATOM     21  N   UNL     1      45.497   4.036   8.671  0.00  0.00    +0.000 NA
ATOM     22  H   UNL     1      43.211   2.693  10.210  0.00  0.00    +0.000 HD
BRANCH  19  23
ATOM     23  C   UNL     1      47.616   2.377   6.080  0.00  0.00    +0.000 C 
ATOM     24  N   UNL     1      47.404   3.223   5.037  0.00  0.00    +0.000 N 
ATOM     25  O   UNL     1      48.500   1.526   6.057  0.00  0.00    +0.000 OA
ATOM     26  H   UNL     1      46.571   3.783   4.933  0.00  0.00    +0.000 HD
ATOM     27  H   UNL     1      47.976   3.069   4.211  0.00  0.00    +0.000 HD
ENDBRANCH  19  23
ENDBRANCH  14  15
ENDBRANCH  12  14
ENDBRANCH   3  12
BRANCH   1  28
ATOM     28  O   UNL     1      44.729   9.918  11.912  0.00  0.00    +0.000 OA
BRANCH  28  32
ATOM     29  C   UNL     1      41.692  11.213  12.010  0.00  0.00    +0.000 C 
ATOM     30  C   UNL     1      42.188  10.927  10.602  0.00  0.00    +0.000 C 
ATOM     31  C   UNL     1      43.580  11.512  10.279  0.00  0.00    +0.000 C 
ATOM     32  C   UNL     1      44.186  10.117  10.582  0.00  0.00    +0.000 C 
ATOM     33  C   UNL     1      42.783   9.521  10.366  0.00  0.00    +0.000 C 
ENDBRANCH  28  32
ENDBRANCH   1  28
TORSDOF 8
ENDMDL
MODEL 5
REMARK VINA RESULT:    -7.009      3.004      7.606
REMARK INTER + INTRA:         -11.465
REMARK INTER:                  -9.942
REMARK INTRA:                  -1.523
REMARK UNBOUND:                -1.178
REMARK  Name = 
REMARK  10 active torsions:
REMARK  status: ('A' for Active; 'I' for Inactive)
REMARK    1  A    between atoms: C_1  and  C_2
REMARK    2  A    between atoms: C_4  and  O_5
REMARK    3  A    between atoms: O_5  and  C_6
REMARK    4  A    between atoms: C_8  and  C_9
REMARK    5  A    between atoms: C_9  and  C_10
REMARK    6  A    between atoms: C_9  and  C_11
REMARK    7  A    between atoms: C_11  and  N_12
REMARK    8  A    between atoms: C_16  and  C_17
REMARK    9  A    between atoms: C_23  and  C_24
REMARK   10  A    between atoms: C_24  and  C_27
REMARK                            x       y       z     vdW  Elec       q    Type
REMARK                         _______ _______ _______ _____ _____    ______ ____
ROOT
ATOM      1  C   UNL     1      46.782   4.173  13.935  0.00  0.00    +0.000 A 
ATOM      2  C   UNL     1      47.091   5.516  13.695  0.00  0.00    +0.000 A 
ATOM      3  C   UNL     1      46.415   6.241  12.699  0.00  0.00    +0.000 A 
ATOM      4  C   UNL     1      45.440   5.568  11.957  0.00  0.00    +0.000 A 
ATOM      5  C   UNL     1      45.153   4.223  12.171  0.00  0.00    +0.000 A 
ATOM      6  C   UNL     1      45.816   3.528  13.175  0.00  0.00    +0.000 A 
ENDROOT
BRANCH   5   7
ATOM      7  C   UNL     1      44.164   3.538  11.288  0.00  0.00    +0.000 C 
ATOM      8  F   UNL     1      43.419   2.604  11.956  0.00  0.00    +0.000 F 
ATOM      9  F   UNL     1      43.240   4.414  10.781  0.00  0.00    +0.000 F 
BRANCH   7  10
ATOM     10  C   UNL     1      44.818   2.844  10.106  0.00  0.00    +0.000 C 
ATOM     11  N   UNL     1      45.361   2.269   9.124  0.00  0.00    +0.000 NA
ENDBRANCH   7  10
ENDBRANCH   5   7
BRANCH   3  12
ATOM     12  C   UNL     1      46.749   7.701  12.405  0.00  0.00    +0.000 C 
ATOM     13  C   UNL     1      45.514   8.577  12.661  0.00  0.00    +0.000 C 
BRANCH  12  14
ATOM     14  C   UNL     1      47.931   8.275  13.231  0.00  0.00    +0.000 C 
BRANCH  14  15
ATOM     15  N   UNL     1      47.464   8.931  14.464  0.00  0.00    +0.000 N 
ATOM     16  C   UNL     1      48.303   8.699  15.564  0.00  0.00    +0.000 A 
ATOM     17  C   UNL     1      47.991   9.282  16.792  0.00  0.00    +0.000 A 
ATOM     18  C   UNL     1      48.811   9.035  17.895  0.00  0.00    +0.000 A 
ATOM     19  C   UNL     1      49.929   8.217  17.739  0.00  0.00    +0.000 A 
ATOM     20  C   UNL     1      50.180   7.696  16.486  0.00  0.00    +0.000 A 
ATOM     21  N   UNL     1      49.403   7.937  15.405  0.00  0.00    +0.000 NA
ATOM     22  H   UNL     1      46.510   8.676  14.705  0.00  0.00    +0.000 HD
BRANCH  19  23
ATOM     23  C   UNL     1      50.829   7.849  18.856  0.00  0.00    +0.000 C 
ATOM     24  N   UNL     1      51.131   6.530  18.990  0.00  0.00    +0.000 N 
ATOM     25  O   UNL     1      51.270   8.698  19.626  0.00  0.00    +0.000 OA
ATOM     26  H   UNL     1      50.631   5.793  18.517  0.00  0.00    +0.000 HD
ATOM     27  H   UNL     1      51.689   6.277  19.800  0.00  0.00    +0.000 HD
ENDBRANCH  19  23
ENDBRANCH  14  15
ENDBRANCH  12  14
ENDBRANCH   3  12
BRANCH   1  28
ATOM     28  O   UNL     1      47.496   3.528  14.913  0.00  0.00    +0.000 OA
BRANCH  28  32
ATOM     29  C   UNL     1      49.748   2.199  16.930  0.00  0.00    +0.000 C 
ATOM     30  C   UNL     1      48.793   3.155  17.627  0.00  0.00    +0.000 C 
ATOM     31  C   UNL     1      48.659   4.537  16.952  0.00  0.00    +0.000 C 
ATOM     32  C   UNL     1      47.364   4.026  16.268  0.00  0.00    +0.000 C 
ATOM     33  C   UNL     1      47.290   2.932  17.349  0.00  0.00    +0.000 C 
ENDBRANCH  28  32
ENDBRANCH   1  28
TORSDOF 8
ENDMDL
MODEL 6
REMARK VINA RESULT:    -6.884      3.103      6.853
REMARK INTER + INTRA:         -11.282
REMARK INTER:                  -9.877
REMARK INTRA:                  -1.405
REMARK UNBOUND:                -1.178
REMARK  Name = 
REMARK  10 active torsions:
REMARK  status: ('A' for Active; 'I' for Inactive)
REMARK    1  A    between atoms: C_1  and  C_2
REMARK    2  A    between atoms: C_4  and  O_5
REMARK    3  A    between atoms: O_5  and  C_6
REMARK    4  A    between atoms: C_8  and  C_9
REMARK    5  A    between atoms: C_9  and  C_10
REMARK    6  A    between atoms: C_9  and  C_11
REMARK    7  A    between atoms: C_11  and  N_12
REMARK    8  A    between atoms: C_16  and  C_17
REMARK    9  A    between atoms: C_23  and  C_24
REMARK   10  A    between atoms: C_24  and  C_27
REMARK                            x       y       z     vdW  Elec       q    Type
REMARK                         _______ _______ _______ _____ _____    ______ ____
ROOT
ATOM      1  C   UNL     1      46.552   4.151  13.559  0.00  0.00    +0.000 A 
ATOM      2  C   UNL     1      46.799   5.510  13.331  0.00  0.00    +0.000 A 
ATOM      3  C   UNL     1      46.156   6.189  12.282  0.00  0.00    +0.000 A 
ATOM      4  C   UNL     1      45.279   5.457  11.477  0.00  0.00    +0.000 A 
ATOM      5  C   UNL     1      45.057   4.098  11.680  0.00  0.00    +0.000 A 
ATOM      6  C   UNL     1      45.685   3.448  12.735  0.00  0.00    +0.000 A 
ENDROOT
BRANCH   5   7
ATOM      7  C   UNL     1      44.176   3.353  10.733  0.00  0.00    +0.000 C 
ATOM      8  F   UNL     1      43.304   2.515  11.373  0.00  0.00    +0.000 F 
ATOM      9  F   UNL     1      43.374   4.197  10.011  0.00  0.00    +0.000 F 
BRANCH   7  10
ATOM     10  C   UNL     1      44.964   2.522   9.735  0.00  0.00    +0.000 C 
ATOM     11  N   UNL     1      45.618   1.831   8.907  0.00  0.00    +0.000 NA
ENDBRANCH   7  10
ENDBRANCH   5   7
BRANCH   3  12
ATOM     12  C   UNL     1      46.424   7.666  12.002  0.00  0.00    +0.000 C 
ATOM     13  C   UNL     1      45.093   8.407  11.813  0.00  0.00    +0.000 C 
BRANCH  12  14
ATOM     14  C   UNL     1      47.236   8.398  13.103  0.00  0.00    +0.000 C 
BRANCH  14  15
ATOM     15  N   UNL     1      48.504   8.933  12.578  0.00  0.00    +0.000 N 
ATOM     16  C   UNL     1      49.621   8.545  13.332  0.00  0.00    +0.000 A 
ATOM     17  C   UNL     1      50.890   8.962  12.932  0.00  0.00    +0.000 A 
ATOM     18  C   UNL     1      52.002   8.597  13.694  0.00  0.00    +0.000 A 
ATOM     19  C   UNL     1      51.817   7.816  14.834  0.00  0.00    +0.000 A 
ATOM     20  C   UNL     1      50.531   7.426  15.149  0.00  0.00    +0.000 A 
ATOM     21  N   UNL     1      49.446   7.761  14.414  0.00  0.00    +0.000 NA
ATOM     22  H   UNL     1      48.492   9.944  12.484  0.00  0.00    +0.000 HD
BRANCH  19  23
ATOM     23  C   UNL     1      52.921   7.423  15.739  0.00  0.00    +0.000 C 
ATOM     24  N   UNL     1      53.872   6.600  15.223  0.00  0.00    +0.000 N 
ATOM     25  O   UNL     1      52.963   7.816  16.901  0.00  0.00    +0.000 OA
ATOM     26  H   UNL     1      53.764   6.096  14.356  0.00  0.00    +0.000 HD
ATOM     27  H   UNL     1      54.586   6.277  15.870  0.00  0.00    +0.000 HD
ENDBRANCH  19  23
ENDBRANCH  14  15
ENDBRANCH  12  14
ENDBRANCH   3  12
BRANCH   1  28
ATOM     28  O   UNL     1      47.229   3.554  14.591  0.00  0.00    +0.000 OA
BRANCH  28  32
ATOM     29  C   UNL     1      49.360   2.197  16.719  0.00  0.00    +0.000 C 
ATOM     30  C   UNL     1      48.557   3.346  17.308  0.00  0.00    +0.000 C 
ATOM     31  C   UNL     1      48.577   4.642  16.470  0.00  0.00    +0.000 C 
ATOM     32  C   UNL     1      47.205   4.224  15.876  0.00  0.00    +0.000 C 
ATOM     33  C   UNL     1      47.029   3.287  17.085  0.00  0.00    +0.000 C 
ENDBRANCH  28  32
ENDBRANCH   1  28
TORSDOF 8
ENDMDL
MODEL 7
REMARK VINA RESULT:    -6.763      3.817      6.207
REMARK INTER + INTRA:         -11.103
REMARK INTER:                 -10.075
REMARK INTRA:                  -1.028
REMARK UNBOUND:                -1.178
REMARK  Name = 
REMARK  10 active torsions:
REMARK  status: ('A' for Active; 'I' for Inactive)
REMARK    1  A    between atoms: C_1  and  C_2
REMARK    2  A    between atoms: C_4  and  O_5
REMARK    3  A    between atoms: O_5  and  C_6
REMARK    4  A    between atoms: C_8  and  C_9
REMARK    5  A    between atoms: C_9  and  C_10
REMARK    6  A    between atoms: C_9  and  C_11
REMARK    7  A    between atoms: C_11  and  N_12
REMARK    8  A    between atoms: C_16  and  C_17
REMARK    9  A    between atoms: C_23  and  C_24
REMARK   10  A    between atoms: C_24  and  C_27
REMARK                            x       y       z     vdW  Elec       q    Type
REMARK                         _______ _______ _______ _____ _____    ______ ____
ROOT
ATOM      1  C   UNL     1      46.693   4.175  13.727  0.00  0.00    +0.000 A 
ATOM      2  C   UNL     1      47.149   5.473  13.470  0.00  0.00    +0.000 A 
ATOM      3  C   UNL     1      46.616   6.223  12.408  0.00  0.00    +0.000 A 
ATOM      4  C   UNL     1      45.633   5.622  11.619  0.00  0.00    +0.000 A 
ATOM      5  C   UNL     1      45.201   4.319  11.850  0.00  0.00    +0.000 A 
ATOM      6  C   UNL     1      45.723   3.599  12.918  0.00  0.00    +0.000 A 
ENDROOT
BRANCH   5   7
ATOM      7  C   UNL     1      44.211   3.702  10.920  0.00  0.00    +0.000 C 
ATOM      8  F   UNL     1      43.253   2.975  11.574  0.00  0.00    +0.000 F 
ATOM      9  F   UNL     1      43.506   4.648  10.223  0.00  0.00    +0.000 F 
BRANCH   7  10
ATOM     10  C   UNL     1      44.863   2.787   9.896  0.00  0.00    +0.000 C 
ATOM     11  N   UNL     1      45.404   2.028   9.047  0.00  0.00    +0.000 NA
ENDBRANCH   7  10
ENDBRANCH   5   7
BRANCH   3  12
ATOM     12  C   UNL     1      47.112   7.634  12.098  0.00  0.00    +0.000 C 
ATOM     13  C   UNL     1      46.041   8.658  12.497  0.00  0.00    +0.000 C 
BRANCH  12  14
ATOM     14  C   UNL     1      48.442   8.022  12.797  0.00  0.00    +0.000 C 
BRANCH  14  15
ATOM     15  N   UNL     1      48.993   9.277  12.256  0.00  0.00    +0.000 N 
ATOM     16  C   UNL     1      50.142   9.083  11.476  0.00  0.00    +0.000 A 
ATOM     17  C   UNL     1      50.755  10.186  10.882  0.00  0.00    +0.000 A 
ATOM     18  C   UNL     1      51.912  10.000  10.124  0.00  0.00    +0.000 A 
ATOM     19  C   UNL     1      52.424   8.712   9.972  0.00  0.00    +0.000 A 
ATOM     20  C   UNL     1      51.747   7.671  10.574  0.00  0.00    +0.000 A 
ATOM     21  N   UNL     1      50.617   7.834  11.301  0.00  0.00    +0.000 NA
ATOM     22  H   UNL     1      49.186   9.963  12.980  0.00  0.00    +0.000 HD
BRANCH  19  23
ATOM     23  C   UNL     1      53.675   8.415   9.236  0.00  0.00    +0.000 C 
ATOM     24  N   UNL     1      54.397   9.481   8.801  0.00  0.00    +0.000 N 
ATOM     25  O   UNL     1      54.030   7.259   9.024  0.00  0.00    +0.000 OA
ATOM     26  H   UNL     1      54.039  10.423   8.772  0.00  0.00    +0.000 HD
ATOM     27  H   UNL     1      55.215   9.269   8.235  0.00  0.00    +0.000 HD
ENDBRANCH  19  23
ENDBRANCH  14  15
ENDBRANCH  12  14
ENDBRANCH   3  12
BRANCH   1  28
ATOM     28  O   UNL     1      47.272   3.499  14.770  0.00  0.00    +0.000 OA
BRANCH  28  32
ATOM     29  C   UNL     1      49.507   2.205  16.830  0.00  0.00    +0.000 C 
ATOM     30  C   UNL     1      48.651   3.291  17.462  0.00  0.00    +0.000 C 
ATOM     31  C   UNL     1      48.586   4.608  16.660  0.00  0.00    +0.000 C 
ATOM     32  C   UNL     1      47.231   4.132  16.074  0.00  0.00    +0.000 C 
ATOM     33  C   UNL     1      47.125   3.154  17.258  0.00  0.00    +0.000 C 
ENDBRANCH  28  32
ENDBRANCH   1  28
TORSDOF 8
ENDMDL
MODEL 8
REMARK VINA RESULT:    -6.659      4.318      8.531
REMARK INTER + INTRA:         -10.952
REMARK INTER:                  -9.229
REMARK INTRA:                  -1.722
REMARK UNBOUND:                -1.178
REMARK  Name = 
REMARK  10 active torsions:
REMARK  status: ('A' for Active; 'I' for Inactive)
REMARK    1  A    between atoms: C_1  and  C_2
REMARK    2  A    between atoms: C_4  and  O_5
REMARK    3  A    between atoms: O_5  and  C_6
REMARK    4  A    between atoms: C_8  and  C_9
REMARK    5  A    between atoms: C_9  and  C_10
REMARK    6  A    between atoms: C_9  and  C_11
REMARK    7  A    between atoms: C_11  and  N_12
REMARK    8  A    between atoms: C_16  and  C_17
REMARK    9  A    between atoms: C_23  and  C_24
REMARK   10  A    between atoms: C_24  and  C_27
REMARK                            x       y       z     vdW  Elec       q    Type
REMARK                         _______ _______ _______ _____ _____    ______ ____
ROOT
ATOM      1  C   UNL     1      45.292   8.375  12.293  0.00  0.00    +0.000 A 
ATOM      2  C   UNL     1      46.640   8.710  12.126  0.00  0.00    +0.000 A 
ATOM      3  C   UNL     1      47.627   7.710  12.085  0.00  0.00    +0.000 A 
ATOM      4  C   UNL     1      47.213   6.383  12.229  0.00  0.00    +0.000 A 
ATOM      5  C   UNL     1      45.877   6.049  12.429  0.00  0.00    +0.000 A 
ATOM      6  C   UNL     1      44.912   7.049  12.445  0.00  0.00    +0.000 A 
ENDROOT
BRANCH   5   7
ATOM      7  C   UNL     1      45.508   4.622  12.662  0.00  0.00    +0.000 C 
ATOM      8  F   UNL     1      44.294   4.485  13.277  0.00  0.00    +0.000 F 
ATOM      9  F   UNL     1      45.378   3.930  11.487  0.00  0.00    +0.000 F 
BRANCH   7  10
ATOM     10  C   UNL     1      46.536   3.884  13.504  0.00  0.00    +0.000 C 
ATOM     11  N   UNL     1      47.388   3.272  14.203  0.00  0.00    +0.000 NA
ENDBRANCH   7  10
ENDBRANCH   5   7
BRANCH   3  12
ATOM     12  C   UNL     1      49.107   8.053  11.924  0.00  0.00    +0.000 C 
ATOM     13  C   UNL     1      49.269   9.569  11.738  0.00  0.00    +0.000 C 
BRANCH  12  14
ATOM     14  C   UNL     1      50.008   7.609  13.107  0.00  0.00    +0.000 C 
BRANCH  14  15
ATOM     15  N   UNL     1      49.799   8.453  14.295  0.00  0.00    +0.000 N 
ATOM     16  C   UNL     1      49.354   7.732  15.413  0.00  0.00    +0.000 A 
ATOM     17  C   UNL     1      49.139   8.405  16.615  0.00  0.00    +0.000 A 
ATOM     18  C   UNL     1      48.674   7.694  17.723  0.00  0.00    +0.000 A 
ATOM     19  C   UNL     1      48.444   6.325  17.603  0.00  0.00    +0.000 A 
ATOM     20  C   UNL     1      48.702   5.729  16.385  0.00  0.00    +0.000 A 
ATOM     21  N   UNL     1      49.166   6.402  15.306  0.00  0.00    +0.000 NA
ATOM     22  H   UNL     1      49.167   9.228  14.117  0.00  0.00    +0.000 HD
BRANCH  19  23
ATOM     23  C   UNL     1      47.899   5.492  18.700  0.00  0.00    +0.000 C 
ATOM     24  N   UNL     1      46.553   5.526  18.884  0.00  0.00    +0.000 N 
ATOM     25  O   UNL     1      48.635   4.814  19.412  0.00  0.00    +0.000 OA
ATOM     26  H   UNL     1      45.949   6.218  18.466  0.00  0.00    +0.000 HD
ATOM     27  H   UNL     1      46.195   5.010  19.683  0.00  0.00    +0.000 HD
ENDBRANCH  19  23
ENDBRANCH  14  15
ENDBRANCH  12  14
ENDBRANCH   3  12
BRANCH   1  28
ATOM     28  O   UNL     1      44.389   9.406  12.340  0.00  0.00    +0.000 OA
BRANCH  28  32
ATOM     29  C   UNL     1      41.394   9.893  11.035  0.00  0.00    +0.000 C 
ATOM     30  C   UNL     1      42.494  10.688  10.351  0.00  0.00    +0.000 C 
ATOM     31  C   UNL     1      43.381  11.515  11.307  0.00  0.00    +0.000 C 
ATOM     32  C   UNL     1      44.425  10.368  11.256  0.00  0.00    +0.000 C 
ATOM     33  C   UNL     1      43.757   9.892   9.953  0.00  0.00    +0.000 C 
ENDBRANCH  28  32
ENDBRANCH   1  28
TORSDOF 8
ENDMDL
MODEL 9
REMARK VINA RESULT:    -6.543      4.096      7.355
REMARK INTER + INTRA:         -10.781
REMARK INTER:                  -9.455
REMARK INTRA:                  -1.326
REMARK UNBOUND:                -1.178
REMARK  Name = 
REMARK  10 active torsions:
REMARK  status: ('A' for Active; 'I' for Inactive)
REMARK    1  A    between atoms: C_1  and  C_2
REMARK    2  A    between atoms: C_4  and  O_5
REMARK    3  A    between atoms: O_5  and  C_6
REMARK    4  A    between atoms: C_8  and  C_9
REMARK    5  A    between atoms: C_9  and  C_10
REMARK    6  A    between atoms: C_9  and  C_11
REMARK    7  A    between atoms: C_11  and  N_12
REMARK    8  A    between atoms: C_16  and  C_17
REMARK    9  A    between atoms: C_23  and  C_24
REMARK   10  A    between atoms: C_24  and  C_27
REMARK                            x       y       z     vdW  Elec       q    Type
REMARK                         _______ _______ _______ _____ _____    ______ ____
ROOT
ATOM      1  C   UNL     1      46.662   4.648  14.386  0.00  0.00    +0.000 A 
ATOM      2  C   UNL     1      47.268   5.838  13.965  0.00  0.00    +0.000 A 
ATOM      3  C   UNL     1      48.328   6.401  14.696  0.00  0.00    +0.000 A 
ATOM      4  C   UNL     1      48.739   5.738  15.855  0.00  0.00    +0.000 A 
ATOM      5  C   UNL     1      48.117   4.573  16.295  0.00  0.00    +0.000 A 
ATOM      6  C   UNL     1      47.085   4.019  15.547  0.00  0.00    +0.000 A 
ENDROOT
BRANCH   5   7
ATOM      7  C   UNL     1      48.545   3.959  17.586  0.00  0.00    +0.000 C 
ATOM      8  F   UNL     1      48.955   4.890  18.502  0.00  0.00    +0.000 F 
ATOM      9  F   UNL     1      47.515   3.301  18.205  0.00  0.00    +0.000 F 
BRANCH   7  10
ATOM     10  C   UNL     1      49.675   2.959  17.412  0.00  0.00    +0.000 C 
ATOM     11  N   UNL     1      50.612   2.128  17.267  0.00  0.00    +0.000 NA
ENDBRANCH   7  10
ENDBRANCH   5   7
BRANCH   3  12
ATOM     12  C   UNL     1      48.990   7.708  14.267  0.00  0.00    +0.000 C 
ATOM     13  C   UNL     1      50.459   7.715  14.717  0.00  0.00    +0.000 C 
BRANCH  12  14
ATOM     14  C   UNL     1      48.947   7.987  12.741  0.00  0.00    +0.000 C 
BRANCH  14  15
ATOM     15  N   UNL     1      48.709   9.412  12.457  0.00  0.00    +0.000 N 
ATOM     16  C   UNL     1      47.364   9.704  12.189  0.00  0.00    +0.000 A 
ATOM     17  C   UNL     1      46.993  11.023  11.926  0.00  0.00    +0.000 A 
ATOM     18  C   UNL     1      45.659  11.313  11.636  0.00  0.00    +0.000 A 
ATOM     19  C   UNL     1      44.725  10.277  11.626  0.00  0.00    +0.000 A 
ATOM     20  C   UNL     1      45.169   9.003  11.918  0.00  0.00    +0.000 A 
ATOM     21  N   UNL     1      46.456   8.708  12.213  0.00  0.00    +0.000 NA
ATOM     22  H   UNL     1      49.290   9.762  11.699  0.00  0.00    +0.000 HD
BRANCH  19  23
ATOM     23  C   UNL     1      43.299  10.471  11.277  0.00  0.00    +0.000 C 
ATOM     24  N   UNL     1      42.812   9.722  10.252  0.00  0.00    +0.000 N 
ATOM     25  O   UNL     1      42.599  11.278  11.882  0.00  0.00    +0.000 OA
ATOM     26  H   UNL     1      43.397   9.213   9.607  0.00  0.00    +0.000 HD
ATOM     27  H   UNL     1      41.854   9.913   9.972  0.00  0.00    +0.000 HD
ENDBRANCH  19  23
ENDBRANCH  14  15
ENDBRANCH  12  14
ENDBRANCH   3  12
BRANCH   1  28
ATOM     28  O   UNL     1      45.623   4.169  13.629  0.00  0.00    +0.000 OA
BRANCH  28  32
ATOM     29  C   UNL     1      43.355   2.720  11.716  0.00  0.00    +0.000 C 
ATOM     30  C   UNL     1      43.338   4.238  11.639  0.00  0.00    +0.000 C 
ATOM     31  C   UNL     1      43.272   4.951  13.007  0.00  0.00    +0.000 C 
ATOM     32  C   UNL     1      44.809   5.144  12.929  0.00  0.00    +0.000 C 
ATOM     33  C   UNL     1      44.705   4.919  11.409  0.00  0.00    +0.000 C 
ENDBRANCH  28  32
ENDBRANCH   1  28
TORSDOF 8
ENDMDL
