MODEL 1
REMARK VINA RESULT:    -8.029      0.000      0.000
REMARK INTER + INTRA:         -11.451
REMARK INTER:                 -10.845
REMARK INTRA:                  -0.606
REMARK UNBOUND:                -0.606
REMARK  Name = 
REMARK  7 active torsions:
REMARK  status: ('A' for Active; 'I' for Inactive)
REMARK    1  A    between atoms: N_1  and  C_2
REMARK    2  A    between atoms: C_2  and  C_3
REMARK    3  A    between atoms: C_3  and  C_4
REMARK    4  A    between atoms: C_10  and  C_11
REMARK    5  A    between atoms: C_11  and  C_12
REMARK    6  A    between atoms: C_15  and  C_16
REMARK    7  A    between atoms: C_16  and  O_18
REMARK                            x       y       z     vdW  Elec       q    Type
REMARK                         _______ _______ _______ _____ _____    ______ ____
ROOT
ATOM      1  C   UNL     1      44.928   7.564  11.705  0.00  0.00    +0.000 A 
ATOM      2  C   UNL     1      45.780   7.623  12.827  0.00  0.00    +0.000 A 
ATOM      3  N   UNL     1      46.292   6.545  13.472  0.00  0.00    +0.000 NA
ATOM      4  C   UNL     1      45.929   5.375  12.929  0.00  0.00    +0.000 A 
ATOM      5  C   UNL     1      46.244   4.044  13.395  0.00  0.00    +0.000 C 
ATOM      6  N   UNL     1      45.658   3.082  12.591  0.00  0.00    +0.000 NA
ATOM      7  C   UNL     1      45.013   3.760  11.671  0.00  0.00    +0.000 C 
ATOM      8  C   UNL     1      45.123   5.211  11.827  0.00  0.00    +0.000 A 
ATOM      9  C   UNL     1      44.594   6.305  11.179  0.00  0.00    +0.000 A 
ENDROOT
BRANCH   1  10
ATOM     10  C   UNL     1      44.391   8.829  11.091  0.00  0.00    +0.000 C 
BRANCH  10  11
ATOM     11  C   UNL     1      44.611  10.047  11.992  0.00  0.00    +0.000 C 
BRANCH  11  12
ATOM     12  N   UNL     1      43.389  10.837  12.105  0.00  0.00    +0.000 NA
ATOM     13  H   UNL     1      43.314  11.462  11.302  0.00  0.00    +0.000 HD
ATOM     14  H   UNL     1      43.435  11.439  12.927  0.00  0.00    +0.000 HD
ENDBRANCH  11  12
ENDBRANCH  10  11
ENDBRANCH   1  10
BRANCH   7  15
ATOM     15  C   UNL     1      44.186   3.129  10.587  0.00  0.00    +0.000 C 
BRANCH  15  16
ATOM     16  C   UNL     1      44.999   2.938   9.333  0.00  0.00    +0.000 A 
ATOM     17  C   UNL     1      45.216   4.009   8.465  0.00  0.00    +0.000 A 
ATOM     18  C   UNL     1      46.045   3.832   7.361  0.00  0.00    +0.000 A 
ATOM     19  C   UNL     1      46.638   2.589   7.144  0.00  0.00    +0.000 A 
ATOM     20  C   UNL     1      46.328   1.559   8.020  0.00  0.00    +0.000 A 
ATOM     21  N   UNL     1      45.536   1.711   9.116  0.00  0.00    +0.000 NA
BRANCH  19  22
ATOM     22  C   UNL     1      47.553   2.329   6.015  0.00  0.00    +0.000 C 
ATOM     23  O   UNL     1      48.358   1.415   6.015  0.00  0.00    +0.000 OA
BRANCH  22  24
ATOM     24  O   UNL     1      47.446   3.214   4.999  0.00  0.00    +0.000 OA
ATOM     25  H   UNL     1      46.847   3.970   5.144  0.00  0.00    +0.000 HD
ENDBRANCH  22  24
ENDBRANCH  19  22
ENDBRANCH  15  16
ENDBRANCH   7  15
TORSDOF 7
ENDMDL
MODEL 2
REMARK VINA RESULT:    -7.844      2.178      2.860
REMARK INTER + INTRA:         -11.202
REMARK INTER:                 -10.487
REMARK INTRA:                  -0.715
REMARK UNBOUND:                -0.606
REMARK  Name = 
REMARK  7 active torsions:
REMARK  status: ('A' for Active; 'I' for Inactive)
REMARK    1  A    between atoms: N_1  and  C_2
REMARK    2  A    between atoms: C_2  and  C_3
REMARK    3  A    between atoms: C_3  and  C_4
REMARK    4  A    between atoms: C_10  and  C_11
REMARK    5  A    between atoms: C_11  and  C_12
REMARK    6  A    between atoms: C_15  and  C_16
REMARK    7  A    between atoms: C_16  and  O_18
REMARK                            x       y       z     vdW  Elec       q    Type
REMARK                         _______ _______ _______ _____ _____    ______ ____
ROOT
ATOM      1  C   UNL     1      47.383   6.816  12.084  0.00  0.00    +0.000 A 
ATOM      2  C   UNL     1      47.296   6.532  13.462  0.00  0.00    +0.000 A 
ATOM      3  N   UNL     1      46.325   5.784  14.042  0.00  0.00    +0.000 NA
ATOM      4  C   UNL     1      45.431   5.299  13.170  0.00  0.00    +0.000 A 
ATOM      5  C   UNL     1      44.246   4.521  13.452  0.00  0.00    +0.000 C 
ATOM      6  N   UNL     1      43.548   4.235  12.292  0.00  0.00    +0.000 NA
ATOM      7  C   UNL     1      44.247   4.796  11.332  0.00  0.00    +0.000 C 
ATOM      8  C   UNL     1      45.438   5.500  11.809  0.00  0.00    +0.000 A 
ATOM      9  C   UNL     1      46.418   6.269  11.222  0.00  0.00    +0.000 A 
ENDROOT
BRANCH   1  10
ATOM     10  C   UNL     1      48.489   7.689  11.555  0.00  0.00    +0.000 C 
BRANCH  10  11
ATOM     11  C   UNL     1      49.785   7.526  12.354  0.00  0.00    +0.000 C 
BRANCH  11  12
ATOM     12  N   UNL     1      50.928   7.353  11.462  0.00  0.00    +0.000 NA
ATOM     13  H   UNL     1      51.738   7.051  12.003  0.00  0.00    +0.000 HD
ATOM     14  H   UNL     1      51.185   8.247  11.045  0.00  0.00    +0.000 HD
ENDBRANCH  11  12
ENDBRANCH  10  11
ENDBRANCH   1  10
BRANCH   7  15
ATOM     15  C   UNL     1      43.849   4.781   9.884  0.00  0.00    +0.000 C 
BRANCH  15  16
ATOM     16  C   UNL     1      44.697   3.810   9.104  0.00  0.00    +0.000 A 
ATOM     17  C   UNL     1      45.585   4.273   8.133  0.00  0.00    +0.000 A 
ATOM     18  C   UNL     1      46.423   3.368   7.489  0.00  0.00    +0.000 A 
ATOM     19  C   UNL     1      46.356   2.017   7.827  0.00  0.00    +0.000 A 
ATOM     20  C   UNL     1      45.409   1.626   8.762  0.00  0.00    +0.000 A 
ATOM     21  N   UNL     1      44.591   2.494   9.417  0.00  0.00    +0.000 NA
BRANCH  19  22
ATOM     22  C   UNL     1      47.232   0.997   7.213  0.00  0.00    +0.000 C 
ATOM     23  O   UNL     1      48.038   1.259   6.340  0.00  0.00    +0.000 OA
BRANCH  22  24
ATOM     24  O   UNL     1      47.033  -0.256   7.679  0.00  0.00    +0.000 OA
ATOM     25  H   UNL     1      46.459  -0.342   8.463  0.00  0.00    +0.000 HD
ENDBRANCH  22  24
ENDBRANCH  19  22
ENDBRANCH  15  16
ENDBRANCH   7  15
TORSDOF 7
ENDMDL
MODEL 3
REMARK VINA RESULT:    -7.609      1.736      3.732
REMARK INTER + INTRA:         -10.884
REMARK INTER:                 -10.335
REMARK INTRA:                  -0.549
REMARK UNBOUND:                -0.606
REMARK  Name = 
REMARK  7 active torsions:
REMARK  status: ('A' for Active; 'I' for Inactive)
REMARK    1  A    between atoms: N_1  and  C_2
REMARK    2  A    between atoms: C_2  and  C_3
REMARK    3  A    between atoms: C_3  and  C_4
REMARK    4  A    between atoms: C_10  and  C_11
REMARK    5  A    between atoms: C_11  and  C_12
REMARK    6  A    between atoms: C_15  and  C_16
REMARK    7  A    between atoms: C_16  and  O_18
REMARK                            x       y       z     vdW  Elec       q    Type
REMARK                         _______ _______ _______ _____ _____    ______ ____
ROOT
ATOM      1  C   UNL     1      46.894   4.411  14.108  0.00  0.00    +0.000 A 
ATOM      2  C   UNL     1      47.309   5.737  14.345  0.00  0.00    +0.000 A 
ATOM      3  N   UNL     1      46.892   6.819  13.641  0.00  0.00    +0.000 NA
ATOM      4  C   UNL     1      46.006   6.523  12.680  0.00  0.00    +0.000 A 
ATOM      5  C   UNL     1      45.410   7.419  11.715  0.00  0.00    +0.000 C 
ATOM      6  N   UNL     1      44.568   6.737  10.855  0.00  0.00    +0.000 NA
ATOM      7  C   UNL     1      44.625   5.486  11.249  0.00  0.00    +0.000 C 
ATOM      8  C   UNL     1      45.524   5.270  12.384  0.00  0.00    +0.000 A 
ATOM      9  C   UNL     1      45.956   4.170  13.091  0.00  0.00    +0.000 A 
ENDROOT
BRANCH   1  10
ATOM     10  C   UNL     1      47.451   3.281  14.933  0.00  0.00    +0.000 C 
BRANCH  10  11
ATOM     11  C   UNL     1      47.708   3.698  16.384  0.00  0.00    +0.000 C 
BRANCH  11  12
ATOM     12  N   UNL     1      46.612   3.274  17.249  0.00  0.00    +0.000 NA
ATOM     13  H   UNL     1      46.737   2.293  17.499  0.00  0.00    +0.000 HD
ATOM     14  H   UNL     1      45.727   3.325  16.744  0.00  0.00    +0.000 HD
ENDBRANCH  11  12
ENDBRANCH  10  11
ENDBRANCH   1  10
BRANCH   7  15
ATOM     15  C   UNL     1      43.894   4.359  10.578  0.00  0.00    +0.000 C 
BRANCH  15  16
ATOM     16  C   UNL     1      44.759   3.704   9.532  0.00  0.00    +0.000 A 
ATOM     17  C   UNL     1      45.453   4.482   8.605  0.00  0.00    +0.000 A 
ATOM     18  C   UNL     1      46.317   3.862   7.707  0.00  0.00    +0.000 A 
ATOM     19  C   UNL     1      46.469   2.477   7.752  0.00  0.00    +0.000 A 
ATOM     20  C   UNL     1      45.703   1.767   8.665  0.00  0.00    +0.000 A 
ATOM     21  N   UNL     1      44.865   2.352   9.564  0.00  0.00    +0.000 NA
BRANCH  19  22
ATOM     22  C   UNL     1      47.388   1.746   6.855  0.00  0.00    +0.000 C 
ATOM     23  O   UNL     1      47.193   0.596   6.506  0.00  0.00    +0.000 OA
BRANCH  22  24
ATOM     24  O   UNL     1      48.480   2.453   6.487  0.00  0.00    +0.000 OA
ATOM     25  H   UNL     1      49.291   2.300   7.005  0.00  0.00    +0.000 HD
ENDBRANCH  22  24
ENDBRANCH  19  22
ENDBRANCH  15  16
ENDBRANCH   7  15
TORSDOF 7
ENDMDL
MODEL 4
REMARK VINA RESULT:    -7.508      1.573      2.860
REMARK INTER + INTRA:         -10.748
REMARK INTER:                 -10.311
REMARK INTRA:                  -0.437
REMARK UNBOUND:                -0.606
REMARK  Name = 
REMARK  7 active torsions:
REMARK  status: ('A' for Active; 'I' for Inactive)
REMARK    1  A    between atoms: N_1  and  C_2
REMARK    2  A    between atoms: C_2  and  C_3
REMARK    3  A    between atoms: C_3  and  C_4
REMARK    4  A    between atoms: C_10  and  C_11
REMARK    5  A    between atoms: C_11  and  C_12
REMARK    6  A    between atoms: C_15  and  C_16
REMARK    7  A    between atoms: C_16  and  O_18
REMARK                            x       y       z     vdW  Elec       q    Type
REMARK                         _______ _______ _______ _____ _____    ______ ____
ROOT
ATOM      1  C   UNL     1      46.913   6.434  12.671  0.00  0.00    +0.000 A 
ATOM      2  C   UNL     1      46.187   7.642  12.709  0.00  0.00    +0.000 A 
ATOM      3  N   UNL     1      44.913   7.798  12.270  0.00  0.00    +0.000 NA
ATOM      4  C   UNL     1      44.369   6.668  11.797  0.00  0.00    +0.000 A 
ATOM      5  C   UNL     1      43.064   6.493  11.201  0.00  0.00    +0.000 C 
ATOM      6  N   UNL     1      42.871   5.183  10.797  0.00  0.00    +0.000 NA
ATOM      7  C   UNL     1      43.985   4.566  11.117  0.00  0.00    +0.000 C 
ATOM      8  C   UNL     1      44.983   5.439  11.735  0.00  0.00    +0.000 A 
ATOM      9  C   UNL     1      46.280   5.284  12.171  0.00  0.00    +0.000 A 
ENDROOT
BRANCH   1  10
ATOM     10  C   UNL     1      48.337   6.386  13.156  0.00  0.00    +0.000 C 
BRANCH  10  11
ATOM     11  C   UNL     1      48.442   6.647  14.662  0.00  0.00    +0.000 C 
BRANCH  11  12
ATOM     12  N   UNL     1      47.949   5.503  15.423  0.00  0.00    +0.000 NA
ATOM     13  H   UNL     1      47.010   5.263  15.104  0.00  0.00    +0.000 HD
ATOM     14  H   UNL     1      47.858   5.751  16.408  0.00  0.00    +0.000 HD
ENDBRANCH  11  12
ENDBRANCH  10  11
ENDBRANCH   1  10
BRANCH   7  15
ATOM     15  C   UNL     1      44.254   3.116  10.830  0.00  0.00    +0.000 C 
BRANCH  15  16
ATOM     16  C   UNL     1      45.041   2.958   9.555  0.00  0.00    +0.000 A 
ATOM     17  C   UNL     1      45.400   4.079   8.805  0.00  0.00    +0.000 A 
ATOM     18  C   UNL     1      46.204   3.918   7.680  0.00  0.00    +0.000 A 
ATOM     19  C   UNL     1      46.632   2.639   7.326  0.00  0.00    +0.000 A 
ATOM     20  C   UNL     1      46.187   1.569   8.088  0.00  0.00    +0.000 A 
ATOM     21  N   UNL     1      45.416   1.703   9.201  0.00  0.00    +0.000 NA
BRANCH  19  22
ATOM     22  C   UNL     1      47.511   2.386   6.166  0.00  0.00    +0.000 C 
ATOM     23  O   UNL     1      48.375   1.529   6.168  0.00  0.00    +0.000 OA
BRANCH  22  24
ATOM     24  O   UNL     1      47.297   3.214   5.119  0.00  0.00    +0.000 OA
ATOM     25  H   UNL     1      46.886   2.817   4.328  0.00  0.00    +0.000 HD
ENDBRANCH  22  24
ENDBRANCH  19  22
ENDBRANCH  15  16
ENDBRANCH   7  15
TORSDOF 7
ENDMDL
MODEL 5
REMARK VINA RESULT:    -7.249      3.637      6.915
REMARK INTER + INTRA:         -10.398
REMARK INTER:                 -10.039
REMARK INTRA:                  -0.359
REMARK UNBOUND:                -0.606
REMARK  Name = 
REMARK  7 active torsions:
REMARK  status: ('A' for Active; 'I' for Inactive)
REMARK    1  A    between atoms: N_1  and  C_2
REMARK    2  A    between atoms: C_2  and  C_3
REMARK    3  A    between atoms: C_3  and  C_4
REMARK    4  A    between atoms: C_10  and  C_11
REMARK    5  A    between atoms: C_11  and  C_12
REMARK    6  A    between atoms: C_15  and  C_16
REMARK    7  A    between atoms: C_16  and  O_18
REMARK                            x       y       z     vdW  Elec       q    Type
REMARK                         _______ _______ _______ _____ _____    ______ ____
ROOT
ATOM      1  C   UNL     1      45.815   3.317   8.057  0.00  0.00    +0.000 A 
ATOM      2  C   UNL     1      45.331   2.032   8.377  0.00  0.00    +0.000 A 
ATOM      3  N   UNL     1      44.524   1.745   9.429  0.00  0.00    +0.000 NA
ATOM      4  C   UNL     1      44.193   2.820  10.158  0.00  0.00    +0.000 A 
ATOM      5  C   UNL     1      43.405   2.863  11.369  0.00  0.00    +0.000 C 
ATOM      6  N   UNL     1      43.310   4.155  11.856  0.00  0.00    +0.000 NA
ATOM      7  C   UNL     1      43.994   4.886  11.007  0.00  0.00    +0.000 C 
ATOM      8  C   UNL     1      44.595   4.113   9.919  0.00  0.00    +0.000 A 
ATOM      9  C   UNL     1      45.423   4.403   8.858  0.00  0.00    +0.000 A 
ENDROOT
BRANCH   1  10
ATOM     10  C   UNL     1      46.736   3.512   6.882  0.00  0.00    +0.000 C 
BRANCH  10  11
ATOM     11  C   UNL     1      47.893   2.509   6.883  0.00  0.00    +0.000 C 
BRANCH  11  12
ATOM     12  N   UNL     1      48.309   2.195   5.520  0.00  0.00    +0.000 NA
ATOM     13  H   UNL     1      48.405   1.184   5.419  0.00  0.00    +0.000 HD
ATOM     14  H   UNL     1      49.233   2.585   5.336  0.00  0.00    +0.000 HD
ENDBRANCH  11  12
ENDBRANCH  10  11
ENDBRANCH   1  10
BRANCH   7  15
ATOM     15  C   UNL     1      44.204   6.366  11.151  0.00  0.00    +0.000 C 
BRANCH  15  16
ATOM     16  C   UNL     1      45.430   6.657  11.976  0.00  0.00    +0.000 A 
ATOM     17  C   UNL     1      45.670   7.947  12.451  0.00  0.00    +0.000 A 
ATOM     18  C   UNL     1      46.761   8.174  13.286  0.00  0.00    +0.000 A 
ATOM     19  C   UNL     1      47.591   7.107  13.628  0.00  0.00    +0.000 A 
ATOM     20  C   UNL     1      47.320   5.866  13.071  0.00  0.00    +0.000 A 
ATOM     21  N   UNL     1      46.251   5.616  12.267  0.00  0.00    +0.000 NA
BRANCH  19  22
ATOM     22  C   UNL     1      48.750   7.257  14.532  0.00  0.00    +0.000 C 
ATOM     23  O   UNL     1      48.640   7.616  15.690  0.00  0.00    +0.000 OA
BRANCH  22  24
ATOM     24  O   UNL     1      49.942   6.998  13.951  0.00  0.00    +0.000 OA
ATOM     25  H   UNL     1      50.406   6.195  14.251  0.00  0.00    +0.000 HD
ENDBRANCH  22  24
ENDBRANCH  19  22
ENDBRANCH  15  16
ENDBRANCH   7  15
TORSDOF 7
ENDMDL
MODEL 6
REMARK VINA RESULT:    -6.111      5.286      7.916
REMARK INTER + INTRA:          -8.861
REMARK INTER:                  -8.508
REMARK INTRA:                  -0.353
REMARK UNBOUND:                -0.606
REMARK  Name = 
REMARK  7 active torsions:
REMARK  status: ('A' for Active; 'I' for Inactive)
REMARK    1  A    between atoms: N_1  and  C_2
REMARK    2  A    between atoms: C_2  and  C_3
REMARK    3  A    between atoms: C_3  and  C_4
REMARK    4  A    between atoms: C_10  and  C_11
REMARK    5  A    between atoms: C_11  and  C_12
REMARK    6  A    between atoms: C_15  and  C_16
REMARK    7  A    between atoms: C_16  and  O_18
REMARK                            x       y       z     vdW  Elec       q    Type
REMARK                         _______ _______ _______ _____ _____    ______ ____
ROOT
ATOM      1  C   UNL     1      45.089   5.118  12.385  0.00  0.00    +0.000 A 
ATOM      2  C   UNL     1      45.745   6.027  11.531  0.00  0.00    +0.000 A 
ATOM      3  N   UNL     1      46.914   6.654  11.813  0.00  0.00    +0.000 NA
ATOM      4  C   UNL     1      47.430   6.315  13.003  0.00  0.00    +0.000 A 
ATOM      5  C   UNL     1      48.621   6.833  13.635  0.00  0.00    +0.000 C 
ATOM      6  N   UNL     1      48.811   6.266  14.883  0.00  0.00    +0.000 NA
ATOM      7  C   UNL     1      47.803   5.438  15.033  0.00  0.00    +0.000 C 
ATOM      8  C   UNL     1      46.881   5.425  13.897  0.00  0.00    +0.000 A 
ATOM      9  C   UNL     1      45.688   4.798  13.615  0.00  0.00    +0.000 A 
ENDROOT
BRANCH   1  10
ATOM     10  C   UNL     1      43.774   4.507  11.981  0.00  0.00    +0.000 C 
BRANCH  10  11
ATOM     11  C   UNL     1      43.943   3.091  11.423  0.00  0.00    +0.000 C 
BRANCH  11  12
ATOM     12  N   UNL     1      43.468   2.096  12.379  0.00  0.00    +0.000 NA
ATOM     13  H   UNL     1      42.615   2.434  12.825  0.00  0.00    +0.000 HD
ATOM     14  H   UNL     1      44.149   1.976  13.127  0.00  0.00    +0.000 HD
ENDBRANCH  11  12
ENDBRANCH  10  11
ENDBRANCH   1  10
BRANCH   7  15
ATOM     15  C   UNL     1      47.567   4.616  16.268  0.00  0.00    +0.000 C 
BRANCH  15  16
ATOM     16  C   UNL     1      48.792   3.812  16.620  0.00  0.00    +0.000 A 
ATOM     17  C   UNL     1      49.793   4.368  17.418  0.00  0.00    +0.000 A 
ATOM     18  C   UNL     1      50.872   3.578  17.805  0.00  0.00    +0.000 A 
ATOM     19  C   UNL     1      50.930   2.249  17.386  0.00  0.00    +0.000 A 
ATOM     20  C   UNL     1      49.926   1.787  16.548  0.00  0.00    +0.000 A 
ATOM     21  N   UNL     1      48.853   2.533  16.171  0.00  0.00    +0.000 NA
BRANCH  19  22
ATOM     22  C   UNL     1      52.024   1.337  17.778  0.00  0.00    +0.000 C 
ATOM     23  O   UNL     1      53.197   1.659  17.740  0.00  0.00    +0.000 OA
BRANCH  22  24
ATOM     24  O   UNL     1      51.610   0.104  18.146  0.00  0.00    +0.000 OA
ATOM     25  H   UNL     1      52.100  -0.649  17.768  0.00  0.00    +0.000 HD
ENDBRANCH  22  24
ENDBRANCH  19  22
ENDBRANCH  15  16
ENDBRANCH   7  15
TORSDOF 7
ENDMDL
MODEL 7
REMARK VINA RESULT:    -5.994      4.644      7.719
REMARK INTER + INTRA:          -8.703
REMARK INTER:                  -8.107
REMARK INTRA:                  -0.596
REMARK UNBOUND:                -0.606
REMARK  Name = 
REMARK  7 active torsions:
REMARK  status: ('A' for Active; 'I' for Inactive)
REMARK    1  A    between atoms: N_1  and  C_2
REMARK    2  A    between atoms: C_2  and  C_3
REMARK    3  A    between atoms: C_3  and  C_4
REMARK    4  A    between atoms: C_10  and  C_11
REMARK    5  A    between atoms: C_11  and  C_12
REMARK    6  A    between atoms: C_15  and  C_16
REMARK    7  A    between atoms: C_16  and  O_18
REMARK                            x       y       z     vdW  Elec       q    Type
REMARK                         _______ _______ _______ _____ _____    ______ ____
ROOT
ATOM      1  C   UNL     1      44.308   4.199  10.853  0.00  0.00    +0.000 A 
ATOM      2  C   UNL     1      43.275   5.152  10.746  0.00  0.00    +0.000 A 
ATOM      3  N   UNL     1      43.338   6.423  11.213  0.00  0.00    +0.000 NA
ATOM      4  C   UNL     1      44.510   6.723  11.791  0.00  0.00    +0.000 A 
ATOM      5  C   UNL     1      44.889   7.956  12.441  0.00  0.00    +0.000 C 
ATOM      6  N   UNL     1      46.173   7.876  12.952  0.00  0.00    +0.000 NA
ATOM      7  C   UNL     1      46.583   6.667  12.645  0.00  0.00    +0.000 C 
ATOM      8  C   UNL     1      45.583   5.875  11.927  0.00  0.00    +0.000 A 
ATOM      9  C   UNL     1      45.515   4.581  11.462  0.00  0.00    +0.000 A 
ENDROOT
BRANCH   1  10
ATOM     10  C   UNL     1      44.113   2.802  10.326  0.00  0.00    +0.000 C 
BRANCH  10  11
ATOM     11  C   UNL     1      44.723   2.622   8.933  0.00  0.00    +0.000 C 
BRANCH  11  12
ATOM     12  N   UNL     1      45.456   1.362   8.846  0.00  0.00    +0.000 NA
ATOM     13  H   UNL     1      44.967   0.648   9.387  0.00  0.00    +0.000 HD
ATOM     14  H   UNL     1      46.375   1.461   9.276  0.00  0.00    +0.000 HD
ENDBRANCH  11  12
ENDBRANCH  10  11
ENDBRANCH   1  10
BRANCH   7  15
ATOM     15  C   UNL     1      47.922   6.109  13.035  0.00  0.00    +0.000 C 
BRANCH  15  16
ATOM     16  C   UNL     1      47.909   5.634  14.465  0.00  0.00    +0.000 A 
ATOM     17  C   UNL     1      47.068   4.591  14.853  0.00  0.00    +0.000 A 
ATOM     18  C   UNL     1      47.138   4.108  16.156  0.00  0.00    +0.000 A 
ATOM     19  C   UNL     1      48.047   4.678  17.047  0.00  0.00    +0.000 A 
ATOM     20  C   UNL     1      48.809   5.748  16.603  0.00  0.00    +0.000 A 
ATOM     21  N   UNL     1      48.771   6.227  15.329  0.00  0.00    +0.000 NA
BRANCH  19  22
ATOM     22  C   UNL     1      48.205   4.204  18.437  0.00  0.00    +0.000 C 
ATOM     23  O   UNL     1      48.714   4.881  19.311  0.00  0.00    +0.000 OA
BRANCH  22  24
ATOM     24  O   UNL     1      47.770   2.941  18.643  0.00  0.00    +0.000 OA
ATOM     25  H   UNL     1      47.377   2.754  19.515  0.00  0.00    +0.000 HD
ENDBRANCH  22  24
ENDBRANCH  19  22
ENDBRANCH  15  16
ENDBRANCH   7  15
TORSDOF 7
ENDMDL
MODEL 8
REMARK VINA RESULT:    -5.781      4.621      7.490
REMARK INTER + INTRA:          -8.415
REMARK INTER:                  -7.902
REMARK INTRA:                  -0.513
REMARK UNBOUND:                -0.606
REMARK  Name = 
REMARK  7 active torsions:
REMARK  status: ('A' for Active; 'I' for Inactive)
REMARK    1  A    between atoms: N_1  and  C_2
REMARK    2  A    between atoms: C_2  and  C_3
REMARK    3  A    between atoms: C_3  and  C_4
REMARK    4  A    between atoms: C_10  and  C_11
REMARK    5  A    between atoms: C_11  and  C_12
REMARK    6  A    between atoms: C_15  and  C_16
REMARK    7  A    between atoms: C_16  and  O_18
REMARK                            x       y       z     vdW  Elec       q    Type
REMARK                         _______ _______ _______ _____ _____    ______ ____
ROOT
ATOM      1  C   UNL     1      44.454   5.083  10.961  0.00  0.00    +0.000 A 
ATOM      2  C   UNL     1      43.502   6.118  10.880  0.00  0.00    +0.000 A 
ATOM      3  N   UNL     1      43.688   7.384  11.331  0.00  0.00    +0.000 NA
ATOM      4  C   UNL     1      44.902   7.589  11.862  0.00  0.00    +0.000 A 
ATOM      5  C   UNL     1      45.408   8.791  12.484  0.00  0.00    +0.000 C 
ATOM      6  N   UNL     1      46.698   8.607  12.948  0.00  0.00    +0.000 NA
ATOM      7  C   UNL     1      46.994   7.366  12.640  0.00  0.00    +0.000 C 
ATOM      8  C   UNL     1      45.905   6.654  11.968  0.00  0.00    +0.000 A 
ATOM      9  C   UNL     1      45.711   5.367  11.521  0.00  0.00    +0.000 A 
ENDROOT
BRANCH   1  10
ATOM     10  C   UNL     1      44.124   3.704  10.456  0.00  0.00    +0.000 C 
BRANCH  10  11
ATOM     11  C   UNL     1      43.289   2.906  11.463  0.00  0.00    +0.000 C 
BRANCH  11  12
ATOM     12  N   UNL     1      44.093   2.531  12.622  0.00  0.00    +0.000 NA
ATOM     13  H   UNL     1      44.024   3.260  13.333  0.00  0.00    +0.000 HD
ATOM     14  H   UNL     1      45.078   2.481  12.364  0.00  0.00    +0.000 HD
ENDBRANCH  11  12
ENDBRANCH  10  11
ENDBRANCH   1  10
BRANCH   7  15
ATOM     15  C   UNL     1      48.295   6.700  12.987  0.00  0.00    +0.000 C 
BRANCH  15  16
ATOM     16  C   UNL     1      48.222   6.056  14.347  0.00  0.00    +0.000 A 
ATOM     17  C   UNL     1      48.851   6.649  15.442  0.00  0.00    +0.000 A 
ATOM     18  C   UNL     1      48.696   6.085  16.705  0.00  0.00    +0.000 A 
ATOM     19  C   UNL     1      47.917   4.938  16.848  0.00  0.00    +0.000 A 
ATOM     20  C   UNL     1      47.371   4.375  15.704  0.00  0.00    +0.000 A 
ATOM     21  N   UNL     1      47.494   4.917  14.462  0.00  0.00    +0.000 NA
BRANCH  19  22
ATOM     22  C   UNL     1      47.677   4.296  18.157  0.00  0.00    +0.000 C 
ATOM     23  O   UNL     1      48.123   4.737  19.200  0.00  0.00    +0.000 OA
BRANCH  22  24
ATOM     24  O   UNL     1      46.953   3.157  18.090  0.00  0.00    +0.000 OA
ATOM     25  H   UNL     1      46.720   2.841  17.197  0.00  0.00    +0.000 HD
ENDBRANCH  22  24
ENDBRANCH  19  22
ENDBRANCH  15  16
ENDBRANCH   7  15
TORSDOF 7
ENDMDL
MODEL 9
REMARK VINA RESULT:    -5.283      3.673      6.371
REMARK INTER + INTRA:          -7.743
REMARK INTER:                  -7.156
REMARK INTRA:                  -0.587
REMARK UNBOUND:                -0.606
REMARK  Name = 
REMARK  7 active torsions:
REMARK  status: ('A' for Active; 'I' for Inactive)
REMARK    1  A    between atoms: N_1  and  C_2
REMARK    2  A    between atoms: C_2  and  C_3
REMARK    3  A    between atoms: C_3  and  C_4
REMARK    4  A    between atoms: C_10  and  C_11
REMARK    5  A    between atoms: C_11  and  C_12
REMARK    6  A    between atoms: C_15  and  C_16
REMARK    7  A    between atoms: C_16  and  O_18
REMARK                            x       y       z     vdW  Elec       q    Type
REMARK                         _______ _______ _______ _____ _____    ______ ____
ROOT
ATOM      1  C   UNL     1      45.210   2.943   9.812  0.00  0.00    +0.000 A 
ATOM      2  C   UNL     1      43.805   2.867   9.888  0.00  0.00    +0.000 A 
ATOM      3  N   UNL     1      43.061   3.262  10.950  0.00  0.00    +0.000 NA
ATOM      4  C   UNL     1      43.789   3.768  11.955  0.00  0.00    +0.000 A 
ATOM      5  C   UNL     1      43.327   4.223  13.246  0.00  0.00    +0.000 C 
ATOM      6  N   UNL     1      44.383   4.645  14.035  0.00  0.00    +0.000 NA
ATOM      7  C   UNL     1      45.450   4.469  13.290  0.00  0.00    +0.000 C 
ATOM      8  C   UNL     1      45.157   3.904  11.972  0.00  0.00    +0.000 A 
ATOM      9  C   UNL     1      45.914   3.493  10.897  0.00  0.00    +0.000 A 
ENDROOT
BRANCH   1  10
ATOM     10  C   UNL     1      45.935   2.442   8.592  0.00  0.00    +0.000 C 
BRANCH  10  11
ATOM     11  C   UNL     1      45.716   3.349   7.378  0.00  0.00    +0.000 C 
BRANCH  11  12
ATOM     12  N   UNL     1      46.892   4.177   7.129  0.00  0.00    +0.000 NA
ATOM     13  H   UNL     1      47.520   3.691   6.488  0.00  0.00    +0.000 HD
ATOM     14  H   UNL     1      47.417   4.308   7.993  0.00  0.00    +0.000 HD
ENDBRANCH  11  12
ENDBRANCH  10  11
ENDBRANCH   1  10
BRANCH   7  15
ATOM     15  C   UNL     1      46.851   4.757  13.748  0.00  0.00    +0.000 C 
BRANCH  15  16
ATOM     16  C   UNL     1      47.386   6.001  13.088  0.00  0.00    +0.000 A 
ATOM     17  C   UNL     1      46.515   7.009  12.672  0.00  0.00    +0.000 A 
ATOM     18  C   UNL     1      47.037   8.187  12.148  0.00  0.00    +0.000 A 
ATOM     19  C   UNL     1      48.420   8.335  12.046  0.00  0.00    +0.000 A 
ATOM     20  C   UNL     1      49.218   7.266  12.428  0.00  0.00    +0.000 A 
ATOM     21  N   UNL     1      48.733   6.112  12.959  0.00  0.00    +0.000 NA
BRANCH  19  22
ATOM     22  C   UNL     1      49.055   9.565  11.530  0.00  0.00    +0.000 C 
ATOM     23  O   UNL     1      48.427  10.580  11.290  0.00  0.00    +0.000 OA
BRANCH  22  24
ATOM     24  O   UNL     1      50.384   9.453  11.313  0.00  0.00    +0.000 OA
ATOM     25  H   UNL     1      50.806  10.177  10.816  0.00  0.00    +0.000 HD
ENDBRANCH  22  24
ENDBRANCH  19  22
ENDBRANCH  15  16
ENDBRANCH   7  15
TORSDOF 7
ENDMDL
