MODEL 1
REMARK VINA RESULT:    -8.499      0.000      0.000
REMARK INTER + INTRA:         -13.420
REMARK INTER:                 -12.473
REMARK INTRA:                  -0.947
REMARK UNBOUND:                -0.947
REMARK  Name = 
REMARK  9 active torsions:
REMARK  status: ('A' for Active; 'I' for Inactive)
REMARK    1  A    between atoms: N_1  and  C_2
REMARK    2  A    between atoms: C_2  and  C_3
REMARK    3  A    between atoms: C_2  and  C_19
REMARK    4  A    between atoms: C_3  and  C_4
REMARK    5  A    between atoms: C_7  and  C_8
REMARK    6  A    between atoms: C_8  and  N_9
REMARK    7  A    between atoms: N_9  and  C_10
REMARK    8  A    between atoms: C_13  and  O_14
REMARK    9  A    between atoms: C_19  and  C_21
REMARK                            x       y       z     vdW  Elec       q    Type
REMARK                         _______ _______ _______ _____ _____    ______ ____
ROOT
ATOM      1  C   UNL     1      47.240   5.103  14.466  0.00  0.00    +0.000 C 
ENDROOT
BRANCH   1   2
ATOM      2  C   UNL     1      46.342   4.987  13.257  0.00  0.00    +0.000 A 
ATOM      3  C   UNL     1      46.317   5.976  12.267  0.00  0.00    +0.000 A 
ATOM      4  C   UNL     1      45.616   5.771  11.075  0.00  0.00    +0.000 A 
ATOM      5  C   UNL     1      44.936   4.567  10.833  0.00  0.00    +0.000 A 
ATOM      6  C   UNL     1      44.933   3.590  11.838  0.00  0.00    +0.000 A 
ATOM      7  C   UNL     1      45.627   3.799  13.033  0.00  0.00    +0.000 A 
BRANCH   5   8
ATOM      8  C   UNL     1      44.229   4.342   9.520  0.00  0.00    +0.000 C 
BRANCH   8   9
ATOM      9  N   UNL     1      45.136   4.571   8.394  0.00  0.00    +0.000 NA
ATOM     10  H   UNL     1      46.007   4.956   8.759  0.00  0.00    +0.000 HD
BRANCH   9  11
ATOM     11  C   UNL     1      45.413   3.377   7.590  0.00  0.00    +0.000 C 
ATOM     12  C   UNL     1      46.348   3.687   6.409  0.00  0.00    +0.000 C 
ATOM     13  C   UNL     1      46.780   2.429   5.660  0.00  0.00    +0.000 C 
ATOM     14  C   UNL     1      47.392   1.379   6.581  0.00  0.00    +0.000 C 
ATOM     15  C   UNL     1      46.475   1.063   7.760  0.00  0.00    +0.000 C 
ATOM     16  C   UNL     1      46.043   2.320   8.519  0.00  0.00    +0.000 C 
BRANCH  14  17
ATOM     17  O   UNL     1      48.665   1.815   7.049  0.00  0.00    +0.000 OA
ATOM     18  H   UNL     1      48.872   2.678   6.651  0.00  0.00    +0.000 HD
ENDBRANCH  14  17
ENDBRANCH   9  11
ENDBRANCH   8   9
ENDBRANCH   5   8
ENDBRANCH   1   2
BRANCH   1  19
ATOM     19  C   UNL     1      47.173   4.057  15.591  0.00  0.00    +0.000 C 
BRANCH  19  20
ATOM     20  N   UNL     1      47.897   2.793  15.289  0.00  0.00    +0.000 NA
ATOM     21  H   UNL     1      48.140   2.356  16.180  0.00  0.00    +0.000 HD
ATOM     22  H   UNL     1      48.806   3.061  14.895  0.00  0.00    +0.000 HD
ENDBRANCH  19  20
BRANCH  19  23
ATOM     23  C   UNL     1      47.609   4.603  16.968  0.00  0.00    +0.000 C 
ATOM     24  O   UNL     1      46.824   4.539  17.920  0.00  0.00    +0.000 OA
BRANCH  23  25
ATOM     25  C   UNL     1      48.966   5.140  17.181  0.00  0.00    +0.000 A 
ATOM     26  C   UNL     1      49.200   6.499  17.012  0.00  0.00    +0.000 A 
ATOM     27  S   UNL     1      50.786   6.974  17.416  0.00  0.00    +0.000 S 
ATOM     28  C   UNL     1      51.229   5.373  17.781  0.00  0.00    +0.000 A 
ATOM     29  N   UNL     1      52.475   5.079  18.242  0.00  0.00    +0.000 NA
ATOM     30  C   UNL     1      52.676   3.824  18.472  0.00  0.00    +0.000 A 
ATOM     31  N   UNL     1      51.754   2.834  18.252  0.00  0.00    +0.000 N 
ATOM     32  C   UNL     1      50.550   3.073  17.636  0.00  0.00    +0.000 A 
ATOM     33  O   UNL     1      49.890   2.154  17.165  0.00  0.00    +0.000 OA
ATOM     34  C   UNL     1      50.203   4.480  17.525  0.00  0.00    +0.000 A 
ATOM     35  H   UNL     1      52.014   1.864  18.351  0.00  0.00    +0.000 HD
ENDBRANCH  23  25
ENDBRANCH  19  23
ENDBRANCH   1  19
TORSDOF 9
ENDMDL
MODEL 2
REMARK VINA RESULT:    -8.390      2.297      3.258
REMARK INTER + INTRA:         -13.261
REMARK INTER:                 -12.097
REMARK INTRA:                  -1.164
REMARK UNBOUND:                -0.947
REMARK  Name = 
REMARK  9 active torsions:
REMARK  status: ('A' for Active; 'I' for Inactive)
REMARK    1  A    between atoms: N_1  and  C_2
REMARK    2  A    between atoms: C_2  and  C_3
REMARK    3  A    between atoms: C_2  and  C_19
REMARK    4  A    between atoms: C_3  and  C_4
REMARK    5  A    between atoms: C_7  and  C_8
REMARK    6  A    between atoms: C_8  and  N_9
REMARK    7  A    between atoms: N_9  and  C_10
REMARK    8  A    between atoms: C_13  and  O_14
REMARK    9  A    between atoms: C_19  and  C_21
REMARK                            x       y       z     vdW  Elec       q    Type
REMARK                         _______ _______ _______ _____ _____    ______ ____
ROOT
ATOM      1  C   UNL     1      46.097   7.683  13.274  0.00  0.00    +0.000 C 
ENDROOT
BRANCH   1   2
ATOM      2  C   UNL     1      45.730   6.477  12.439  0.00  0.00    +0.000 A 
ATOM      3  C   UNL     1      44.874   5.484  12.926  0.00  0.00    +0.000 A 
ATOM      4  C   UNL     1      44.407   4.472  12.084  0.00  0.00    +0.000 A 
ATOM      5  C   UNL     1      44.769   4.435  10.728  0.00  0.00    +0.000 A 
ATOM      6  C   UNL     1      45.654   5.410  10.248  0.00  0.00    +0.000 A 
ATOM      7  C   UNL     1      46.127   6.417  11.093  0.00  0.00    +0.000 A 
BRANCH   5   8
ATOM      8  C   UNL     1      44.215   3.365   9.820  0.00  0.00    +0.000 C 
BRANCH   8   9
ATOM      9  N   UNL     1      45.221   2.335   9.554  0.00  0.00    +0.000 NA
ATOM     10  H   UNL     1      44.890   1.455   9.951  0.00  0.00    +0.000 HD
BRANCH   9  11
ATOM     11  C   UNL     1      45.539   2.156   8.134  0.00  0.00    +0.000 C 
ATOM     12  C   UNL     1      46.008   3.470   7.485  0.00  0.00    +0.000 C 
ATOM     13  C   UNL     1      46.501   3.270   6.053  0.00  0.00    +0.000 C 
ATOM     14  C   UNL     1      47.577   2.195   5.949  0.00  0.00    +0.000 C 
ATOM     15  C   UNL     1      47.127   0.886   6.593  0.00  0.00    +0.000 C 
ATOM     16  C   UNL     1      46.635   1.078   8.029  0.00  0.00    +0.000 C 
BRANCH  14  17
ATOM     17  O   UNL     1      48.788   2.647   6.547  0.00  0.00    +0.000 OA
ATOM     18  H   UNL     1      49.433   2.848   5.847  0.00  0.00    +0.000 HD
ENDBRANCH  14  17
ENDBRANCH   9  11
ENDBRANCH   8   9
ENDBRANCH   5   8
ENDBRANCH   1   2
BRANCH   1  19
ATOM     19  C   UNL     1      47.544   8.202  13.300  0.00  0.00    +0.000 C 
BRANCH  19  20
ATOM     20  N   UNL     1      47.727   9.448  14.093  0.00  0.00    +0.000 NA
ATOM     21  H   UNL     1      48.081  10.167  13.459  0.00  0.00    +0.000 HD
ATOM     22  H   UNL     1      48.513   9.278  14.730  0.00  0.00    +0.000 HD
ENDBRANCH  19  20
BRANCH  19  23
ATOM     23  C   UNL     1      48.574   7.138  13.736  0.00  0.00    +0.000 C 
ATOM     24  O   UNL     1      49.361   6.679  12.901  0.00  0.00    +0.000 OA
BRANCH  23  25
ATOM     25  C   UNL     1      48.677   6.707  15.143  0.00  0.00    +0.000 A 
ATOM     26  C   UNL     1      49.397   7.481  16.046  0.00  0.00    +0.000 A 
ATOM     27  S   UNL     1      49.313   6.911  17.651  0.00  0.00    +0.000 S 
ATOM     28  C   UNL     1      48.357   5.583  17.185  0.00  0.00    +0.000 A 
ATOM     29  N   UNL     1      47.890   4.699  18.108  0.00  0.00    +0.000 NA
ATOM     30  C   UNL     1      47.183   3.737  17.615  0.00  0.00    +0.000 A 
ATOM     31  N   UNL     1      46.928   3.563  16.280  0.00  0.00    +0.000 N 
ATOM     32  C   UNL     1      47.517   4.338  15.310  0.00  0.00    +0.000 A 
ATOM     33  O   UNL     1      47.536   3.976  14.140  0.00  0.00    +0.000 OA
ATOM     34  C   UNL     1      48.168   5.535  15.814  0.00  0.00    +0.000 A 
ATOM     35  H   UNL     1      46.460   2.730  15.954  0.00  0.00    +0.000 HD
ENDBRANCH  23  25
ENDBRANCH  19  23
ENDBRANCH   1  19
TORSDOF 9
ENDMDL
MODEL 3
REMARK VINA RESULT:    -8.040      1.874      2.467
REMARK INTER + INTRA:         -12.748
REMARK INTER:                 -11.861
REMARK INTRA:                  -0.887
REMARK UNBOUND:                -0.947
REMARK  Name = 
REMARK  9 active torsions:
REMARK  status: ('A' for Active; 'I' for Inactive)
REMARK    1  A    between atoms: N_1  and  C_2
REMARK    2  A    between atoms: C_2  and  C_3
REMARK    3  A    between atoms: C_2  and  C_19
REMARK    4  A    between atoms: C_3  and  C_4
REMARK    5  A    between atoms: C_7  and  C_8
REMARK    6  A    between atoms: C_8  and  N_9
REMARK    7  A    between atoms: N_9  and  C_10
REMARK    8  A    between atoms: C_13  and  O_14
REMARK    9  A    between atoms: C_19  and  C_21
REMARK                            x       y       z     vdW  Elec       q    Type
REMARK                         _______ _______ _______ _____ _____    ______ ____
ROOT
ATOM      1  C   UNL     1      46.922   7.005  13.349  0.00  0.00    +0.000 C 
ENDROOT
BRANCH   1   2
ATOM      2  C   UNL     1      46.098   6.067  12.499  0.00  0.00    +0.000 A 
ATOM      3  C   UNL     1      45.753   6.386  11.182  0.00  0.00    +0.000 A 
ATOM      4  C   UNL     1      45.145   5.437  10.356  0.00  0.00    +0.000 A 
ATOM      5  C   UNL     1      44.880   4.138  10.819  0.00  0.00    +0.000 A 
ATOM      6  C   UNL     1      45.194   3.829  12.149  0.00  0.00    +0.000 A 
ATOM      7  C   UNL     1      45.795   4.781  12.977  0.00  0.00    +0.000 A 
BRANCH   5   8
ATOM      8  C   UNL     1      44.270   3.110   9.899  0.00  0.00    +0.000 C 
BRANCH   8   9
ATOM      9  N   UNL     1      45.253   2.087   9.537  0.00  0.00    +0.000 NA
ATOM     10  H   UNL     1      44.901   1.182   9.850  0.00  0.00    +0.000 HD
BRANCH   9  11
ATOM     11  C   UNL     1      45.571   2.035   8.107  0.00  0.00    +0.000 C 
ATOM     12  C   UNL     1      46.033   3.403   7.575  0.00  0.00    +0.000 C 
ATOM     13  C   UNL     1      46.525   3.332   6.131  0.00  0.00    +0.000 C 
ATOM     14  C   UNL     1      47.606   2.275   5.932  0.00  0.00    +0.000 C 
ATOM     15  C   UNL     1      47.163   0.912   6.459  0.00  0.00    +0.000 C 
ATOM     16  C   UNL     1      46.672   0.975   7.907  0.00  0.00    +0.000 C 
BRANCH  14  17
ATOM     17  O   UNL     1      48.816   2.680   6.568  0.00  0.00    +0.000 OA
ATOM     18  H   UNL     1      49.051   3.573   6.264  0.00  0.00    +0.000 HD
ENDBRANCH  14  17
ENDBRANCH   9  11
ENDBRANCH   8   9
ENDBRANCH   5   8
ENDBRANCH   1   2
BRANCH   1  19
ATOM     19  C   UNL     1      48.302   6.574  13.874  0.00  0.00    +0.000 C 
BRANCH  19  20
ATOM     20  N   UNL     1      49.385   6.638  12.856  0.00  0.00    +0.000 NA
ATOM     21  H   UNL     1      49.987   7.428  13.096  0.00  0.00    +0.000 HD
ATOM     22  H   UNL     1      48.946   6.926  11.976  0.00  0.00    +0.000 HD
ENDBRANCH  19  20
BRANCH  19  23
ATOM     23  C   UNL     1      48.734   7.316  15.157  0.00  0.00    +0.000 C 
ATOM     24  O   UNL     1      48.434   8.506  15.299  0.00  0.00    +0.000 OA
BRANCH  23  25
ATOM     25  C   UNL     1      49.441   6.612  16.244  0.00  0.00    +0.000 A 
ATOM     26  C   UNL     1      50.755   6.954  16.540  0.00  0.00    +0.000 A 
ATOM     27  S   UNL     1      51.383   6.136  17.898  0.00  0.00    +0.000 S 
ATOM     28  C   UNL     1      49.939   5.260  18.104  0.00  0.00    +0.000 A 
ATOM     29  N   UNL     1      49.790   4.391  19.140  0.00  0.00    +0.000 NA
ATOM     30  C   UNL     1      48.646   3.791  19.172  0.00  0.00    +0.000 A 
ATOM     31  N   UNL     1      47.653   3.958  18.243  0.00  0.00    +0.000 N 
ATOM     32  C   UNL     1      47.830   4.699  17.099  0.00  0.00    +0.000 A 
ATOM     33  O   UNL     1      47.069   4.579  16.147  0.00  0.00    +0.000 OA
ATOM     34  C   UNL     1      49.020   5.534  17.105  0.00  0.00    +0.000 A 
ATOM     35  H   UNL     1      46.827   3.377  18.268  0.00  0.00    +0.000 HD
ENDBRANCH  23  25
ENDBRANCH  19  23
ENDBRANCH   1  19
TORSDOF 9
ENDMDL
MODEL 4
REMARK VINA RESULT:    -7.637      2.771      3.453
REMARK INTER + INTRA:         -12.156
REMARK INTER:                 -11.169
REMARK INTRA:                  -0.987
REMARK UNBOUND:                -0.947
REMARK  Name = 
REMARK  9 active torsions:
REMARK  status: ('A' for Active; 'I' for Inactive)
REMARK    1  A    between atoms: N_1  and  C_2
REMARK    2  A    between atoms: C_2  and  C_3
REMARK    3  A    between atoms: C_2  and  C_19
REMARK    4  A    between atoms: C_3  and  C_4
REMARK    5  A    between atoms: C_7  and  C_8
REMARK    6  A    between atoms: C_8  and  N_9
REMARK    7  A    between atoms: N_9  and  C_10
REMARK    8  A    between atoms: C_13  and  O_14
REMARK    9  A    between atoms: C_19  and  C_21
REMARK                            x       y       z     vdW  Elec       q    Type
REMARK                         _______ _______ _______ _____ _____    ______ ____
ROOT
ATOM      1  C   UNL     1      47.375   7.096  13.645  0.00  0.00    +0.000 C 
ENDROOT
BRANCH   1   2
ATOM      2  C   UNL     1      46.477   6.248  12.774  0.00  0.00    +0.000 A 
ATOM      3  C   UNL     1      46.207   6.594  11.446  0.00  0.00    +0.000 A 
ATOM      4  C   UNL     1      45.523   5.711  10.606  0.00  0.00    +0.000 A 
ATOM      5  C   UNL     1      45.104   4.453  11.066  0.00  0.00    +0.000 A 
ATOM      6  C   UNL     1      45.345   4.119  12.405  0.00  0.00    +0.000 A 
ATOM      7  C   UNL     1      46.022   5.005  13.247  0.00  0.00    +0.000 A 
BRANCH   5   8
ATOM      8  C   UNL     1      44.412   3.492  10.131  0.00  0.00    +0.000 C 
BRANCH   8   9
ATOM      9  N   UNL     1      45.310   2.400   9.749  0.00  0.00    +0.000 NA
ATOM     10  H   UNL     1      44.921   1.527  10.108  0.00  0.00    +0.000 HD
BRANCH   9  11
ATOM     11  C   UNL     1      45.545   2.290   8.306  0.00  0.00    +0.000 C 
ATOM     12  C   UNL     1      46.116   3.593   7.720  0.00  0.00    +0.000 C 
ATOM     13  C   UNL     1      46.522   3.445   6.255  0.00  0.00    +0.000 C 
ATOM     14  C   UNL     1      47.477   2.278   6.026  0.00  0.00    +0.000 C 
ATOM     15  C   UNL     1      46.924   0.978   6.607  0.00  0.00    +0.000 C 
ATOM     16  C   UNL     1      46.519   1.118   8.076  0.00  0.00    +0.000 C 
BRANCH  14  17
ATOM     17  O   UNL     1      48.753   2.566   6.590  0.00  0.00    +0.000 OA
ATOM     18  H   UNL     1      48.852   3.529   6.677  0.00  0.00    +0.000 HD
ENDBRANCH  14  17
ENDBRANCH   9  11
ENDBRANCH   8   9
ENDBRANCH   5   8
ENDBRANCH   1   2
BRANCH   1  19
ATOM     19  C   UNL     1      48.797   6.625  13.991  0.00  0.00    +0.000 C 
BRANCH  19  20
ATOM     20  N   UNL     1      49.825   7.011  12.987  0.00  0.00    +0.000 NA
ATOM     21  H   UNL     1      49.547   6.608  12.091  0.00  0.00    +0.000 HD
ATOM     22  H   UNL     1      50.680   6.498  13.229  0.00  0.00    +0.000 HD
ENDBRANCH  19  20
BRANCH  19  23
ATOM     23  C   UNL     1      49.256   7.036  15.407  0.00  0.00    +0.000 C 
ATOM     24  O   UNL     1      50.079   7.949  15.536  0.00  0.00    +0.000 OA
BRANCH  23  25
ATOM     25  C   UNL     1      48.681   6.403  16.609  0.00  0.00    +0.000 A 
ATOM     26  C   UNL     1      48.449   5.033  16.616  0.00  0.00    +0.000 A 
ATOM     27  S   UNL     1      47.901   4.443  18.119  0.00  0.00    +0.000 S 
ATOM     28  C   UNL     1      47.906   6.004  18.794  0.00  0.00    +0.000 A 
ATOM     29  N   UNL     1      47.575   6.204  20.098  0.00  0.00    +0.000 NA
ATOM     30  C   UNL     1      47.615   7.439  20.476  0.00  0.00    +0.000 A 
ATOM     31  N   UNL     1      47.925   8.493  19.658  0.00  0.00    +0.000 N 
ATOM     32  C   UNL     1      48.103   8.348  18.303  0.00  0.00    +0.000 A 
ATOM     33  O   UNL     1      48.060   9.316  17.554  0.00  0.00    +0.000 OA
ATOM     34  C   UNL     1      48.248   6.970  17.863  0.00  0.00    +0.000 A 
ATOM     35  H   UNL     1      47.832   9.442  19.991  0.00  0.00    +0.000 HD
ENDBRANCH  23  25
ENDBRANCH  19  23
ENDBRANCH   1  19
TORSDOF 9
ENDMDL
MODEL 5
REMARK VINA RESULT:    -7.427      1.627      2.348
REMARK INTER + INTRA:         -11.847
REMARK INTER:                 -10.933
REMARK INTRA:                  -0.914
REMARK UNBOUND:                -0.947
REMARK  Name = 
REMARK  9 active torsions:
REMARK  status: ('A' for Active; 'I' for Inactive)
REMARK    1  A    between atoms: N_1  and  C_2
REMARK    2  A    between atoms: C_2  and  C_3
REMARK    3  A    between atoms: C_2  and  C_19
REMARK    4  A    between atoms: C_3  and  C_4
REMARK    5  A    between atoms: C_7  and  C_8
REMARK    6  A    between atoms: C_8  and  N_9
REMARK    7  A    between atoms: N_9  and  C_10
REMARK    8  A    between atoms: C_13  and  O_14
REMARK    9  A    between atoms: C_19  and  C_21
REMARK                            x       y       z     vdW  Elec       q    Type
REMARK                         _______ _______ _______ _____ _____    ______ ____
ROOT
ATOM      1  C   UNL     1      47.321   5.107  14.571  0.00  0.00    +0.000 C 
ENDROOT
BRANCH   1   2
ATOM      2  C   UNL     1      46.296   4.994  13.467  0.00  0.00    +0.000 A 
ATOM      3  C   UNL     1      46.186   5.968  12.468  0.00  0.00    +0.000 A 
ATOM      4  C   UNL     1      45.358   5.762  11.362  0.00  0.00    +0.000 A 
ATOM      5  C   UNL     1      44.630   4.570  11.215  0.00  0.00    +0.000 A 
ATOM      6  C   UNL     1      44.714   3.609  12.231  0.00  0.00    +0.000 A 
ATOM      7  C   UNL     1      45.536   3.819  13.341  0.00  0.00    +0.000 A 
BRANCH   5   8
ATOM      8  C   UNL     1      43.781   4.343   9.989  0.00  0.00    +0.000 C 
BRANCH   8   9
ATOM      9  N   UNL     1      44.054   3.028   9.403  0.00  0.00    +0.000 NA
ATOM     10  H   UNL     1      43.383   2.868   8.651  0.00  0.00    +0.000 HD
BRANCH   9  11
ATOM     11  C   UNL     1      45.421   2.865   8.899  0.00  0.00    +0.000 C 
ATOM     12  C   UNL     1      45.633   1.480   8.263  0.00  0.00    +0.000 C 
ATOM     13  C   UNL     1      46.996   1.351   7.587  0.00  0.00    +0.000 C 
ATOM     14  C   UNL     1      47.256   2.462   6.576  0.00  0.00    +0.000 C 
ATOM     15  C   UNL     1      47.046   3.843   7.193  0.00  0.00    +0.000 C 
ATOM     16  C   UNL     1      45.680   3.981   7.869  0.00  0.00    +0.000 C 
BRANCH  14  17
ATOM     17  O   UNL     1      46.418   2.299   5.435  0.00  0.00    +0.000 OA
ATOM     18  H   UNL     1      45.495   2.460   5.694  0.00  0.00    +0.000 HD
ENDBRANCH  14  17
ENDBRANCH   9  11
ENDBRANCH   8   9
ENDBRANCH   5   8
ENDBRANCH   1   2
BRANCH   1  19
ATOM     19  C   UNL     1      47.316   4.114  15.745  0.00  0.00    +0.000 C 
BRANCH  19  20
ATOM     20  N   UNL     1      47.957   2.807  15.437  0.00  0.00    +0.000 NA
ATOM     21  H   UNL     1      48.332   2.864  14.488  0.00  0.00    +0.000 HD
ATOM     22  H   UNL     1      47.200   2.119  15.358  0.00  0.00    +0.000 HD
ENDBRANCH  19  20
BRANCH  19  23
ATOM     23  C   UNL     1      47.899   4.698  17.050  0.00  0.00    +0.000 C 
ATOM     24  O   UNL     1      47.132   5.032  17.959  0.00  0.00    +0.000 OA
BRANCH  23  25
ATOM     25  C   UNL     1      49.356   4.804  17.254  0.00  0.00    +0.000 A 
ATOM     26  C   UNL     1      50.004   3.877  18.061  0.00  0.00    +0.000 A 
ATOM     27  S   UNL     1      51.699   4.067  18.091  0.00  0.00    +0.000 S 
ATOM     28  C   UNL     1      51.618   5.425  17.071  0.00  0.00    +0.000 A 
ATOM     29  N   UNL     1      52.749   6.058  16.658  0.00  0.00    +0.000 NA
ATOM     30  C   UNL     1      52.541   7.077  15.892  0.00  0.00    +0.000 A 
ATOM     31  N   UNL     1      51.303   7.538  15.528  0.00  0.00    +0.000 N 
ATOM     32  C   UNL     1      50.142   7.026  16.055  0.00  0.00    +0.000 A 
ATOM     33  O   UNL     1      49.086   7.642  15.973  0.00  0.00    +0.000 OA
ATOM     34  C   UNL     1      50.312   5.773  16.773  0.00  0.00    +0.000 A 
ATOM     35  H   UNL     1      51.210   8.402  15.015  0.00  0.00    +0.000 HD
ENDBRANCH  23  25
ENDBRANCH  19  23
ENDBRANCH   1  19
TORSDOF 9
ENDMDL
MODEL 6
REMARK VINA RESULT:    -7.165      3.486      9.849
REMARK INTER + INTRA:         -11.462
REMARK INTER:                  -9.873
REMARK INTRA:                  -1.589
REMARK UNBOUND:                -0.947
REMARK  Name = 
REMARK  9 active torsions:
REMARK  status: ('A' for Active; 'I' for Inactive)
REMARK    1  A    between atoms: N_1  and  C_2
REMARK    2  A    between atoms: C_2  and  C_3
REMARK    3  A    between atoms: C_2  and  C_19
REMARK    4  A    between atoms: C_3  and  C_4
REMARK    5  A    between atoms: C_7  and  C_8
REMARK    6  A    between atoms: C_8  and  N_9
REMARK    7  A    between atoms: N_9  and  C_10
REMARK    8  A    between atoms: C_13  and  O_14
REMARK    9  A    between atoms: C_19  and  C_21
REMARK                            x       y       z     vdW  Elec       q    Type
REMARK                         _______ _______ _______ _____ _____    ______ ____
ROOT
ATOM      1  C   UNL     1      46.740   6.593  12.766  0.00  0.00    +0.000 C 
ENDROOT
BRANCH   1   2
ATOM      2  C   UNL     1      47.335   5.901  13.971  0.00  0.00    +0.000 A 
ATOM      3  C   UNL     1      48.249   6.549  14.809  0.00  0.00    +0.000 A 
ATOM      4  C   UNL     1      48.652   5.961  16.011  0.00  0.00    +0.000 A 
ATOM      5  C   UNL     1      48.140   4.718  16.416  0.00  0.00    +0.000 A 
ATOM      6  C   UNL     1      47.250   4.053  15.561  0.00  0.00    +0.000 A 
ATOM      7  C   UNL     1      46.854   4.638  14.355  0.00  0.00    +0.000 A 
BRANCH   5   8
ATOM      8  C   UNL     1      48.546   4.121  17.740  0.00  0.00    +0.000 C 
BRANCH   8   9
ATOM      9  N   UNL     1      47.577   4.462  18.784  0.00  0.00    +0.000 NA
ATOM     10  H   UNL     1      47.338   3.608  19.289  0.00  0.00    +0.000 HD
BRANCH   9  11
ATOM     11  C   UNL     1      48.039   5.488  19.724  0.00  0.00    +0.000 C 
ATOM     12  C   UNL     1      49.563   5.686  19.649  0.00  0.00    +0.000 C 
ATOM     13  C   UNL     1      50.042   6.862  20.498  0.00  0.00    +0.000 C 
ATOM     14  C   UNL     1      49.306   8.157  20.172  0.00  0.00    +0.000 C 
ATOM     15  C   UNL     1      47.791   7.975  20.239  0.00  0.00    +0.000 C 
ATOM     16  C   UNL     1      47.304   6.800  19.387  0.00  0.00    +0.000 C 
BRANCH  14  17
ATOM     17  O   UNL     1      49.689   8.633  18.885  0.00  0.00    +0.000 OA
ATOM     18  H   UNL     1      48.918   9.041  18.455  0.00  0.00    +0.000 HD
ENDBRANCH  14  17
ENDBRANCH   9  11
ENDBRANCH   8   9
ENDBRANCH   5   8
ENDBRANCH   1   2
BRANCH   1  19
ATOM     19  C   UNL     1      45.330   7.203  12.834  0.00  0.00    +0.000 C 
BRANCH  19  20
ATOM     20  N   UNL     1      45.313   8.691  12.861  0.00  0.00    +0.000 NA
ATOM     21  H   UNL     1      45.094   9.013  11.916  0.00  0.00    +0.000 HD
ATOM     22  H   UNL     1      46.283   8.994  13.001  0.00  0.00    +0.000 HD
ENDBRANCH  19  20
BRANCH  19  23
ATOM     23  C   UNL     1      44.377   6.680  11.738  0.00  0.00    +0.000 C 
ATOM     24  O   UNL     1      43.754   7.488  11.041  0.00  0.00    +0.000 OA
BRANCH  23  25
ATOM     25  C   UNL     1      44.247   5.236  11.466  0.00  0.00    +0.000 A 
ATOM     26  C   UNL     1      43.653   4.411  12.413  0.00  0.00    +0.000 A 
ATOM     27  S   UNL     1      43.469   2.798  11.892  0.00  0.00    +0.000 S 
ATOM     28  C   UNL     1      44.224   3.136  10.406  0.00  0.00    +0.000 A 
ATOM     29  N   UNL     1      44.353   2.174   9.453  0.00  0.00    +0.000 NA
ATOM     30  C   UNL     1      44.951   2.566   8.377  0.00  0.00    +0.000 A 
ATOM     31  N   UNL     1      45.458   3.824   8.182  0.00  0.00    +0.000 N 
ATOM     32  C   UNL     1      45.492   4.767   9.181  0.00  0.00    +0.000 A 
ATOM     33  O   UNL     1      46.220   5.749   9.097  0.00  0.00    +0.000 OA
ATOM     34  C   UNL     1      44.677   4.442  10.339  0.00  0.00    +0.000 A 
ATOM     35  H   UNL     1      46.008   4.031   7.362  0.00  0.00    +0.000 HD
ENDBRANCH  23  25
ENDBRANCH  19  23
ENDBRANCH   1  19
TORSDOF 9
ENDMDL
MODEL 7
REMARK VINA RESULT:    -7.126      2.821      3.951
REMARK INTER + INTRA:         -11.406
REMARK INTER:                 -10.374
REMARK INTRA:                  -1.032
REMARK UNBOUND:                -0.947
REMARK  Name = 
REMARK  9 active torsions:
REMARK  status: ('A' for Active; 'I' for Inactive)
REMARK    1  A    between atoms: N_1  and  C_2
REMARK    2  A    between atoms: C_2  and  C_3
REMARK    3  A    between atoms: C_2  and  C_19
REMARK    4  A    between atoms: C_3  and  C_4
REMARK    5  A    between atoms: C_7  and  C_8
REMARK    6  A    between atoms: C_8  and  N_9
REMARK    7  A    between atoms: N_9  and  C_10
REMARK    8  A    between atoms: C_13  and  O_14
REMARK    9  A    between atoms: C_19  and  C_21
REMARK                            x       y       z     vdW  Elec       q    Type
REMARK                         _______ _______ _______ _____ _____    ______ ____
ROOT
ATOM      1  C   UNL     1      49.707   6.727  16.114  0.00  0.00    +0.000 C 
ENDROOT
BRANCH   1   2
ATOM      2  C   UNL     1      48.746   6.924  14.965  0.00  0.00    +0.000 A 
ATOM      3  C   UNL     1      48.080   5.844  14.375  0.00  0.00    +0.000 A 
ATOM      4  C   UNL     1      47.067   6.060  13.437  0.00  0.00    +0.000 A 
ATOM      5  C   UNL     1      46.681   7.360  13.075  0.00  0.00    +0.000 A 
ATOM      6  C   UNL     1      47.371   8.441  13.640  0.00  0.00    +0.000 A 
ATOM      7  C   UNL     1      48.389   8.225  14.572  0.00  0.00    +0.000 A 
BRANCH   5   8
ATOM      8  C   UNL     1      45.551   7.576  12.099  0.00  0.00    +0.000 C 
BRANCH   8   9
ATOM      9  N   UNL     1      44.328   6.920  12.566  0.00  0.00    +0.000 NA
ATOM     10  H   UNL     1      43.613   7.636  12.701  0.00  0.00    +0.000 HD
BRANCH   9  11
ATOM     11  C   UNL     1      43.826   5.872  11.672  0.00  0.00    +0.000 C 
ATOM     12  C   UNL     1      44.836   5.540  10.559  0.00  0.00    +0.000 C 
ATOM     13  C   UNL     1      44.404   4.340   9.719  0.00  0.00    +0.000 C 
ATOM     14  C   UNL     1      44.102   3.110  10.568  0.00  0.00    +0.000 C 
ATOM     15  C   UNL     1      43.104   3.425  11.679  0.00  0.00    +0.000 C 
ATOM     16  C   UNL     1      43.532   4.624  12.528  0.00  0.00    +0.000 C 
BRANCH  14  17
ATOM     17  O   UNL     1      45.304   2.582  11.120  0.00  0.00    +0.000 OA
ATOM     18  H   UNL     1      46.065   2.966  10.651  0.00  0.00    +0.000 HD
ENDBRANCH  14  17
ENDBRANCH   9  11
ENDBRANCH   8   9
ENDBRANCH   5   8
ENDBRANCH   1   2
BRANCH   1  19
ATOM     19  C   UNL     1      49.191   6.308  17.500  0.00  0.00    +0.000 C 
BRANCH  19  20
ATOM     20  N   UNL     1      47.779   6.698  17.765  0.00  0.00    +0.000 NA
ATOM     21  H   UNL     1      47.621   7.604  17.320  0.00  0.00    +0.000 HD
ATOM     22  H   UNL     1      47.715   6.906  18.767  0.00  0.00    +0.000 HD
ENDBRANCH  19  20
BRANCH  19  23
ATOM     23  C   UNL     1      49.395   4.809  17.808  0.00  0.00    +0.000 C 
ATOM     24  O   UNL     1      48.431   4.040  17.739  0.00  0.00    +0.000 OA
BRANCH  23  25
ATOM     25  C   UNL     1      50.732   4.270  18.120  0.00  0.00    +0.000 A 
ATOM     26  C   UNL     1      51.658   5.071  18.776  0.00  0.00    +0.000 A 
ATOM     27  S   UNL     1      53.105   4.259  19.170  0.00  0.00    +0.000 S 
ATOM     28  C   UNL     1      52.563   2.826  18.431  0.00  0.00    +0.000 A 
ATOM     29  N   UNL     1      53.324   1.698  18.451  0.00  0.00    +0.000 NA
ATOM     30  C   UNL     1      52.793   0.686  17.848  0.00  0.00    +0.000 A 
ATOM     31  N   UNL     1      51.586   0.711  17.200  0.00  0.00    +0.000 N 
ATOM     32  C   UNL     1      50.871   1.870  17.019  0.00  0.00    +0.000 A 
ATOM     33  O   UNL     1      49.979   1.936  16.182  0.00  0.00    +0.000 OA
ATOM     34  C   UNL     1      51.328   2.988  17.827  0.00  0.00    +0.000 A 
ATOM     35  H   UNL     1      51.281  -0.084  16.658  0.00  0.00    +0.000 HD
ENDBRANCH  23  25
ENDBRANCH  19  23
ENDBRANCH   1  19
TORSDOF 9
ENDMDL
MODEL 8
REMARK VINA RESULT:    -7.086      3.038      4.148
REMARK INTER + INTRA:         -11.346
REMARK INTER:                  -9.801
REMARK INTRA:                  -1.546
REMARK UNBOUND:                -0.947
REMARK  Name = 
REMARK  9 active torsions:
REMARK  status: ('A' for Active; 'I' for Inactive)
REMARK    1  A    between atoms: N_1  and  C_2
REMARK    2  A    between atoms: C_2  and  C_3
REMARK    3  A    between atoms: C_2  and  C_19
REMARK    4  A    between atoms: C_3  and  C_4
REMARK    5  A    between atoms: C_7  and  C_8
REMARK    6  A    between atoms: C_8  and  N_9
REMARK    7  A    between atoms: N_9  and  C_10
REMARK    8  A    between atoms: C_13  and  O_14
REMARK    9  A    between atoms: C_19  and  C_21
REMARK                            x       y       z     vdW  Elec       q    Type
REMARK                         _______ _______ _______ _____ _____    ______ ____
ROOT
ATOM      1  C   UNL     1      49.647   7.107  15.805  0.00  0.00    +0.000 C 
ENDROOT
BRANCH   1   2
ATOM      2  C   UNL     1      48.711   7.051  14.619  0.00  0.00    +0.000 A 
ATOM      3  C   UNL     1      48.733   8.034  13.624  0.00  0.00    +0.000 A 
ATOM      4  C   UNL     1      47.989   7.875  12.451  0.00  0.00    +0.000 A 
ATOM      5  C   UNL     1      47.217   6.723  12.236  0.00  0.00    +0.000 A 
ATOM      6  C   UNL     1      47.168   5.754  13.247  0.00  0.00    +0.000 A 
ATOM      7  C   UNL     1      47.905   5.917  14.422  0.00  0.00    +0.000 A 
BRANCH   5   8
ATOM      8  C   UNL     1      46.461   6.544  10.942  0.00  0.00    +0.000 C 
BRANCH   8   9
ATOM      9  N   UNL     1      45.052   6.909  11.108  0.00  0.00    +0.000 NA
ATOM     10  H   UNL     1      44.792   7.532  10.343  0.00  0.00    +0.000 HD
BRANCH   9  11
ATOM     11  C   UNL     1      44.135   5.766  11.158  0.00  0.00    +0.000 C 
ATOM     12  C   UNL     1      44.690   4.555  10.387  0.00  0.00    +0.000 C 
ATOM     13  C   UNL     1      43.830   3.306  10.565  0.00  0.00    +0.000 C 
ATOM     14  C   UNL     1      43.597   2.959  12.032  0.00  0.00    +0.000 C 
ATOM     15  C   UNL     1      43.050   4.153  12.811  0.00  0.00    +0.000 C 
ATOM     16  C   UNL     1      43.910   5.408  12.640  0.00  0.00    +0.000 C 
BRANCH  14  17
ATOM     17  O   UNL     1      44.805   2.494  12.627  0.00  0.00    +0.000 OA
ATOM     18  H   UNL     1      45.451   2.301  11.927  0.00  0.00    +0.000 HD
ENDBRANCH  14  17
ENDBRANCH   9  11
ENDBRANCH   8   9
ENDBRANCH   5   8
ENDBRANCH   1   2
BRANCH   1  19
ATOM     19  C   UNL     1      49.173   7.691  17.146  0.00  0.00    +0.000 C 
BRANCH  19  20
ATOM     20  N   UNL     1      47.916   8.481  17.054  0.00  0.00    +0.000 NA
ATOM     21  H   UNL     1      47.924   8.969  16.156  0.00  0.00    +0.000 HD
ATOM     22  H   UNL     1      47.993   9.238  17.742  0.00  0.00    +0.000 HD
ENDBRANCH  19  20
BRANCH  19  23
ATOM     23  C   UNL     1      49.059   6.639  18.271  0.00  0.00    +0.000 C 
ATOM     24  O   UNL     1      49.126   7.004  19.449  0.00  0.00    +0.000 OA
BRANCH  23  25
ATOM     25  C   UNL     1      48.809   5.218  17.964  0.00  0.00    +0.000 A 
ATOM     26  C   UNL     1      47.503   4.769  17.815  0.00  0.00    +0.000 A 
ATOM     27  S   UNL     1      47.393   3.134  17.342  0.00  0.00    +0.000 S 
ATOM     28  C   UNL     1      49.085   2.958  17.371  0.00  0.00    +0.000 A 
ATOM     29  N   UNL     1      49.672   1.783  17.016  0.00  0.00    +0.000 NA
ATOM     30  C   UNL     1      50.962   1.788  17.090  0.00  0.00    +0.000 A 
ATOM     31  N   UNL     1      51.714   2.851  17.517  0.00  0.00    +0.000 N 
ATOM     32  C   UNL     1      51.150   3.991  18.037  0.00  0.00    +0.000 A 
ATOM     33  O   UNL     1      51.815   4.779  18.698  0.00  0.00    +0.000 OA
ATOM     34  C   UNL     1      49.719   4.108  17.809  0.00  0.00    +0.000 A 
ATOM     35  H   UNL     1      52.709   2.750  17.653  0.00  0.00    +0.000 HD
ENDBRANCH  23  25
ENDBRANCH  19  23
ENDBRANCH   1  19
TORSDOF 9
ENDMDL
MODEL 9
REMARK VINA RESULT:    -6.925      3.194      4.711
REMARK INTER + INTRA:         -11.111
REMARK INTER:                  -9.589
REMARK INTRA:                  -1.522
REMARK UNBOUND:                -0.947
REMARK  Name = 
REMARK  9 active torsions:
REMARK  status: ('A' for Active; 'I' for Inactive)
REMARK    1  A    between atoms: N_1  and  C_2
REMARK    2  A    between atoms: C_2  and  C_3
REMARK    3  A    between atoms: C_2  and  C_19
REMARK    4  A    between atoms: C_3  and  C_4
REMARK    5  A    between atoms: C_7  and  C_8
REMARK    6  A    between atoms: C_8  and  N_9
REMARK    7  A    between atoms: N_9  and  C_10
REMARK    8  A    between atoms: C_13  and  O_14
REMARK    9  A    between atoms: C_19  and  C_21
REMARK                            x       y       z     vdW  Elec       q    Type
REMARK                         _______ _______ _______ _____ _____    ______ ____
ROOT
ATOM      1  C   UNL     1      49.250   9.585  14.922  0.00  0.00    +0.000 C 
ENDROOT
BRANCH   1   2
ATOM      2  C   UNL     1      48.475   8.955  13.788  0.00  0.00    +0.000 A 
ATOM      3  C   UNL     1      49.122   8.295  12.738  0.00  0.00    +0.000 A 
ATOM      4  C   UNL     1      48.390   7.569  11.795  0.00  0.00    +0.000 A 
ATOM      5  C   UNL     1      46.993   7.468  11.886  0.00  0.00    +0.000 A 
ATOM      6  C   UNL     1      46.341   8.156  12.918  0.00  0.00    +0.000 A 
ATOM      7  C   UNL     1      47.073   8.889  13.856  0.00  0.00    +0.000 A 
BRANCH   5   8
ATOM      8  C   UNL     1      46.223   6.637  10.890  0.00  0.00    +0.000 C 
BRANCH   8   9
ATOM      9  N   UNL     1      44.788   6.917  10.977  0.00  0.00    +0.000 NA
ATOM     10  H   UNL     1      44.499   7.376  10.113  0.00  0.00    +0.000 HD
BRANCH   9  11
ATOM     11  C   UNL     1      43.957   5.733  11.219  0.00  0.00    +0.000 C 
ATOM     12  C   UNL     1      44.430   4.525  10.393  0.00  0.00    +0.000 C 
ATOM     13  C   UNL     1      43.683   3.243  10.753  0.00  0.00    +0.000 C 
ATOM     14  C   UNL     1      43.732   2.937  12.246  0.00  0.00    +0.000 C 
ATOM     15  C   UNL     1      43.268   4.129  13.080  0.00  0.00    +0.000 C 
ATOM     16  C   UNL     1      44.016   5.417  12.727  0.00  0.00    +0.000 C 
BRANCH  14  17
ATOM     17  O   UNL     1      45.049   2.550  12.629  0.00  0.00    +0.000 OA
ATOM     18  H   UNL     1      45.452   2.038  11.907  0.00  0.00    +0.000 HD
ENDBRANCH  14  17
ENDBRANCH   9  11
ENDBRANCH   8   9
ENDBRANCH   5   8
ENDBRANCH   1   2
BRANCH   1  19
ATOM     19  C   UNL     1      49.461   8.824  16.241  0.00  0.00    +0.000 C 
BRANCH  19  20
ATOM     20  N   UNL     1      48.206   8.553  16.993  0.00  0.00    +0.000 NA
ATOM     21  H   UNL     1      48.147   9.236  17.750  0.00  0.00    +0.000 HD
ATOM     22  H   UNL     1      48.342   7.662  17.482  0.00  0.00    +0.000 HD
ENDBRANCH  19  20
BRANCH  19  23
ATOM     23  C   UNL     1      50.275   7.522  16.079  0.00  0.00    +0.000 C 
ATOM     24  O   UNL     1      51.207   7.488  15.268  0.00  0.00    +0.000 OA
BRANCH  23  25
ATOM     25  C   UNL     1      50.001   6.341  16.919  0.00  0.00    +0.000 A 
ATOM     26  C   UNL     1      50.843   6.047  17.984  0.00  0.00    +0.000 A 
ATOM     27  S   UNL     1      50.317   4.727  18.926  0.00  0.00    +0.000 S 
ATOM     28  C   UNL     1      48.975   4.471  17.912  0.00  0.00    +0.000 A 
ATOM     29  N   UNL     1      48.068   3.495  18.185  0.00  0.00    +0.000 NA
ATOM     30  C   UNL     1      47.103   3.408  17.330  0.00  0.00    +0.000 A 
ATOM     31  N   UNL     1      46.984   4.188  16.210  0.00  0.00    +0.000 N 
ATOM     32  C   UNL     1      47.963   5.068  15.816  0.00  0.00    +0.000 A 
ATOM     33  O   UNL     1      47.992   5.510  14.674  0.00  0.00    +0.000 OA
ATOM     34  C   UNL     1      48.972   5.333  16.829  0.00  0.00    +0.000 A 
ATOM     35  H   UNL     1      46.265   3.995  15.528  0.00  0.00    +0.000 HD
ENDBRANCH  23  25
ENDBRANCH  19  23
ENDBRANCH   1  19
TORSDOF 9
ENDMDL
