MODEL 1
REMARK VINA RESULT:    -7.535      0.000      0.000
REMARK INTER + INTRA:          -9.828
REMARK INTER:                  -9.297
REMARK INTRA:                  -0.531
REMARK UNBOUND:                -0.531
REMARK  Name = 
REMARK  6 active torsions:
REMARK  status: ('A' for Active; 'I' for Inactive)
REMARK    1  A    between atoms: C_1  and  C_2
REMARK    2  A    between atoms: C_2  and  C_3
REMARK    3  A    between atoms: C_6  and  C_7
REMARK    4  A    between atoms: C_7  and  N_8
REMARK    5  A    between atoms: N_8  and  C_9
REMARK    6  A    between atoms: C_12  and  C_13
REMARK                            x       y       z     vdW  Elec       q    Type
REMARK                         _______ _______ _______ _____ _____    ______ ____
ROOT
ATOM      1  N   UNL     1      44.015   3.328  10.385  0.00  0.00    +0.000 N 
ATOM      2  H   UNL     1      43.455   4.153  10.165  0.00  0.00    +0.000 HD
ENDROOT
BRANCH   1   3
ATOM      3  C   UNL     1      44.865   3.052   9.303  0.00  0.00    +0.000 A 
ATOM      4  C   UNL     1      45.328   4.117   8.531  0.00  0.00    +0.000 A 
ATOM      5  C   UNL     1      46.198   3.889   7.466  0.00  0.00    +0.000 A 
ATOM      6  C   UNL     1      46.617   2.586   7.232  0.00  0.00    +0.000 A 
ATOM      7  N   UNL     1      46.227   1.517   7.978  0.00  0.00    +0.000 NA
ATOM      8  C   UNL     1      45.372   1.785   8.990  0.00  0.00    +0.000 A 
BRANCH   6   9
ATOM      9  C   UNL     1      47.580   2.301   6.123  0.00  0.00    +0.000 C 
ATOM     10  N   UNL     1      47.464   3.107   5.022  0.00  0.00    +0.000 N 
ATOM     11  O   UNL     1      48.410   1.405   6.180  0.00  0.00    +0.000 OA
ATOM     12  H   UNL     1      46.747   3.826   5.005  0.00  0.00    +0.000 HD
ATOM     13  H   UNL     1      48.053   2.943   4.221  0.00  0.00    +0.000 HD
ENDBRANCH   6   9
ENDBRANCH   1   3
BRANCH   1  14
ATOM     14  C   UNL     1      44.660   3.459  11.693  0.00  0.00    +0.000 C 
BRANCH  14  20
ATOM     15  C   UNL     1      45.864   8.040  12.977  0.00  0.00    +0.000 C 
ATOM     16  C   UNL     1      46.356   6.796  12.211  0.00  0.00    +0.000 C 
ATOM     17  C   UNL     1      47.756   7.105  11.650  0.00  0.00    +0.000 C 
ATOM     18  C   UNL     1      45.402   6.477  11.037  0.00  0.00    +0.000 C 
ATOM     19  C   UNL     1      44.043   5.946  11.495  0.00  0.00    +0.000 C 
ATOM     20  C   UNL     1      44.166   4.725  12.416  0.00  0.00    +0.000 C 
ATOM     21  C   UNL     1      45.086   5.050  13.605  0.00  0.00    +0.000 C 
ATOM     22  C   UNL     1      46.453   5.584  13.167  0.00  0.00    +0.000 C 
ENDBRANCH  14  20
ENDBRANCH   1  14
TORSDOF 4
ENDMDL
MODEL 2
REMARK VINA RESULT:    -6.983      1.587      2.040
REMARK INTER + INTRA:          -9.146
REMARK INTER:                  -8.674
REMARK INTRA:                  -0.472
REMARK UNBOUND:                -0.531
REMARK  Name = 
REMARK  6 active torsions:
REMARK  status: ('A' for Active; 'I' for Inactive)
REMARK    1  A    between atoms: C_1  and  C_2
REMARK    2  A    between atoms: C_2  and  C_3
REMARK    3  A    between atoms: C_6  and  C_7
REMARK    4  A    between atoms: C_7  and  N_8
REMARK    5  A    between atoms: N_8  and  C_9
REMARK    6  A    between atoms: C_12  and  C_13
REMARK                            x       y       z     vdW  Elec       q    Type
REMARK                         _______ _______ _______ _____ _____    ______ ____
ROOT
ATOM      1  N   UNL     1      44.262   5.005  10.123  0.00  0.00    +0.000 N 
ATOM      2  H   UNL     1      43.410   5.272   9.627  0.00  0.00    +0.000 HD
ENDROOT
BRANCH   1   3
ATOM      3  C   UNL     1      44.920   4.003   9.394  0.00  0.00    +0.000 A 
ATOM      4  C   UNL     1      45.758   4.383   8.345  0.00  0.00    +0.000 A 
ATOM      5  C   UNL     1      46.452   3.421   7.615  0.00  0.00    +0.000 A 
ATOM      6  C   UNL     1      46.319   2.091   7.992  0.00  0.00    +0.000 A 
ATOM      7  N   UNL     1      45.546   1.670   9.030  0.00  0.00    +0.000 NA
ATOM      8  C   UNL     1      44.880   2.637   9.699  0.00  0.00    +0.000 A 
BRANCH   6   9
ATOM      9  C   UNL     1      47.077   1.029   7.260  0.00  0.00    +0.000 C 
ATOM     10  N   UNL     1      46.769  -0.260   7.610  0.00  0.00    +0.000 N 
ATOM     11  O   UNL     1      47.924   1.282   6.415  0.00  0.00    +0.000 OA
ATOM     12  H   UNL     1      46.075  -0.427   8.331  0.00  0.00    +0.000 HD
ATOM     13  H   UNL     1      47.272  -1.023   7.187  0.00  0.00    +0.000 HD
ENDBRANCH   6   9
ENDBRANCH   1   3
BRANCH   1  14
ATOM     14  C   UNL     1      45.064   6.180  10.470  0.00  0.00    +0.000 C 
BRANCH  14  20
ATOM     15  C   UNL     1      47.632   8.411  14.007  0.00  0.00    +0.000 C 
ATOM     16  C   UNL     1      47.367   8.393  12.488  0.00  0.00    +0.000 C 
ATOM     17  C   UNL     1      48.250   9.473  11.838  0.00  0.00    +0.000 C 
ATOM     18  C   UNL     1      45.883   8.715  12.199  0.00  0.00    +0.000 C 
ATOM     19  C   UNL     1      44.933   7.591  12.614  0.00  0.00    +0.000 C 
ATOM     20  C   UNL     1      45.307   6.240  11.989  0.00  0.00    +0.000 C 
ATOM     21  C   UNL     1      46.774   5.900  12.305  0.00  0.00    +0.000 C 
ATOM     22  C   UNL     1      47.741   7.014  11.897  0.00  0.00    +0.000 C 
ENDBRANCH  14  20
ENDBRANCH   1  14
TORSDOF 4
ENDMDL
MODEL 3
REMARK VINA RESULT:    -5.802      4.161      5.674
REMARK INTER + INTRA:          -7.689
REMARK INTER:                  -7.350
REMARK INTRA:                  -0.339
REMARK UNBOUND:                -0.531
REMARK  Name = 
REMARK  6 active torsions:
REMARK  status: ('A' for Active; 'I' for Inactive)
REMARK    1  A    between atoms: C_1  and  C_2
REMARK    2  A    between atoms: C_2  and  C_3
REMARK    3  A    between atoms: C_6  and  C_7
REMARK    4  A    between atoms: C_7  and  N_8
REMARK    5  A    between atoms: N_8  and  C_9
REMARK    6  A    between atoms: C_12  and  C_13
REMARK                            x       y       z     vdW  Elec       q    Type
REMARK                         _______ _______ _______ _____ _____    ______ ____
ROOT
ATOM      1  N   UNL     1      46.323   4.759  14.915  0.00  0.00    +0.000 N 
ATOM      2  H   UNL     1      46.571   5.701  15.221  0.00  0.00    +0.000 HD
ENDROOT
BRANCH   1   3
ATOM      3  C   UNL     1      46.017   4.789  13.546  0.00  0.00    +0.000 A 
ATOM      4  C   UNL     1      46.406   5.902  12.800  0.00  0.00    +0.000 A 
ATOM      5  C   UNL     1      46.147   5.958  11.432  0.00  0.00    +0.000 A 
ATOM      6  C   UNL     1      45.536   4.863  10.836  0.00  0.00    +0.000 A 
ATOM      7  N   UNL     1      45.171   3.738  11.509  0.00  0.00    +0.000 NA
ATOM      8  C   UNL     1      45.429   3.735  12.836  0.00  0.00    +0.000 A 
BRANCH   6   9
ATOM      9  C   UNL     1      45.274   4.865   9.363  0.00  0.00    +0.000 C 
ATOM     10  N   UNL     1      44.039   4.407   8.986  0.00  0.00    +0.000 N 
ATOM     11  O   UNL     1      46.102   5.235   8.543  0.00  0.00    +0.000 OA
ATOM     12  H   UNL     1      43.388   4.089   9.696  0.00  0.00    +0.000 HD
ATOM     13  H   UNL     1      43.812   4.342   8.006  0.00  0.00    +0.000 HD
ENDBRANCH   6   9
ENDBRANCH   1   3
BRANCH   1  14
ATOM     14  C   UNL     1      47.337   3.786  15.325  0.00  0.00    +0.000 C 
BRANCH  14  20
ATOM     15  C   UNL     1      50.049   4.554  19.343  0.00  0.00    +0.000 C 
ATOM     16  C   UNL     1      50.017   4.740  17.812  0.00  0.00    +0.000 C 
ATOM     17  C   UNL     1      51.338   5.405  17.385  0.00  0.00    +0.000 C 
ATOM     18  C   UNL     1      48.839   5.655  17.408  0.00  0.00    +0.000 C 
ATOM     19  C   UNL     1      47.473   4.992  17.590  0.00  0.00    +0.000 C 
ATOM     20  C   UNL     1      47.367   3.648  16.858  0.00  0.00    +0.000 C 
ATOM     21  C   UNL     1      48.518   2.721  17.285  0.00  0.00    +0.000 C 
ATOM     22  C   UNL     1      49.895   3.368  17.110  0.00  0.00    +0.000 C 
ENDBRANCH  14  20
ENDBRANCH   1  14
TORSDOF 4
ENDMDL
MODEL 4
REMARK VINA RESULT:    -5.717      3.243      5.029
REMARK INTER + INTRA:          -7.584
REMARK INTER:                  -6.980
REMARK INTRA:                  -0.604
REMARK UNBOUND:                -0.531
REMARK  Name = 
REMARK  6 active torsions:
REMARK  status: ('A' for Active; 'I' for Inactive)
REMARK    1  A    between atoms: C_1  and  C_2
REMARK    2  A    between atoms: C_2  and  C_3
REMARK    3  A    between atoms: C_6  and  C_7
REMARK    4  A    between atoms: C_7  and  N_8
REMARK    5  A    between atoms: N_8  and  C_9
REMARK    6  A    between atoms: C_12  and  C_13
REMARK                            x       y       z     vdW  Elec       q    Type
REMARK                         _______ _______ _______ _____ _____    ______ ____
ROOT
ATOM      1  N   UNL     1      44.906   7.926  12.668  0.00  0.00    +0.000 N 
ATOM      2  H   UNL     1      44.123   8.548  12.464  0.00  0.00    +0.000 HD
ENDROOT
BRANCH   1   3
ATOM      3  C   UNL     1      44.588   6.632  12.225  0.00  0.00    +0.000 A 
ATOM      4  C   UNL     1      45.254   6.128  11.108  0.00  0.00    +0.000 A 
ATOM      5  C   UNL     1      44.989   4.837  10.655  0.00  0.00    +0.000 A 
ATOM      6  C   UNL     1      44.084   4.064  11.371  0.00  0.00    +0.000 A 
ATOM      7  N   UNL     1      43.437   4.494  12.489  0.00  0.00    +0.000 NA
ATOM      8  C   UNL     1      43.715   5.757  12.882  0.00  0.00    +0.000 A 
BRANCH   6   9
ATOM      9  C   UNL     1      43.799   2.660  10.941  0.00  0.00    +0.000 C 
ATOM     10  N   UNL     1      44.529   2.214   9.871  0.00  0.00    +0.000 N 
ATOM     11  O   UNL     1      42.966   1.955  11.491  0.00  0.00    +0.000 OA
ATOM     12  H   UNL     1      45.196   2.838   9.429  0.00  0.00    +0.000 HD
ATOM     13  H   UNL     1      44.357   1.291   9.503  0.00  0.00    +0.000 HD
ENDBRANCH   6   9
ENDBRANCH   1   3
BRANCH   1  14
ATOM     14  C   UNL     1      46.167   8.482  12.176  0.00  0.00    +0.000 C 
BRANCH  14  20
ATOM     15  C   UNL     1      50.887   8.333  13.512  0.00  0.00    +0.000 C 
ATOM     16  C   UNL     1      49.926   8.129  12.324  0.00  0.00    +0.000 C 
ATOM     17  C   UNL     1      50.763   7.710  11.101  0.00  0.00    +0.000 C 
ATOM     18  C   UNL     1      49.188   9.448  11.999  0.00  0.00    +0.000 C 
ATOM     19  C   UNL     1      48.161   9.839  13.063  0.00  0.00    +0.000 C 
ATOM     20  C   UNL     1      47.145   8.724  13.341  0.00  0.00    +0.000 C 
ATOM     21  C   UNL     1      47.875   7.418  13.699  0.00  0.00    +0.000 C 
ATOM     22  C   UNL     1      48.908   7.010  12.645  0.00  0.00    +0.000 C 
ENDBRANCH  14  20
ENDBRANCH   1  14
TORSDOF 4
ENDMDL
MODEL 5
REMARK VINA RESULT:    -5.710      2.362      4.163
REMARK INTER + INTRA:          -7.575
REMARK INTER:                  -6.902
REMARK INTRA:                  -0.674
REMARK UNBOUND:                -0.531
REMARK  Name = 
REMARK  6 active torsions:
REMARK  status: ('A' for Active; 'I' for Inactive)
REMARK    1  A    between atoms: C_1  and  C_2
REMARK    2  A    between atoms: C_2  and  C_3
REMARK    3  A    between atoms: C_6  and  C_7
REMARK    4  A    between atoms: C_7  and  N_8
REMARK    5  A    between atoms: N_8  and  C_9
REMARK    6  A    between atoms: C_12  and  C_13
REMARK                            x       y       z     vdW  Elec       q    Type
REMARK                         _______ _______ _______ _____ _____    ______ ____
ROOT
ATOM      1  N   UNL     1      44.861   7.215  12.618  0.00  0.00    +0.000 N 
ATOM      2  H   UNL     1      43.926   7.590  12.792  0.00  0.00    +0.000 HD
ENDROOT
BRANCH   1   3
ATOM      3  C   UNL     1      44.769   6.185  11.669  0.00  0.00    +0.000 A 
ATOM      4  C   UNL     1      45.690   6.158  10.622  0.00  0.00    +0.000 A 
ATOM      5  C   UNL     1      45.651   5.136   9.677  0.00  0.00    +0.000 A 
ATOM      6  C   UNL     1      44.705   4.133   9.835  0.00  0.00    +0.000 A 
ATOM      7  N   UNL     1      43.808   4.090  10.859  0.00  0.00    +0.000 NA
ATOM      8  C   UNL     1      43.874   5.110  11.743  0.00  0.00    +0.000 A 
BRANCH   6   9
ATOM      9  C   UNL     1      44.653   2.996   8.865  0.00  0.00    +0.000 C 
ATOM     10  N   UNL     1      44.512   1.752   9.423  0.00  0.00    +0.000 N 
ATOM     11  O   UNL     1      44.743   3.152   7.656  0.00  0.00    +0.000 OA
ATOM     12  H   UNL     1      44.463   1.663  10.433  0.00  0.00    +0.000 HD
ATOM     13  H   UNL     1      44.513   0.938   8.829  0.00  0.00    +0.000 HD
ENDBRANCH   6   9
ENDBRANCH   1   3
BRANCH   1  14
ATOM     14  C   UNL     1      45.812   8.285  12.315  0.00  0.00    +0.000 C 
BRANCH  14  20
ATOM     15  C   UNL     1      50.542   8.186  13.618  0.00  0.00    +0.000 C 
ATOM     16  C   UNL     1      49.580   8.022  12.425  0.00  0.00    +0.000 C 
ATOM     17  C   UNL     1      50.419   7.691  11.178  0.00  0.00    +0.000 C 
ATOM     18  C   UNL     1      48.806   9.337  12.176  0.00  0.00    +0.000 C 
ATOM     19  C   UNL     1      47.776   9.643  13.265  0.00  0.00    +0.000 C 
ATOM     20  C   UNL     1      46.790   8.488  13.486  0.00  0.00    +0.000 C 
ATOM     21  C   UNL     1      47.556   7.185  13.769  0.00  0.00    +0.000 C 
ATOM     22  C   UNL     1      48.593   6.861  12.690  0.00  0.00    +0.000 C 
ENDBRANCH  14  20
ENDBRANCH   1  14
TORSDOF 4
ENDMDL
MODEL 6
REMARK VINA RESULT:    -5.685      3.327      5.577
REMARK INTER + INTRA:          -7.545
REMARK INTER:                  -6.949
REMARK INTRA:                  -0.596
REMARK UNBOUND:                -0.531
REMARK  Name = 
REMARK  6 active torsions:
REMARK  status: ('A' for Active; 'I' for Inactive)
REMARK    1  A    between atoms: C_1  and  C_2
REMARK    2  A    between atoms: C_2  and  C_3
REMARK    3  A    between atoms: C_6  and  C_7
REMARK    4  A    between atoms: C_7  and  N_8
REMARK    5  A    between atoms: N_8  and  C_9
REMARK    6  A    between atoms: C_12  and  C_13
REMARK                            x       y       z     vdW  Elec       q    Type
REMARK                         _______ _______ _______ _____ _____    ______ ____
ROOT
ATOM      1  N   UNL     1      47.662   6.066  14.567  0.00  0.00    +0.000 N 
ATOM      2  H   UNL     1      47.327   6.009  15.530  0.00  0.00    +0.000 HD
ENDROOT
BRANCH   1   3
ATOM      3  C   UNL     1      46.785   5.353  13.736  0.00  0.00    +0.000 A 
ATOM      4  C   UNL     1      46.048   6.057  12.783  0.00  0.00    +0.000 A 
ATOM      5  C   UNL     1      45.188   5.382  11.919  0.00  0.00    +0.000 A 
ATOM      6  C   UNL     1      45.126   3.998  12.006  0.00  0.00    +0.000 A 
ATOM      7  N   UNL     1      45.851   3.260  12.890  0.00  0.00    +0.000 NA
ATOM      8  C   UNL     1      46.659   3.958  13.718  0.00  0.00    +0.000 A 
BRANCH   6   9
ATOM      9  C   UNL     1      44.245   3.231  11.072  0.00  0.00    +0.000 C 
ATOM     10  N   UNL     1      44.899   2.517  10.102  0.00  0.00    +0.000 N 
ATOM     11  O   UNL     1      43.025   3.243  11.151  0.00  0.00    +0.000 OA
ATOM     12  H   UNL     1      45.912   2.550  10.058  0.00  0.00    +0.000 HD
ATOM     13  H   UNL     1      44.365   2.011   9.413  0.00  0.00    +0.000 HD
ENDBRANCH   6   9
ENDBRANCH   1   3
BRANCH   1  14
ATOM     14  C   UNL     1      47.928   7.453  14.181  0.00  0.00    +0.000 C 
BRANCH  14  20
ATOM     15  C   UNL     1      50.943  10.031  11.292  0.00  0.00    +0.000 C 
ATOM     16  C   UNL     1      49.480   9.906  11.763  0.00  0.00    +0.000 C 
ATOM     17  C   UNL     1      48.655  10.991  11.046  0.00  0.00    +0.000 C 
ATOM     18  C   UNL     1      49.387  10.130  13.289  0.00  0.00    +0.000 C 
ATOM     19  C   UNL     1      49.991   8.984  14.102  0.00  0.00    +0.000 C 
ATOM     20  C   UNL     1      49.392   7.620  13.735  0.00  0.00    +0.000 C 
ATOM     21  C   UNL     1      49.515   7.378  12.220  0.00  0.00    +0.000 C 
ATOM     22  C   UNL     1      48.916   8.516  11.389  0.00  0.00    +0.000 C 
ENDBRANCH  14  20
ENDBRANCH   1  14
TORSDOF 4
ENDMDL
MODEL 7
REMARK VINA RESULT:    -5.140      4.464      6.604
REMARK INTER + INTRA:          -6.872
REMARK INTER:                  -6.414
REMARK INTRA:                  -0.459
REMARK UNBOUND:                -0.531
REMARK  Name = 
REMARK  6 active torsions:
REMARK  status: ('A' for Active; 'I' for Inactive)
REMARK    1  A    between atoms: C_1  and  C_2
REMARK    2  A    between atoms: C_2  and  C_3
REMARK    3  A    between atoms: C_6  and  C_7
REMARK    4  A    between atoms: C_7  and  N_8
REMARK    5  A    between atoms: N_8  and  C_9
REMARK    6  A    between atoms: C_12  and  C_13
REMARK                            x       y       z     vdW  Elec       q    Type
REMARK                         _______ _______ _______ _____ _____    ______ ____
ROOT
ATOM      1  N   UNL     1      48.458   6.624  13.657  0.00  0.00    +0.000 N 
ATOM      2  H   UNL     1      49.181   5.952  13.918  0.00  0.00    +0.000 HD
ENDROOT
BRANCH   1   3
ATOM      3  C   UNL     1      47.297   5.927  13.290  0.00  0.00    +0.000 A 
ATOM      4  C   UNL     1      46.685   6.242  12.077  0.00  0.00    +0.000 A 
ATOM      5  C   UNL     1      45.548   5.552  11.662  0.00  0.00    +0.000 A 
ATOM      6  C   UNL     1      45.077   4.522  12.466  0.00  0.00    +0.000 A 
ATOM      7  N   UNL     1      45.658   4.148  13.638  0.00  0.00    +0.000 NA
ATOM      8  C   UNL     1      46.749   4.856  14.007  0.00  0.00    +0.000 A 
BRANCH   6   9
ATOM      9  C   UNL     1      43.882   3.730  12.039  0.00  0.00    +0.000 C 
ATOM     10  N   UNL     1      43.814   2.455  12.536  0.00  0.00    +0.000 N 
ATOM     11  O   UNL     1      43.025   4.175  11.290  0.00  0.00    +0.000 OA
ATOM     12  H   UNL     1      44.557   2.116  13.139  0.00  0.00    +0.000 HD
ATOM     13  H   UNL     1      43.057   1.852  12.255  0.00  0.00    +0.000 HD
ENDBRANCH   6   9
ENDBRANCH   1   3
BRANCH   1  14
ATOM     14  C   UNL     1      48.292   7.650  14.689  0.00  0.00    +0.000 C 
BRANCH  14  20
ATOM     15  C   UNL     1      49.765   6.981  19.323  0.00  0.00    +0.000 C 
ATOM     16  C   UNL     1      48.542   6.910  18.386  0.00  0.00    +0.000 C 
ATOM     17  C   UNL     1      47.325   6.477  19.224  0.00  0.00    +0.000 C 
ATOM     18  C   UNL     1      48.782   5.866  17.272  0.00  0.00    +0.000 C 
ATOM     19  C   UNL     1      49.831   6.308  16.250  0.00  0.00    +0.000 C 
ATOM     20  C   UNL     1      49.511   7.674  15.629  0.00  0.00    +0.000 C 
ATOM     21  C   UNL     1      49.308   8.723  16.735  0.00  0.00    +0.000 C 
ATOM     22  C   UNL     1      48.260   8.299  17.768  0.00  0.00    +0.000 C 
ENDBRANCH  14  20
ENDBRANCH   1  14
TORSDOF 4
ENDMDL
MODEL 8
REMARK VINA RESULT:    -5.110      3.414      5.366
REMARK INTER + INTRA:          -6.836
REMARK INTER:                  -6.323
REMARK INTRA:                  -0.512
REMARK UNBOUND:                -0.531
REMARK  Name = 
REMARK  6 active torsions:
REMARK  status: ('A' for Active; 'I' for Inactive)
REMARK    1  A    between atoms: C_1  and  C_2
REMARK    2  A    between atoms: C_2  and  C_3
REMARK    3  A    between atoms: C_6  and  C_7
REMARK    4  A    between atoms: C_7  and  N_8
REMARK    5  A    between atoms: N_8  and  C_9
REMARK    6  A    between atoms: C_12  and  C_13
REMARK                            x       y       z     vdW  Elec       q    Type
REMARK                         _______ _______ _______ _____ _____    ______ ____
ROOT
ATOM      1  N   UNL     1      47.665   6.297  14.091  0.00  0.00    +0.000 N 
ATOM      2  H   UNL     1      47.275   7.111  14.569  0.00  0.00    +0.000 HD
ENDROOT
BRANCH   1   3
ATOM      3  C   UNL     1      46.670   5.719  13.288  0.00  0.00    +0.000 A 
ATOM      4  C   UNL     1      46.515   6.181  11.981  0.00  0.00    +0.000 A 
ATOM      5  C   UNL     1      45.558   5.613  11.143  0.00  0.00    +0.000 A 
ATOM      6  C   UNL     1      44.805   4.553  11.632  0.00  0.00    +0.000 A 
ATOM      7  N   UNL     1      44.943   4.039  12.884  0.00  0.00    +0.000 NA
ATOM      8  C   UNL     1      45.873   4.632  13.666  0.00  0.00    +0.000 A 
BRANCH   6   9
ATOM      9  C   UNL     1      43.794   3.889  10.753  0.00  0.00    +0.000 C 
ATOM     10  N   UNL     1      43.738   4.355   9.465  0.00  0.00    +0.000 N 
ATOM     11  O   UNL     1      43.055   2.999  11.148  0.00  0.00    +0.000 OA
ATOM     12  H   UNL     1      44.354   5.110   9.183  0.00  0.00    +0.000 HD
ATOM     13  H   UNL     1      43.049   3.981   8.831  0.00  0.00    +0.000 HD
ENDBRANCH   6   9
ENDBRANCH   1   3
BRANCH   1  14
ATOM     14  C   UNL     1      48.921   6.632  13.416  0.00  0.00    +0.000 C 
BRANCH  14  20
ATOM     15  C   UNL     1      48.345  11.488  12.993  0.00  0.00    +0.000 C 
ATOM     16  C   UNL     1      47.781  10.126  12.539  0.00  0.00    +0.000 C 
ATOM     17  C   UNL     1      46.602  10.393  11.586  0.00  0.00    +0.000 C 
ATOM     18  C   UNL     1      47.270   9.325  13.758  0.00  0.00    +0.000 C 
ATOM     19  C   UNL     1      48.398   8.820  14.660  0.00  0.00    +0.000 C 
ATOM     20  C   UNL     1      49.444   7.999  13.894  0.00  0.00    +0.000 C 
ATOM     21  C   UNL     1      49.980   8.808  12.700  0.00  0.00    +0.000 C 
ATOM     22  C   UNL     1      48.866   9.323  11.785  0.00  0.00    +0.000 C 
ENDBRANCH  14  20
ENDBRANCH   1  14
TORSDOF 4
ENDMDL
MODEL 9
REMARK VINA RESULT:    -4.977      4.540      6.538
REMARK INTER + INTRA:          -6.671
REMARK INTER:                  -6.185
REMARK INTRA:                  -0.486
REMARK UNBOUND:                -0.531
REMARK  Name = 
REMARK  6 active torsions:
REMARK  status: ('A' for Active; 'I' for Inactive)
REMARK    1  A    between atoms: C_1  and  C_2
REMARK    2  A    between atoms: C_2  and  C_3
REMARK    3  A    between atoms: C_6  and  C_7
REMARK    4  A    between atoms: C_7  and  N_8
REMARK    5  A    between atoms: N_8  and  C_9
REMARK    6  A    between atoms: C_12  and  C_13
REMARK                            x       y       z     vdW  Elec       q    Type
REMARK                         _______ _______ _______ _____ _____    ______ ____
ROOT
ATOM      1  N   UNL     1      48.013   7.470  13.737  0.00  0.00    +0.000 N 
ATOM      2  H   UNL     1      47.727   8.425  13.513  0.00  0.00    +0.000 HD
ENDROOT
BRANCH   1   3
ATOM      3  C   UNL     1      46.931   6.605  13.514  0.00  0.00    +0.000 A 
ATOM      4  C   UNL     1      45.833   7.081  12.798  0.00  0.00    +0.000 A 
ATOM      5  C   UNL     1      44.751   6.245  12.530  0.00  0.00    +0.000 A 
ATOM      6  C   UNL     1      44.822   4.926  12.956  0.00  0.00    +0.000 A 
ATOM      7  N   UNL     1      45.885   4.400  13.625  0.00  0.00    +0.000 NA
ATOM      8  C   UNL     1      46.904   5.252  13.875  0.00  0.00    +0.000 A 
BRANCH   6   9
ATOM      9  C   UNL     1      43.700   3.984  12.657  0.00  0.00    +0.000 C 
ATOM     10  N   UNL     1      42.586   4.555  12.099  0.00  0.00    +0.000 N 
ATOM     11  O   UNL     1      43.756   2.787  12.899  0.00  0.00    +0.000 OA
ATOM     12  H   UNL     1      42.571   5.556  11.934  0.00  0.00    +0.000 HD
ATOM     13  H   UNL     1      41.776   3.985  11.912  0.00  0.00    +0.000 HD
ENDBRANCH   6   9
ENDBRANCH   1   3
BRANCH   1  14
ATOM     14  C   UNL     1      49.264   7.122  13.061  0.00  0.00    +0.000 C 
BRANCH  14  20
ATOM     15  C   UNL     1      51.311  10.682  10.373  0.00  0.00    +0.000 C 
ATOM     16  C   UNL     1      51.302  10.030  11.770  0.00  0.00    +0.000 C 
ATOM     17  C   UNL     1      52.303  10.793  12.657  0.00  0.00    +0.000 C 
ATOM     18  C   UNL     1      51.739   8.551  11.675  0.00  0.00    +0.000 C 
ATOM     19  C   UNL     1      50.698   7.659  10.997  0.00  0.00    +0.000 C 
ATOM     20  C   UNL     1      49.317   7.756  11.659  0.00  0.00    +0.000 C 
ATOM     21  C   UNL     1      48.863   9.224  11.723  0.00  0.00    +0.000 C 
ATOM     22  C   UNL     1      49.892  10.133  12.399  0.00  0.00    +0.000 C 
ENDBRANCH  14  20
ENDBRANCH   1  14
TORSDOF 4
ENDMDL
