MODEL 1
REMARK VINA RESULT:    -8.563      0.000      0.000
REMARK INTER + INTRA:         -11.873
REMARK INTER:                 -11.066
REMARK INTRA:                  -0.807
REMARK UNBOUND:                -0.807
REMARK  Name = 
REMARK  5 active torsions:
REMARK  status: ('A' for Active; 'I' for Inactive)
REMARK    1  A    between atoms: C_2  and  C_4
REMARK    2  A    between atoms: C_7  and  S_8
REMARK    3  A    between atoms: S_8  and  C_9
REMARK    4  A    between atoms: C_9  and  C_10
REMARK    5  A    between atoms: C_14  and  C_15
REMARK                            x       y       z     vdW  Elec       q    Type
REMARK                         _______ _______ _______ _____ _____    ______ ____
ROOT
ATOM      1  C   UNL     1      44.195   4.197  12.071  0.00  0.00    +0.000 C 
ENDROOT
BRANCH   1   2
ATOM      2  C   UNL     1      45.480   4.837  12.526  0.00  0.00    +0.000 A 
ATOM      3  C   UNL     1      46.363   4.154  13.351  0.00  0.00    +0.000 A 
ATOM      4  N   UNL     1      47.532   4.664  13.789  0.00  0.00    +0.000 NA
ATOM      5  C   UNL     1      47.833   5.926  13.396  0.00  0.00    +0.000 A 
ATOM      6  C   UNL     1      47.042   6.725  12.565  0.00  0.00    +0.000 A 
ATOM      7  C   UNL     1      45.840   6.135  12.134  0.00  0.00    +0.000 A 
BRANCH   6   8
ATOM      8  C   UNL     1      47.438   8.099  12.178  0.00  0.00    +0.000 A 
ATOM      9  C   UNL     1      48.749   8.404  11.755  0.00  0.00    +0.000 A 
ATOM     10  C   UNL     1      49.126   9.708  11.404  0.00  0.00    +0.000 A 
ATOM     11  C   UNL     1      48.194  10.737  11.456  0.00  0.00    +0.000 A 
ATOM     12  C   UNL     1      46.899  10.455  11.863  0.00  0.00    +0.000 A 
ATOM     13  F   UNL     1      45.994  11.443  11.914  0.00  0.00    +0.000 F 
ATOM     14  C   UNL     1      46.521   9.164  12.225  0.00  0.00    +0.000 A 
ENDBRANCH   6   8
ENDBRANCH   1   2
BRANCH   1  15
ATOM     15  S   UNL     1      43.638   4.826  10.449  0.00  0.00    +0.000 S 
BRANCH  15  19
ATOM     16  C   UNL     1      46.401   2.470   7.718  0.00  0.00    +0.000 A 
ATOM     17  C   UNL     1      45.646   1.778   8.665  0.00  0.00    +0.000 A 
ATOM     18  C   UNL     1      44.787   2.500   9.506  0.00  0.00    +0.000 A 
ATOM     19  C   UNL     1      44.705   3.884   9.370  0.00  0.00    +0.000 A 
ATOM     20  N   UNL     1      45.425   4.563   8.449  0.00  0.00    +0.000 NA
ATOM     21  C   UNL     1      46.259   3.848   7.655  0.00  0.00    +0.000 A 
BRANCH  16  23
ATOM     22  N   UNL     1      48.467   2.552   6.421  0.00  0.00    +0.000 N 
ATOM     23  C   UNL     1      47.372   1.829   6.802  0.00  0.00    +0.000 C 
ATOM     24  O   UNL     1      47.216   0.677   6.420  0.00  0.00    +0.000 OA
ATOM     25  H   UNL     1      49.166   2.048   5.886  0.00  0.00    +0.000 HD
ATOM     26  H   UNL     1      48.769   3.382   6.910  0.00  0.00    +0.000 HD
ENDBRANCH  16  23
ENDBRANCH  15  19
ENDBRANCH   1  15
TORSDOF 5
ENDMDL
MODEL 2
REMARK VINA RESULT:    -8.461      1.037      1.384
REMARK INTER + INTRA:         -11.740
REMARK INTER:                 -10.929
REMARK INTRA:                  -0.811
REMARK UNBOUND:                -0.807
REMARK  Name = 
REMARK  5 active torsions:
REMARK  status: ('A' for Active; 'I' for Inactive)
REMARK    1  A    between atoms: C_2  and  C_4
REMARK    2  A    between atoms: C_7  and  S_8
REMARK    3  A    between atoms: S_8  and  C_9
REMARK    4  A    between atoms: C_9  and  C_10
REMARK    5  A    between atoms: C_14  and  C_15
REMARK                            x       y       z     vdW  Elec       q    Type
REMARK                         _______ _______ _______ _____ _____    ______ ____
ROOT
ATOM      1  C   UNL     1      44.697   3.294  12.253  0.00  0.00    +0.000 C 
ENDROOT
BRANCH   1   2
ATOM      2  C   UNL     1      45.707   4.297  12.744  0.00  0.00    +0.000 A 
ATOM      3  C   UNL     1      46.735   3.915  13.595  0.00  0.00    +0.000 A 
ATOM      4  N   UNL     1      47.676   4.760  14.066  0.00  0.00    +0.000 NA
ATOM      5  C   UNL     1      47.581   6.056  13.680  0.00  0.00    +0.000 A 
ATOM      6  C   UNL     1      46.605   6.576  12.826  0.00  0.00    +0.000 A 
ATOM      7  C   UNL     1      45.658   5.646  12.360  0.00  0.00    +0.000 A 
BRANCH   6   8
ATOM      8  C   UNL     1      46.565   8.009  12.448  0.00  0.00    +0.000 A 
ATOM      9  C   UNL     1      47.742   8.741  12.183  0.00  0.00    +0.000 A 
ATOM     10  C   UNL     1      47.704  10.099  11.842  0.00  0.00    +0.000 A 
ATOM     11  C   UNL     1      46.483  10.756  11.744  0.00  0.00    +0.000 A 
ATOM     12  C   UNL     1      45.315  10.051  11.994  0.00  0.00    +0.000 A 
ATOM     13  F   UNL     1      44.134  10.678  11.899  0.00  0.00    +0.000 F 
ATOM     14  C   UNL     1      45.347   8.703  12.345  0.00  0.00    +0.000 A 
ENDBRANCH   6   8
ENDBRANCH   1   2
BRANCH   1  15
ATOM     15  S   UNL     1      43.767   3.894  10.801  0.00  0.00    +0.000 S 
BRANCH  15  19
ATOM     16  C   UNL     1      46.631   2.734   7.470  0.00  0.00    +0.000 A 
ATOM     17  C   UNL     1      46.331   4.083   7.656  0.00  0.00    +0.000 A 
ATOM     18  C   UNL     1      45.453   4.447   8.687  0.00  0.00    +0.000 A 
ATOM     19  C   UNL     1      44.908   3.455   9.500  0.00  0.00    +0.000 A 
ATOM     20  N   UNL     1      45.201   2.146   9.335  0.00  0.00    +0.000 NA
ATOM     21  C   UNL     1      46.041   1.814   8.324  0.00  0.00    +0.000 A 
BRANCH  16  23
ATOM     22  N   UNL     1      47.776   3.041   5.336  0.00  0.00    +0.000 N 
ATOM     23  C   UNL     1      47.509   2.219   6.395  0.00  0.00    +0.000 C 
ATOM     24  O   UNL     1      48.007   1.103   6.464  0.00  0.00    +0.000 OA
ATOM     25  H   UNL     1      48.466   2.703   4.675  0.00  0.00    +0.000 HD
ATOM     26  H   UNL     1      47.613   4.037   5.366  0.00  0.00    +0.000 HD
ENDBRANCH  16  23
ENDBRANCH  15  19
ENDBRANCH   1  15
TORSDOF 5
ENDMDL
MODEL 3
REMARK VINA RESULT:    -8.349      4.296      7.553
REMARK INTER + INTRA:         -11.596
REMARK INTER:                 -11.041
REMARK INTRA:                  -0.555
REMARK UNBOUND:                -0.807
REMARK  Name = 
REMARK  5 active torsions:
REMARK  status: ('A' for Active; 'I' for Inactive)
REMARK    1  A    between atoms: C_2  and  C_4
REMARK    2  A    between atoms: C_7  and  S_8
REMARK    3  A    between atoms: S_8  and  C_9
REMARK    4  A    between atoms: C_9  and  C_10
REMARK    5  A    between atoms: C_14  and  C_15
REMARK                            x       y       z     vdW  Elec       q    Type
REMARK                         _______ _______ _______ _____ _____    ______ ____
ROOT
ATOM      1  C   UNL     1      45.851   7.393  11.927  0.00  0.00    +0.000 C 
ENDROOT
BRANCH   1   2
ATOM      2  C   UNL     1      45.123   6.300  11.190  0.00  0.00    +0.000 A 
ATOM      3  C   UNL     1      43.768   6.079  11.401  0.00  0.00    +0.000 A 
ATOM      4  N   UNL     1      43.054   5.125  10.771  0.00  0.00    +0.000 NA
ATOM      5  C   UNL     1      43.726   4.339   9.894  0.00  0.00    +0.000 A 
ATOM      6  C   UNL     1      45.084   4.452   9.582  0.00  0.00    +0.000 A 
ATOM      7  C   UNL     1      45.773   5.471  10.263  0.00  0.00    +0.000 A 
BRANCH   6   8
ATOM      8  C   UNL     1      45.750   3.553   8.610  0.00  0.00    +0.000 A 
ATOM      9  C   UNL     1      46.430   4.053   7.479  0.00  0.00    +0.000 A 
ATOM     10  C   UNL     1      47.047   3.201   6.553  0.00  0.00    +0.000 A 
ATOM     11  C   UNL     1      47.008   1.825   6.743  0.00  0.00    +0.000 A 
ATOM     12  C   UNL     1      46.350   1.315   7.853  0.00  0.00    +0.000 A 
ATOM     13  F   UNL     1      46.311  -0.010   8.044  0.00  0.00    +0.000 F 
ATOM     14  C   UNL     1      45.726   2.157   8.771  0.00  0.00    +0.000 A 
ENDBRANCH   6   8
ENDBRANCH   1   2
BRANCH   1  15
ATOM     15  S   UNL     1      47.635   7.043  12.109  0.00  0.00    +0.000 S 
BRANCH  15  19
ATOM     16  C   UNL     1      47.537   4.489  15.865  0.00  0.00    +0.000 A 
ATOM     17  C   UNL     1      46.783   4.088  14.763  0.00  0.00    +0.000 A 
ATOM     18  C   UNL     1      46.815   4.869  13.599  0.00  0.00    +0.000 A 
ATOM     19  C   UNL     1      47.601   6.019  13.571  0.00  0.00    +0.000 A 
ATOM     20  N   UNL     1      48.344   6.411  14.631  0.00  0.00    +0.000 NA
ATOM     21  C   UNL     1      48.288   5.649  15.751  0.00  0.00    +0.000 A 
BRANCH  16  23
ATOM     22  N   UNL     1      48.570   4.055  18.034  0.00  0.00    +0.000 N 
ATOM     23  C   UNL     1      47.556   3.775  17.162  0.00  0.00    +0.000 C 
ATOM     24  O   UNL     1      46.674   2.980  17.460  0.00  0.00    +0.000 OA
ATOM     25  H   UNL     1      48.493   3.635  18.954  0.00  0.00    +0.000 HD
ATOM     26  H   UNL     1      49.150   4.877  17.948  0.00  0.00    +0.000 HD
ENDBRANCH  16  23
ENDBRANCH  15  19
ENDBRANCH   1  15
TORSDOF 5
ENDMDL
MODEL 4
REMARK VINA RESULT:    -8.196      2.821      4.348
REMARK INTER + INTRA:         -11.399
REMARK INTER:                 -10.790
REMARK INTRA:                  -0.609
REMARK UNBOUND:                -0.807
REMARK  Name = 
REMARK  5 active torsions:
REMARK  status: ('A' for Active; 'I' for Inactive)
REMARK    1  A    between atoms: C_2  and  C_4
REMARK    2  A    between atoms: C_7  and  S_8
REMARK    3  A    between atoms: S_8  and  C_9
REMARK    4  A    between atoms: C_9  and  C_10
REMARK    5  A    between atoms: C_14  and  C_15
REMARK                            x       y       z     vdW  Elec       q    Type
REMARK                         _______ _______ _______ _____ _____    ______ ____
ROOT
ATOM      1  C   UNL     1      44.294   4.026  11.917  0.00  0.00    +0.000 C 
ENDROOT
BRANCH   1   2
ATOM      2  C   UNL     1      45.455   4.755  12.540  0.00  0.00    +0.000 A 
ATOM      3  C   UNL     1      46.026   5.854  11.910  0.00  0.00    +0.000 A 
ATOM      4  N   UNL     1      47.061   6.557  12.414  0.00  0.00    +0.000 NA
ATOM      5  C   UNL     1      47.563   6.136  13.601  0.00  0.00    +0.000 A 
ATOM      6  C   UNL     1      47.085   5.053  14.345  0.00  0.00    +0.000 A 
ATOM      7  C   UNL     1      45.999   4.366  13.773  0.00  0.00    +0.000 A 
BRANCH   6   8
ATOM      8  C   UNL     1      47.688   4.653  15.638  0.00  0.00    +0.000 A 
ATOM      9  C   UNL     1      47.552   3.345  16.149  0.00  0.00    +0.000 A 
ATOM     10  C   UNL     1      48.110   2.972  17.379  0.00  0.00    +0.000 A 
ATOM     11  C   UNL     1      48.830   3.899  18.124  0.00  0.00    +0.000 A 
ATOM     12  C   UNL     1      48.980   5.188  17.634  0.00  0.00    +0.000 A 
ATOM     13  F   UNL     1      49.674   6.086  18.346  0.00  0.00    +0.000 F 
ATOM     14  C   UNL     1      48.418   5.568  16.417  0.00  0.00    +0.000 A 
ENDBRANCH   6   8
ENDBRANCH   1   2
BRANCH   1  15
ATOM     15  S   UNL     1      43.762   4.777  10.339  0.00  0.00    +0.000 S 
BRANCH  15  19
ATOM     16  C   UNL     1      46.630   2.702   7.491  0.00  0.00    +0.000 A 
ATOM     17  C   UNL     1      45.858   1.922   8.350  0.00  0.00    +0.000 A 
ATOM     18  C   UNL     1      44.966   2.557   9.227  0.00  0.00    +0.000 A 
ATOM     19  C   UNL     1      44.871   3.946   9.213  0.00  0.00    +0.000 A 
ATOM     20  N   UNL     1      45.607   4.712   8.376  0.00  0.00    +0.000 NA
ATOM     21  C   UNL     1      46.473   4.079   7.547  0.00  0.00    +0.000 A 
BRANCH  16  23
ATOM     22  N   UNL     1      47.859   2.836   5.386  0.00  0.00    +0.000 N 
ATOM     23  C   UNL     1      47.634   2.156   6.550  0.00  0.00    +0.000 C 
ATOM     24  O   UNL     1      48.267   1.143   6.818  0.00  0.00    +0.000 OA
ATOM     25  H   UNL     1      48.628   2.499   4.817  0.00  0.00    +0.000 HD
ATOM     26  H   UNL     1      47.567   3.792   5.249  0.00  0.00    +0.000 HD
ENDBRANCH  16  23
ENDBRANCH  15  19
ENDBRANCH   1  15
TORSDOF 5
ENDMDL
MODEL 5
REMARK VINA RESULT:    -8.180      2.036      2.426
REMARK INTER + INTRA:         -11.378
REMARK INTER:                 -10.600
REMARK INTRA:                  -0.779
REMARK UNBOUND:                -0.807
REMARK  Name = 
REMARK  5 active torsions:
REMARK  status: ('A' for Active; 'I' for Inactive)
REMARK    1  A    between atoms: C_2  and  C_4
REMARK    2  A    between atoms: C_7  and  S_8
REMARK    3  A    between atoms: S_8  and  C_9
REMARK    4  A    between atoms: C_9  and  C_10
REMARK    5  A    between atoms: C_14  and  C_15
REMARK                            x       y       z     vdW  Elec       q    Type
REMARK                         _______ _______ _______ _____ _____    ______ ____
ROOT
ATOM      1  C   UNL     1      44.237   5.739  11.210  0.00  0.00    +0.000 C 
ENDROOT
BRANCH   1   2
ATOM      2  C   UNL     1      45.346   5.538  12.208  0.00  0.00    +0.000 A 
ATOM      3  C   UNL     1      45.260   4.549  13.179  0.00  0.00    +0.000 A 
ATOM      4  N   UNL     1      46.219   4.310  14.098  0.00  0.00    +0.000 NA
ATOM      5  C   UNL     1      47.315   5.107  14.057  0.00  0.00    +0.000 A 
ATOM      6  C   UNL     1      47.535   6.134  13.134  0.00  0.00    +0.000 A 
ATOM      7  C   UNL     1      46.506   6.328  12.196  0.00  0.00    +0.000 A 
BRANCH   6   8
ATOM      8  C   UNL     1      48.762   6.964  13.153  0.00  0.00    +0.000 A 
ATOM      9  C   UNL     1      49.345   7.403  14.360  0.00  0.00    +0.000 A 
ATOM     10  C   UNL     1      50.497   8.201  14.376  0.00  0.00    +0.000 A 
ATOM     11  C   UNL     1      51.101   8.571  13.180  0.00  0.00    +0.000 A 
ATOM     12  C   UNL     1      50.546   8.143  11.983  0.00  0.00    +0.000 A 
ATOM     13  F   UNL     1      51.125   8.493  10.826  0.00  0.00    +0.000 F 
ATOM     14  C   UNL     1      49.395   7.359  11.961  0.00  0.00    +0.000 A 
ENDBRANCH   6   8
ENDBRANCH   1   2
BRANCH   1  15
ATOM     15  S   UNL     1      43.447   4.167  10.719  0.00  0.00    +0.000 S 
BRANCH  15  19
ATOM     16  C   UNL     1      46.505   2.568   7.764  0.00  0.00    +0.000 A 
ATOM     17  C   UNL     1      46.309   3.946   7.845  0.00  0.00    +0.000 A 
ATOM     18  C   UNL     1      45.371   4.445   8.760  0.00  0.00    +0.000 A 
ATOM     19  C   UNL     1      44.665   3.555   9.567  0.00  0.00    +0.000 A 
ATOM     20  N   UNL     1      44.855   2.218   9.504  0.00  0.00    +0.000 NA
ATOM     21  C   UNL     1      45.757   1.755   8.603  0.00  0.00    +0.000 A 
BRANCH  16  23
ATOM     22  N   UNL     1      48.491   2.645   6.348  0.00  0.00    +0.000 N 
ATOM     23  C   UNL     1      47.433   1.916   6.813  0.00  0.00    +0.000 C 
ATOM     24  O   UNL     1      47.278   0.749   6.476  0.00  0.00    +0.000 OA
ATOM     25  H   UNL     1      49.168   2.137   5.788  0.00  0.00    +0.000 HD
ATOM     26  H   UNL     1      48.804   3.495   6.793  0.00  0.00    +0.000 HD
ENDBRANCH  16  23
ENDBRANCH  15  19
ENDBRANCH   1  15
TORSDOF 5
ENDMDL
MODEL 6
REMARK VINA RESULT:    -7.779      2.124      2.741
REMARK INTER + INTRA:         -10.859
REMARK INTER:                 -10.181
REMARK INTRA:                  -0.678
REMARK UNBOUND:                -0.807
REMARK  Name = 
REMARK  5 active torsions:
REMARK  status: ('A' for Active; 'I' for Inactive)
REMARK    1  A    between atoms: C_2  and  C_4
REMARK    2  A    between atoms: C_7  and  S_8
REMARK    3  A    between atoms: S_8  and  C_9
REMARK    4  A    between atoms: C_9  and  C_10
REMARK    5  A    between atoms: C_14  and  C_15
REMARK                            x       y       z     vdW  Elec       q    Type
REMARK                         _______ _______ _______ _____ _____    ______ ____
ROOT
ATOM      1  C   UNL     1      45.302   4.872  12.013  0.00  0.00    +0.000 C 
ENDROOT
BRANCH   1   2
ATOM      2  C   UNL     1      45.794   6.285  12.174  0.00  0.00    +0.000 A 
ATOM      3  C   UNL     1      44.953   7.281  12.654  0.00  0.00    +0.000 A 
ATOM      4  N   UNL     1      45.330   8.565  12.829  0.00  0.00    +0.000 NA
ATOM      5  C   UNL     1      46.607   8.877  12.496  0.00  0.00    +0.000 A 
ATOM      6  C   UNL     1      47.559   7.977  12.008  0.00  0.00    +0.000 A 
ATOM      7  C   UNL     1      47.110   6.653  11.856  0.00  0.00    +0.000 A 
BRANCH   6   8
ATOM      8  C   UNL     1      48.938   8.394  11.664  0.00  0.00    +0.000 A 
ATOM      9  C   UNL     1      49.342   9.745  11.714  0.00  0.00    +0.000 A 
ATOM     10  C   UNL     1      50.643  10.139  11.375  0.00  0.00    +0.000 A 
ATOM     11  C   UNL     1      51.578   9.187  10.987  0.00  0.00    +0.000 A 
ATOM     12  C   UNL     1      51.202   7.853  10.939  0.00  0.00    +0.000 A 
ATOM     13  F   UNL     1      52.099   6.928  10.569  0.00  0.00    +0.000 F 
ATOM     14  C   UNL     1      49.907   7.456  11.265  0.00  0.00    +0.000 A 
ENDBRANCH   6   8
ENDBRANCH   1   2
BRANCH   1  15
ATOM     15  S   UNL     1      44.039   4.717  10.703  0.00  0.00    +0.000 S 
BRANCH  15  19
ATOM     16  C   UNL     1      46.570   2.785   7.462  0.00  0.00    +0.000 A 
ATOM     17  C   UNL     1      45.878   1.962   8.351  0.00  0.00    +0.000 A 
ATOM     18  C   UNL     1      45.090   2.554   9.349  0.00  0.00    +0.000 A 
ATOM     19  C   UNL     1      45.014   3.943   9.423  0.00  0.00    +0.000 A 
ATOM     20  N   UNL     1      45.672   4.749   8.560  0.00  0.00    +0.000 NA
ATOM     21  C   UNL     1      46.440   4.157   7.612  0.00  0.00    +0.000 A 
BRANCH  16  23
ATOM     22  N   UNL     1      47.426   2.910   5.179  0.00  0.00    +0.000 N 
ATOM     23  C   UNL     1      47.464   2.285   6.394  0.00  0.00    +0.000 C 
ATOM     24  O   UNL     1      48.239   1.359   6.599  0.00  0.00    +0.000 OA
ATOM     25  H   UNL     1      48.127   2.617   4.507  0.00  0.00    +0.000 HD
ATOM     26  H   UNL     1      47.013   3.822   5.050  0.00  0.00    +0.000 HD
ENDBRANCH  16  23
ENDBRANCH  15  19
ENDBRANCH   1  15
TORSDOF 5
ENDMDL
MODEL 7
REMARK VINA RESULT:    -7.761      2.218      2.681
REMARK INTER + INTRA:         -10.837
REMARK INTER:                 -10.113
REMARK INTRA:                  -0.723
REMARK UNBOUND:                -0.807
REMARK  Name = 
REMARK  5 active torsions:
REMARK  status: ('A' for Active; 'I' for Inactive)
REMARK    1  A    between atoms: C_2  and  C_4
REMARK    2  A    between atoms: C_7  and  S_8
REMARK    3  A    between atoms: S_8  and  C_9
REMARK    4  A    between atoms: C_9  and  C_10
REMARK    5  A    between atoms: C_14  and  C_15
REMARK                            x       y       z     vdW  Elec       q    Type
REMARK                         _______ _______ _______ _____ _____    ______ ____
ROOT
ATOM      1  C   UNL     1      44.956   3.591  12.121  0.00  0.00    +0.000 C 
ENDROOT
BRANCH   1   2
ATOM      2  C   UNL     1      45.310   5.054  12.080  0.00  0.00    +0.000 A 
ATOM      3  C   UNL     1      44.350   6.012  11.784  0.00  0.00    +0.000 A 
ATOM      4  N   UNL     1      44.597   7.337  11.737  0.00  0.00    +0.000 NA
ATOM      5  C   UNL     1      45.871   7.729  11.985  0.00  0.00    +0.000 A 
ATOM      6  C   UNL     1      46.933   6.877  12.301  0.00  0.00    +0.000 A 
ATOM      7  C   UNL     1      46.611   5.508  12.343  0.00  0.00    +0.000 A 
BRANCH   6   8
ATOM      8  C   UNL     1      48.302   7.381  12.560  0.00  0.00    +0.000 A 
ATOM      9  C   UNL     1      49.168   7.754  11.511  0.00  0.00    +0.000 A 
ATOM     10  C   UNL     1      50.468   8.217  11.757  0.00  0.00    +0.000 A 
ATOM     11  C   UNL     1      50.930   8.328  13.063  0.00  0.00    +0.000 A 
ATOM     12  C   UNL     1      50.090   7.972  14.108  0.00  0.00    +0.000 A 
ATOM     13  F   UNL     1      50.527   8.079  15.370  0.00  0.00    +0.000 F 
ATOM     14  C   UNL     1      48.801   7.501  13.869  0.00  0.00    +0.000 A 
ENDBRANCH   6   8
ENDBRANCH   1   2
BRANCH   1  15
ATOM     15  S   UNL     1      43.784   3.120  10.801  0.00  0.00    +0.000 S 
BRANCH  15  19
ATOM     16  C   UNL     1      46.630   2.615   7.296  0.00  0.00    +0.000 A 
ATOM     17  C   UNL     1      46.144   3.889   7.585  0.00  0.00    +0.000 A 
ATOM     18  C   UNL     1      45.270   4.052   8.670  0.00  0.00    +0.000 A 
ATOM     19  C   UNL     1      44.916   2.941   9.432  0.00  0.00    +0.000 A 
ATOM     20  N   UNL     1      45.390   1.703   9.167  0.00  0.00    +0.000 NA
ATOM     21  C   UNL     1      46.223   1.566   8.106  0.00  0.00    +0.000 A 
BRANCH  16  23
ATOM     22  N   UNL     1      47.453   3.107   5.051  0.00  0.00    +0.000 N 
ATOM     23  C   UNL     1      47.524   2.307   6.157  0.00  0.00    +0.000 C 
ATOM     24  O   UNL     1      48.324   1.382   6.213  0.00  0.00    +0.000 OA
ATOM     25  H   UNL     1      48.152   2.938   4.336  0.00  0.00    +0.000 HD
ATOM     26  H   UNL     1      47.015   4.016   5.065  0.00  0.00    +0.000 HD
ENDBRANCH  16  23
ENDBRANCH  15  19
ENDBRANCH   1  15
TORSDOF 5
ENDMDL
MODEL 8
REMARK VINA RESULT:    -7.734      4.233      7.690
REMARK INTER + INTRA:         -10.801
REMARK INTER:                 -10.114
REMARK INTRA:                  -0.687
REMARK UNBOUND:                -0.807
REMARK  Name = 
REMARK  5 active torsions:
REMARK  status: ('A' for Active; 'I' for Inactive)
REMARK    1  A    between atoms: C_2  and  C_4
REMARK    2  A    between atoms: C_7  and  S_8
REMARK    3  A    between atoms: S_8  and  C_9
REMARK    4  A    between atoms: C_9  and  C_10
REMARK    5  A    between atoms: C_14  and  C_15
REMARK                            x       y       z     vdW  Elec       q    Type
REMARK                         _______ _______ _______ _____ _____    ______ ____
ROOT
ATOM      1  C   UNL     1      45.869   7.149  12.296  0.00  0.00    +0.000 C 
ENDROOT
BRANCH   1   2
ATOM      2  C   UNL     1      45.068   6.164  11.486  0.00  0.00    +0.000 A 
ATOM      3  C   UNL     1      43.693   6.057  11.653  0.00  0.00    +0.000 A 
ATOM      4  N   UNL     1      42.915   5.202  10.957  0.00  0.00    +0.000 NA
ATOM      5  C   UNL     1      43.540   4.403  10.057  0.00  0.00    +0.000 A 
ATOM      6  C   UNL     1      44.911   4.409   9.784  0.00  0.00    +0.000 A 
ATOM      7  C   UNL     1      45.668   5.327  10.534  0.00  0.00    +0.000 A 
BRANCH   6   8
ATOM      8  C   UNL     1      45.522   3.503   8.784  0.00  0.00    +0.000 A 
ATOM      9  C   UNL     1      45.629   2.113   9.005  0.00  0.00    +0.000 A 
ATOM     10  C   UNL     1      46.222   1.260   8.065  0.00  0.00    +0.000 A 
ATOM     11  C   UNL     1      46.711   1.776   6.871  0.00  0.00    +0.000 A 
ATOM     12  C   UNL     1      46.609   3.139   6.632  0.00  0.00    +0.000 A 
ATOM     13  F   UNL     1      47.076   3.643   5.482  0.00  0.00    +0.000 F 
ATOM     14  C   UNL     1      46.031   3.994   7.568  0.00  0.00    +0.000 A 
ENDBRANCH   6   8
ENDBRANCH   1   2
BRANCH   1  15
ATOM     15  S   UNL     1      47.647   6.733  12.341  0.00  0.00    +0.000 S 
BRANCH  15  19
ATOM     16  C   UNL     1      47.854   4.706  16.401  0.00  0.00    +0.000 A 
ATOM     17  C   UNL     1      47.043   4.147  15.415  0.00  0.00    +0.000 A 
ATOM     18  C   UNL     1      46.981   4.765  14.157  0.00  0.00    +0.000 A 
ATOM     19  C   UNL     1      47.733   5.915  13.925  0.00  0.00    +0.000 A 
ATOM     20  N   UNL     1      48.530   6.459  14.872  0.00  0.00    +0.000 NA
ATOM     21  C   UNL     1      48.565   5.854  16.084  0.00  0.00    +0.000 A 
BRANCH  16  23
ATOM     22  N   UNL     1      47.136   4.674  18.734  0.00  0.00    +0.000 N 
ATOM     23  C   UNL     1      47.974   4.174  17.777  0.00  0.00    +0.000 C 
ATOM     24  O   UNL     1      48.777   3.290  18.047  0.00  0.00    +0.000 OA
ATOM     25  H   UNL     1      47.166   4.211  19.636  0.00  0.00    +0.000 HD
ATOM     26  H   UNL     1      46.299   5.192  18.508  0.00  0.00    +0.000 HD
ENDBRANCH  16  23
ENDBRANCH  15  19
ENDBRANCH   1  15
TORSDOF 5
ENDMDL
MODEL 9
REMARK VINA RESULT:    -7.311      5.250      8.601
REMARK INTER + INTRA:         -10.255
REMARK INTER:                  -9.788
REMARK INTRA:                  -0.467
REMARK UNBOUND:                -0.807
REMARK  Name = 
REMARK  5 active torsions:
REMARK  status: ('A' for Active; 'I' for Inactive)
REMARK    1  A    between atoms: C_2  and  C_4
REMARK    2  A    between atoms: C_7  and  S_8
REMARK    3  A    between atoms: S_8  and  C_9
REMARK    4  A    between atoms: C_9  and  C_10
REMARK    5  A    between atoms: C_14  and  C_15
REMARK                            x       y       z     vdW  Elec       q    Type
REMARK                         _______ _______ _______ _____ _____    ______ ____
ROOT
ATOM      1  C   UNL     1      45.737   4.975  13.560  0.00  0.00    +0.000 C 
ENDROOT
BRANCH   1   2
ATOM      2  C   UNL     1      45.039   4.802  12.238  0.00  0.00    +0.000 A 
ATOM      3  C   UNL     1      43.762   5.309  12.035  0.00  0.00    +0.000 A 
ATOM      4  N   UNL     1      43.083   5.196  10.875  0.00  0.00    +0.000 NA
ATOM      5  C   UNL     1      43.702   4.532   9.867  0.00  0.00    +0.000 A 
ATOM      6  C   UNL     1      44.983   3.977   9.931  0.00  0.00    +0.000 A 
ATOM      7  C   UNL     1      45.644   4.135  11.162  0.00  0.00    +0.000 A 
BRANCH   6   8
ATOM      8  C   UNL     1      45.594   3.264   8.785  0.00  0.00    +0.000 A 
ATOM      9  C   UNL     1      46.002   3.943   7.618  0.00  0.00    +0.000 A 
ATOM     10  C   UNL     1      46.566   3.265   6.529  0.00  0.00    +0.000 A 
ATOM     11  C   UNL     1      46.747   1.888   6.587  0.00  0.00    +0.000 A 
ATOM     12  C   UNL     1      46.358   1.204   7.729  0.00  0.00    +0.000 A 
ATOM     13  F   UNL     1      46.531  -0.123   7.793  0.00  0.00    +0.000 F 
ATOM     14  C   UNL     1      45.786   1.871   8.810  0.00  0.00    +0.000 A 
ENDBRANCH   6   8
ENDBRANCH   1   2
BRANCH   1  15
ATOM     15  S   UNL     1      46.890   3.606  13.925  0.00  0.00    +0.000 S 
BRANCH  15  19
ATOM     16  C   UNL     1      48.197   4.697  18.137  0.00  0.00    +0.000 A 
ATOM     17  C   UNL     1      48.321   5.653  17.129  0.00  0.00    +0.000 A 
ATOM     18  C   UNL     1      47.913   5.323  15.828  0.00  0.00    +0.000 A 
ATOM     19  C   UNL     1      47.390   4.056  15.579  0.00  0.00    +0.000 A 
ATOM     20  N   UNL     1      47.256   3.126  16.551  0.00  0.00    +0.000 NA
ATOM     21  C   UNL     1      47.670   3.461  17.798  0.00  0.00    +0.000 A 
BRANCH  16  23
ATOM     22  N   UNL     1      48.492   3.869  20.414  0.00  0.00    +0.000 N 
ATOM     23  C   UNL     1      48.629   4.908  19.537  0.00  0.00    +0.000 C 
ATOM     24  O   UNL     1      49.122   5.970  19.895  0.00  0.00    +0.000 OA
ATOM     25  H   UNL     1      48.899   4.007  21.333  0.00  0.00    +0.000 HD
ATOM     26  H   UNL     1      48.348   2.916  20.111  0.00  0.00    +0.000 HD
ENDBRANCH  16  23
ENDBRANCH  15  19
ENDBRANCH   1  15
TORSDOF 5
ENDMDL
