MODEL 1
REMARK VINA RESULT:    -7.258      0.000      0.000
REMARK INTER + INTRA:         -13.625
REMARK INTER:                 -11.501
REMARK INTRA:                  -2.124
REMARK UNBOUND:                -2.124
REMARK  Name = 
REMARK  12 active torsions:
REMARK  status: ('A' for Active; 'I' for Inactive)
REMARK    1  A    between atoms: C_1  and  C_2
REMARK    2  A    between atoms: C_2  and  N_3
REMARK    3  A    between atoms: C_2  and  C_19
REMARK    4  A    between atoms: C_4  and  C_6
REMARK    5  A    between atoms: N_11  and  C_12
REMARK    6  A    between atoms: C_12  and  C_13
REMARK    7  A    between atoms: C_13  and  N_14
REMARK    8  A    between atoms: N_14  and  S_15
REMARK    9  A    between atoms: S_15  and  C_16
REMARK   10  A    between atoms: C_22  and  C_23
REMARK   11  A    between atoms: C_23  and  N_24
REMARK   12  A    between atoms: C_25  and  C_27
REMARK                            x       y       z     vdW  Elec       q    Type
REMARK                         _______ _______ _______ _____ _____    ______ ____
ROOT
ATOM      1  C   UNL     1      50.719   8.080  14.009  0.00  0.00    +0.000 A 
ATOM      2  C   UNL     1      50.610   8.224  12.614  0.00  0.00    +0.000 A 
ATOM      3  C   UNL     1      49.363   8.211  11.976  0.00  0.00    +0.000 A 
ATOM      4  C   UNL     1      48.184   8.072  12.718  0.00  0.00    +0.000 A 
ATOM      5  C   UNL     1      48.288   7.891  14.103  0.00  0.00    +0.000 A 
ATOM      6  C   UNL     1      49.535   7.911  14.741  0.00  0.00    +0.000 A 
ENDROOT
BRANCH   1   8
ATOM      7  C   UNL     1      53.271   8.186  13.680  0.00  0.00    +0.000 C 
ATOM      8  C   UNL     1      52.096   8.146  14.659  0.00  0.00    +0.000 C 
BRANCH   8   9
ATOM      9  N   UNL     1      52.264   7.036  15.578  0.00  0.00    +0.000 N 
ATOM     10  C   UNL     1      52.396   7.204  16.938  0.00  0.00    +0.000 C 
ATOM     11  O   UNL     1      52.396   8.307  17.482  0.00  0.00    +0.000 OA
ATOM     12  H   UNL     1      52.259   6.081  15.234  0.00  0.00    +0.000 HD
BRANCH  10  13
ATOM     13  C   UNL     1      52.614   5.895  17.737  0.00  0.00    +0.000 C 
ATOM     14  C   UNL     1      53.825   5.177  17.109  0.00  0.00    +0.000 C 
ATOM     15  C   UNL     1      54.117   3.842  17.786  0.00  0.00    +0.000 C 
ATOM     16  C   UNL     1      52.864   2.988  17.819  0.00  0.00    +0.000 C 
ATOM     17  C   UNL     1      51.695   3.753  18.431  0.00  0.00    +0.000 C 
ATOM     18  N   UNL     1      51.401   5.010  17.703  0.00  0.00    +0.000 NA
BRANCH  18  19
ATOM     19  C   UNL     1      50.216   5.672  18.308  0.00  0.00    +0.000 C 
BRANCH  19  20
ATOM     20  C   UNL     1      48.908   4.931  17.966  0.00  0.00    +0.000 C 
BRANCH  20  21
ATOM     21  N   UNL     1      48.732   4.806  16.512  0.00  0.00    +0.000 NA
ATOM     22  H   UNL     1      49.574   4.830  15.940  0.00  0.00    +0.000 HD
BRANCH  21  23
ATOM     23  S   UNL     1      47.613   3.648  16.000  0.00  0.00    +0.000 S 
ATOM     24  C   UNL     1      46.806   4.506  14.660  0.00  0.00    +0.000 C 
ATOM     25  O   UNL     1      48.330   2.521  15.460  0.00  0.00    +0.000 OA
ATOM     26  O   UNL     1      46.652   3.512  17.068  0.00  0.00    +0.000 OA
ENDBRANCH  21  23
ENDBRANCH  20  21
ENDBRANCH  19  20
ENDBRANCH  18  19
ENDBRANCH  10  13
ENDBRANCH   8   9
ENDBRANCH   1   8
BRANCH   4  27
ATOM     27  C   UNL     1      46.829   8.096  12.053  0.00  0.00    +0.000 C 
BRANCH  27  28
ATOM     28  N   UNL     1      46.322   6.771  11.821  0.00  0.00    +0.000 N 
ATOM     29  C   UNL     1      44.996   6.555  11.531  0.00  0.00    +0.000 C 
ATOM     30  O   UNL     1      44.197   7.478  11.413  0.00  0.00    +0.000 OA
ATOM     31  H   UNL     1      46.883   5.998  12.161  0.00  0.00    +0.000 HD
BRANCH  29  32
ATOM     32  C   UNL     1      44.601   5.159  11.307  0.00  0.00    +0.000 A 
ATOM     33  C   UNL     1      43.837   4.494  12.256  0.00  0.00    +0.000 A 
ATOM     34  S   UNL     1      43.424   2.901  11.807  0.00  0.00    +0.000 S 
ATOM     35  C   UNL     1      44.297   3.024  10.352  0.00  0.00    +0.000 A 
ATOM     36  N   UNL     1      44.376   1.975   9.490  0.00  0.00    +0.000 NA
ATOM     37  C   UNL     1      45.093   2.199   8.440  0.00  0.00    +0.000 A 
ATOM     38  N   UNL     1      45.732   3.382   8.169  0.00  0.00    +0.000 N 
ATOM     39  C   UNL     1      45.651   4.479   8.992  0.00  0.00    +0.000 A 
ATOM     40  O   UNL     1      46.187   5.542   8.691  0.00  0.00    +0.000 OA
ATOM     41  C   UNL     1      44.874   4.273  10.199  0.00  0.00    +0.000 A 
ATOM     42  H   UNL     1      46.263   3.500   7.319  0.00  0.00    +0.000 HD
ENDBRANCH  29  32
ENDBRANCH  27  28
ENDBRANCH   4  27
TORSDOF 10
ENDMDL
MODEL 2
REMARK VINA RESULT:    -6.860      4.859      8.139
REMARK INTER + INTRA:         -12.994
REMARK INTER:                 -11.582
REMARK INTRA:                  -1.412
REMARK UNBOUND:                -2.124
REMARK  Name = 
REMARK  12 active torsions:
REMARK  status: ('A' for Active; 'I' for Inactive)
REMARK    1  A    between atoms: C_1  and  C_2
REMARK    2  A    between atoms: C_2  and  N_3
REMARK    3  A    between atoms: C_2  and  C_19
REMARK    4  A    between atoms: C_4  and  C_6
REMARK    5  A    between atoms: N_11  and  C_12
REMARK    6  A    between atoms: C_12  and  C_13
REMARK    7  A    between atoms: C_13  and  N_14
REMARK    8  A    between atoms: N_14  and  S_15
REMARK    9  A    between atoms: S_15  and  C_16
REMARK   10  A    between atoms: C_22  and  C_23
REMARK   11  A    between atoms: C_23  and  N_24
REMARK   12  A    between atoms: C_25  and  C_27
REMARK                            x       y       z     vdW  Elec       q    Type
REMARK                         _______ _______ _______ _____ _____    ______ ____
ROOT
ATOM      1  C   UNL     1      48.721   9.008  11.830  0.00  0.00    +0.000 A 
ATOM      2  C   UNL     1      48.910  10.303  11.312  0.00  0.00    +0.000 A 
ATOM      3  C   UNL     1      50.145  10.702  10.783  0.00  0.00    +0.000 A 
ATOM      4  C   UNL     1      51.223   9.811  10.739  0.00  0.00    +0.000 A 
ATOM      5  C   UNL     1      51.052   8.533  11.287  0.00  0.00    +0.000 A 
ATOM      6  C   UNL     1      49.815   8.132  11.809  0.00  0.00    +0.000 A 
ENDROOT
BRANCH   1   8
ATOM      7  C   UNL     1      47.149   8.792  13.858  0.00  0.00    +0.000 C 
ATOM      8  C   UNL     1      47.346   8.608  12.352  0.00  0.00    +0.000 C 
BRANCH   8   9
ATOM      9  N   UNL     1      47.057   7.234  11.987  0.00  0.00    +0.000 N 
ATOM     10  C   UNL     1      45.834   6.830  11.501  0.00  0.00    +0.000 C 
ATOM     11  O   UNL     1      44.884   7.597  11.351  0.00  0.00    +0.000 OA
ATOM     12  H   UNL     1      47.779   6.524  12.054  0.00  0.00    +0.000 HD
BRANCH  10  13
ATOM     13  C   UNL     1      45.716   5.313  11.216  0.00  0.00    +0.000 C 
ATOM     14  C   UNL     1      45.342   5.157   9.729  0.00  0.00    +0.000 C 
ATOM     15  C   UNL     1      45.154   3.697   9.333  0.00  0.00    +0.000 C 
ATOM     16  C   UNL     1      44.171   3.024  10.273  0.00  0.00    +0.000 C 
ATOM     17  C   UNL     1      44.579   3.225  11.728  0.00  0.00    +0.000 C 
ATOM     18  N   UNL     1      44.685   4.659  12.091  0.00  0.00    +0.000 NA
BRANCH  18  19
ATOM     19  C   UNL     1      45.022   4.785  13.533  0.00  0.00    +0.000 C 
BRANCH  19  20
ATOM     20  C   UNL     1      46.425   4.229  13.844  0.00  0.00    +0.000 C 
BRANCH  20  21
ATOM     21  N   UNL     1      46.958   4.795  15.092  0.00  0.00    +0.000 NA
ATOM     22  H   UNL     1      46.427   5.552  15.520  0.00  0.00    +0.000 HD
BRANCH  21  23
ATOM     23  S   UNL     1      47.552   3.682  16.215  0.00  0.00    +0.000 S 
ATOM     24  C   UNL     1      48.727   4.680  17.113  0.00  0.00    +0.000 C 
ATOM     25  O   UNL     1      46.483   3.312  17.108  0.00  0.00    +0.000 OA
ATOM     26  O   UNL     1      48.301   2.705  15.461  0.00  0.00    +0.000 OA
ENDBRANCH  21  23
ENDBRANCH  20  21
ENDBRANCH  19  20
ENDBRANCH  18  19
ENDBRANCH  10  13
ENDBRANCH   8   9
ENDBRANCH   1   8
BRANCH   4  27
ATOM     27  C   UNL     1      52.549  10.210  10.137  0.00  0.00    +0.000 C 
BRANCH  27  28
ATOM     28  N   UNL     1      52.834   9.472   8.936  0.00  0.00    +0.000 N 
ATOM     29  C   UNL     1      53.934   8.653   8.847  0.00  0.00    +0.000 C 
ATOM     30  O   UNL     1      54.693   8.477   9.795  0.00  0.00    +0.000 OA
ATOM     31  H   UNL     1      52.390   9.792   8.083  0.00  0.00    +0.000 HD
BRANCH  29  32
ATOM     32  C   UNL     1      54.115   7.948   7.572  0.00  0.00    +0.000 A 
ATOM     33  C   UNL     1      54.415   8.664   6.420  0.00  0.00    +0.000 A 
ATOM     34  S   UNL     1      54.646   7.680   5.046  0.00  0.00    +0.000 S 
ATOM     35  C   UNL     1      54.301   6.267   5.929  0.00  0.00    +0.000 A 
ATOM     36  N   UNL     1      54.298   5.048   5.327  0.00  0.00    +0.000 NA
ATOM     37  C   UNL     1      53.993   4.066   6.110  0.00  0.00    +0.000 A 
ATOM     38  N   UNL     1      53.698   4.194   7.442  0.00  0.00    +0.000 N 
ATOM     39  C   UNL     1      53.722   5.401   8.100  0.00  0.00    +0.000 A 
ATOM     40  O   UNL     1      53.510   5.473   9.306  0.00  0.00    +0.000 OA
ATOM     41  C   UNL     1      54.038   6.540   7.260  0.00  0.00    +0.000 A 
ATOM     42  H   UNL     1      53.485   3.384   8.005  0.00  0.00    +0.000 HD
ENDBRANCH  29  32
ENDBRANCH  27  28
ENDBRANCH   4  27
TORSDOF 10
ENDMDL
MODEL 3
REMARK VINA RESULT:    -6.832      1.799      2.059
REMARK INTER + INTRA:         -12.950
REMARK INTER:                 -11.100
REMARK INTRA:                  -1.850
REMARK UNBOUND:                -2.124
REMARK  Name = 
REMARK  12 active torsions:
REMARK  status: ('A' for Active; 'I' for Inactive)
REMARK    1  A    between atoms: C_1  and  C_2
REMARK    2  A    between atoms: C_2  and  N_3
REMARK    3  A    between atoms: C_2  and  C_19
REMARK    4  A    between atoms: C_4  and  C_6
REMARK    5  A    between atoms: N_11  and  C_12
REMARK    6  A    between atoms: C_12  and  C_13
REMARK    7  A    between atoms: C_13  and  N_14
REMARK    8  A    between atoms: N_14  and  S_15
REMARK    9  A    between atoms: S_15  and  C_16
REMARK   10  A    between atoms: C_22  and  C_23
REMARK   11  A    between atoms: C_23  and  N_24
REMARK   12  A    between atoms: C_25  and  C_27
REMARK                            x       y       z     vdW  Elec       q    Type
REMARK                         _______ _______ _______ _____ _____    ______ ____
ROOT
ATOM      1  C   UNL     1      49.946   8.268  14.972  0.00  0.00    +0.000 A 
ATOM      2  C   UNL     1      49.981   7.420  13.850  0.00  0.00    +0.000 A 
ATOM      3  C   UNL     1      48.902   7.347  12.959  0.00  0.00    +0.000 A 
ATOM      4  C   UNL     1      47.762   8.135  13.154  0.00  0.00    +0.000 A 
ATOM      5  C   UNL     1      47.706   8.954  14.289  0.00  0.00    +0.000 A 
ATOM      6  C   UNL     1      48.788   9.031  15.176  0.00  0.00    +0.000 A 
ENDROOT
BRANCH   1   8
ATOM      7  C   UNL     1      52.459   7.797  15.283  0.00  0.00    +0.000 C 
ATOM      8  C   UNL     1      51.164   8.345  15.885  0.00  0.00    +0.000 C 
BRANCH   8   9
ATOM      9  N   UNL     1      50.886   7.671  17.140  0.00  0.00    +0.000 N 
ATOM     10  C   UNL     1      50.510   8.340  18.282  0.00  0.00    +0.000 C 
ATOM     11  O   UNL     1      50.393   9.563  18.337  0.00  0.00    +0.000 OA
ATOM     12  H   UNL     1      50.934   6.658  17.198  0.00  0.00    +0.000 HD
BRANCH  10  13
ATOM     13  C   UNL     1      50.307   7.440  19.526  0.00  0.00    +0.000 C 
ATOM     14  C   UNL     1      51.697   6.918  19.940  0.00  0.00    +0.000 C 
ATOM     15  C   UNL     1      51.626   5.979  21.139  0.00  0.00    +0.000 C 
ATOM     16  C   UNL     1      50.623   4.871  20.874  0.00  0.00    +0.000 C 
ATOM     17  C   UNL     1      49.274   5.442  20.451  0.00  0.00    +0.000 C 
ATOM     18  N   UNL     1      49.377   6.295  19.243  0.00  0.00    +0.000 NA
BRANCH  18  19
ATOM     19  C   UNL     1      48.024   6.767  18.848  0.00  0.00    +0.000 C 
BRANCH  19  20
ATOM     20  C   UNL     1      47.126   5.603  18.382  0.00  0.00    +0.000 C 
BRANCH  20  21
ATOM     21  N   UNL     1      47.482   5.166  17.025  0.00  0.00    +0.000 NA
ATOM     22  H   UNL     1      48.254   5.651  16.570  0.00  0.00    +0.000 HD
BRANCH  21  23
ATOM     23  S   UNL     1      47.503   3.496  16.767  0.00  0.00    +0.000 S 
ATOM     24  C   UNL     1      49.044   3.039  17.541  0.00  0.00    +0.000 C 
ATOM     25  O   UNL     1      46.421   2.902  17.508  0.00  0.00    +0.000 OA
ATOM     26  O   UNL     1      47.661   3.307  15.345  0.00  0.00    +0.000 OA
ENDBRANCH  21  23
ENDBRANCH  20  21
ENDBRANCH  19  20
ENDBRANCH  18  19
ENDBRANCH  10  13
ENDBRANCH   8   9
ENDBRANCH   1   8
BRANCH   4  27
ATOM     27  C   UNL     1      46.606   8.100  12.183  0.00  0.00    +0.000 C 
BRANCH  27  28
ATOM     28  N   UNL     1      46.159   6.757  11.930  0.00  0.00    +0.000 N 
ATOM     29  C   UNL     1      44.860   6.495  11.567  0.00  0.00    +0.000 C 
ATOM     30  O   UNL     1      44.038   7.390  11.397  0.00  0.00    +0.000 OA
ATOM     31  H   UNL     1      46.725   6.005  12.307  0.00  0.00    +0.000 HD
BRANCH  29  32
ATOM     32  C   UNL     1      44.526   5.085  11.330  0.00  0.00    +0.000 A 
ATOM     33  C   UNL     1      43.773   4.384  12.263  0.00  0.00    +0.000 A 
ATOM     34  S   UNL     1      43.433   2.778  11.799  0.00  0.00    +0.000 S 
ATOM     35  C   UNL     1      44.324   2.945  10.360  0.00  0.00    +0.000 A 
ATOM     36  N   UNL     1      44.461   1.905   9.495  0.00  0.00    +0.000 NA
ATOM     37  C   UNL     1      45.185   2.163   8.458  0.00  0.00    +0.000 A 
ATOM     38  N   UNL     1      45.780   3.372   8.203  0.00  0.00    +0.000 N 
ATOM     39  C   UNL     1      45.641   4.461   9.030  0.00  0.00    +0.000 A 
ATOM     40  O   UNL     1      46.138   5.546   8.743  0.00  0.00    +0.000 OA
ATOM     41  C   UNL     1      44.853   4.217  10.223  0.00  0.00    +0.000 A 
ATOM     42  H   UNL     1      46.320   3.516   7.363  0.00  0.00    +0.000 HD
ENDBRANCH  29  32
ENDBRANCH  27  28
ENDBRANCH   4  27
TORSDOF 10
ENDMDL
MODEL 4
REMARK VINA RESULT:    -6.356      2.945      5.340
REMARK INTER + INTRA:         -12.195
REMARK INTER:                 -10.100
REMARK INTRA:                  -2.095
REMARK UNBOUND:                -2.124
REMARK  Name = 
REMARK  12 active torsions:
REMARK  status: ('A' for Active; 'I' for Inactive)
REMARK    1  A    between atoms: C_1  and  C_2
REMARK    2  A    between atoms: C_2  and  N_3
REMARK    3  A    between atoms: C_2  and  C_19
REMARK    4  A    between atoms: C_4  and  C_6
REMARK    5  A    between atoms: N_11  and  C_12
REMARK    6  A    between atoms: C_12  and  C_13
REMARK    7  A    between atoms: C_13  and  N_14
REMARK    8  A    between atoms: N_14  and  S_15
REMARK    9  A    between atoms: S_15  and  C_16
REMARK   10  A    between atoms: C_22  and  C_23
REMARK   11  A    between atoms: C_23  and  N_24
REMARK   12  A    between atoms: C_25  and  C_27
REMARK                            x       y       z     vdW  Elec       q    Type
REMARK                         _______ _______ _______ _____ _____    ______ ____
ROOT
ATOM      1  C   UNL     1      51.424   3.713  17.752  0.00  0.00    +0.000 A 
ATOM      2  C   UNL     1      50.868   2.484  17.353  0.00  0.00    +0.000 A 
ATOM      3  C   UNL     1      49.498   2.358  17.086  0.00  0.00    +0.000 A 
ATOM      4  C   UNL     1      48.646   3.464  17.192  0.00  0.00    +0.000 A 
ATOM      5  C   UNL     1      49.188   4.681  17.624  0.00  0.00    +0.000 A 
ATOM      6  C   UNL     1      50.559   4.808  17.885  0.00  0.00    +0.000 A 
ENDROOT
BRANCH   1   8
ATOM      7  C   UNL     1      53.459   2.939  19.128  0.00  0.00    +0.000 C 
ATOM      8  C   UNL     1      52.927   3.808  17.986  0.00  0.00    +0.000 C 
BRANCH   8   9
ATOM      9  N   UNL     1      53.308   5.191  18.207  0.00  0.00    +0.000 N 
ATOM     10  C   UNL     1      54.592   5.652  18.023  0.00  0.00    +0.000 C 
ATOM     11  O   UNL     1      55.522   4.928  17.670  0.00  0.00    +0.000 OA
ATOM     12  H   UNL     1      52.611   5.876  18.482  0.00  0.00    +0.000 HD
BRANCH  10  13
ATOM     13  C   UNL     1      54.799   7.149  18.359  0.00  0.00    +0.000 C 
ATOM     14  C   UNL     1      54.192   7.390  19.755  0.00  0.00    +0.000 C 
ATOM     15  C   UNL     1      54.297   8.848  20.186  0.00  0.00    +0.000 C 
ATOM     16  C   UNL     1      53.714   9.751  19.115  0.00  0.00    +0.000 C 
ATOM     17  C   UNL     1      54.335   9.459  17.753  0.00  0.00    +0.000 C 
ATOM     18  N   UNL     1      54.153   8.046  17.342  0.00  0.00    +0.000 NA
BRANCH  18  19
ATOM     19  C   UNL     1      54.722   7.843  15.985  0.00  0.00    +0.000 C 
BRANCH  19  20
ATOM     20  C   UNL     1      53.620   7.717  14.914  0.00  0.00    +0.000 C 
BRANCH  20  21
ATOM     21  N   UNL     1      52.443   7.013  15.442  0.00  0.00    +0.000 NA
ATOM     22  H   UNL     1      52.524   6.611  16.375  0.00  0.00    +0.000 HD
BRANCH  21  23
ATOM     23  S   UNL     1      50.951   7.755  15.165  0.00  0.00    +0.000 S 
ATOM     24  C   UNL     1      50.652   8.543  16.738  0.00  0.00    +0.000 C 
ATOM     25  O   UNL     1      51.122   8.776  14.164  0.00  0.00    +0.000 OA
ATOM     26  O   UNL     1      49.987   6.689  15.026  0.00  0.00    +0.000 OA
ENDBRANCH  21  23
ENDBRANCH  20  21
ENDBRANCH  19  20
ENDBRANCH  18  19
ENDBRANCH  10  13
ENDBRANCH   8   9
ENDBRANCH   1   8
BRANCH   4  27
ATOM     27  C   UNL     1      47.175   3.357  16.870  0.00  0.00    +0.000 C 
BRANCH  27  28
ATOM     28  N   UNL     1      46.763   4.351  15.915  0.00  0.00    +0.000 N 
ATOM     29  C   UNL     1      46.815   4.106  14.564  0.00  0.00    +0.000 C 
ATOM     30  O   UNL     1      47.170   3.021  14.112  0.00  0.00    +0.000 OA
ATOM     31  H   UNL     1      46.720   5.310  16.239  0.00  0.00    +0.000 HD
BRANCH  29  32
ATOM     32  C   UNL     1      46.361   5.195  13.690  0.00  0.00    +0.000 A 
ATOM     33  C   UNL     1      47.180   6.294  13.470  0.00  0.00    +0.000 A 
ATOM     34  S   UNL     1      46.517   7.434  12.387  0.00  0.00    +0.000 S 
ATOM     35  C   UNL     1      45.090   6.525  12.216  0.00  0.00    +0.000 A 
ATOM     36  N   UNL     1      44.070   6.962  11.429  0.00  0.00    +0.000 NA
ATOM     37  C   UNL     1      43.037   6.187  11.413  0.00  0.00    +0.000 A 
ATOM     38  N   UNL     1      42.935   5.009  12.107  0.00  0.00    +0.000 N 
ATOM     39  C   UNL     1      43.952   4.510  12.884  0.00  0.00    +0.000 A 
ATOM     40  O   UNL     1      43.851   3.423  13.446  0.00  0.00    +0.000 OA
ATOM     41  C   UNL     1      45.129   5.355  12.955  0.00  0.00    +0.000 A 
ATOM     42  H   UNL     1      42.106   4.438  12.037  0.00  0.00    +0.000 HD
ENDBRANCH  29  32
ENDBRANCH  27  28
ENDBRANCH   4  27
TORSDOF 10
ENDMDL
MODEL 5
REMARK VINA RESULT:    -6.354      1.967      8.636
REMARK INTER + INTRA:         -12.192
REMARK INTER:                 -10.094
REMARK INTRA:                  -2.099
REMARK UNBOUND:                -2.124
REMARK  Name = 
REMARK  12 active torsions:
REMARK  status: ('A' for Active; 'I' for Inactive)
REMARK    1  A    between atoms: C_1  and  C_2
REMARK    2  A    between atoms: C_2  and  N_3
REMARK    3  A    between atoms: C_2  and  C_19
REMARK    4  A    between atoms: C_4  and  C_6
REMARK    5  A    between atoms: N_11  and  C_12
REMARK    6  A    between atoms: C_12  and  C_13
REMARK    7  A    between atoms: C_13  and  N_14
REMARK    8  A    between atoms: N_14  and  S_15
REMARK    9  A    between atoms: S_15  and  C_16
REMARK   10  A    between atoms: C_22  and  C_23
REMARK   11  A    between atoms: C_23  and  N_24
REMARK   12  A    between atoms: C_25  and  C_27
REMARK                            x       y       z     vdW  Elec       q    Type
REMARK                         _______ _______ _______ _____ _____    ______ ____
ROOT
ATOM      1  C   UNL     1      48.444   8.437  12.524  0.00  0.00    +0.000 A 
ATOM      2  C   UNL     1      49.423   8.076  11.580  0.00  0.00    +0.000 A 
ATOM      3  C   UNL     1      50.789   8.150  11.884  0.00  0.00    +0.000 A 
ATOM      4  C   UNL     1      51.217   8.571  13.149  0.00  0.00    +0.000 A 
ATOM      5  C   UNL     1      50.248   8.967  14.080  0.00  0.00    +0.000 A 
ATOM      6  C   UNL     1      48.882   8.886  13.778  0.00  0.00    +0.000 A 
ENDROOT
BRANCH   1   8
ATOM      7  C   UNL     1      45.992   8.628  13.288  0.00  0.00    +0.000 C 
ATOM      8  C   UNL     1      46.971   8.296  12.160  0.00  0.00    +0.000 C 
BRANCH   8   9
ATOM      9  N   UNL     1      46.709   6.957  11.665  0.00  0.00    +0.000 N 
ATOM     10  C   UNL     1      45.535   6.607  11.038  0.00  0.00    +0.000 C 
ATOM     11  O   UNL     1      44.607   7.396  10.861  0.00  0.00    +0.000 OA
ATOM     12  H   UNL     1      47.418   6.235  11.744  0.00  0.00    +0.000 HD
BRANCH  10  13
ATOM     13  C   UNL     1      45.435   5.117  10.629  0.00  0.00    +0.000 C 
ATOM     14  C   UNL     1      45.711   5.043   9.114  0.00  0.00    +0.000 C 
ATOM     15  C   UNL     1      45.599   3.621   8.577  0.00  0.00    +0.000 C 
ATOM     16  C   UNL     1      44.265   3.017   8.974  0.00  0.00    +0.000 C 
ATOM     17  C   UNL     1      44.036   3.134  10.477  0.00  0.00    +0.000 C 
ATOM     18  N   UNL     1      44.086   4.539  10.947  0.00  0.00    +0.000 NA
BRANCH  18  19
ATOM     19  C   UNL     1      43.792   4.589  12.403  0.00  0.00    +0.000 C 
BRANCH  19  20
ATOM     20  C   UNL     1      44.874   3.866  13.231  0.00  0.00    +0.000 C 
BRANCH  20  21
ATOM     21  N   UNL     1      45.614   4.810  14.080  0.00  0.00    +0.000 NA
ATOM     22  H   UNL     1      45.104   5.232  14.856  0.00  0.00    +0.000 HD
BRANCH  21  23
ATOM     23  S   UNL     1      47.190   4.361  14.487  0.00  0.00    +0.000 S 
ATOM     24  C   UNL     1      47.104   4.347  16.270  0.00  0.00    +0.000 C 
ATOM     25  O   UNL     1      47.420   3.015  14.026  0.00  0.00    +0.000 OA
ATOM     26  O   UNL     1      48.039   5.464  14.104  0.00  0.00    +0.000 OA
ENDBRANCH  21  23
ENDBRANCH  20  21
ENDBRANCH  19  20
ENDBRANCH  18  19
ENDBRANCH  10  13
ENDBRANCH   8   9
ENDBRANCH   1   8
BRANCH   4  27
ATOM     27  C   UNL     1      52.682   8.618  13.508  0.00  0.00    +0.000 C 
BRANCH  27  28
ATOM     28  N   UNL     1      53.051   7.547  14.394  0.00  0.00    +0.000 N 
ATOM     29  C   UNL     1      53.228   7.764  15.739  0.00  0.00    +0.000 C 
ATOM     30  O   UNL     1      53.037   8.862  16.253  0.00  0.00    +0.000 OA
ATOM     31  H   UNL     1      53.459   6.721  13.971  0.00  0.00    +0.000 HD
BRANCH  29  32
ATOM     32  C   UNL     1      53.598   6.592  16.541  0.00  0.00    +0.000 A 
ATOM     33  C   UNL     1      54.927   6.373  16.878  0.00  0.00    +0.000 A 
ATOM     34  S   UNL     1      55.167   4.997  17.858  0.00  0.00    +0.000 S 
ATOM     35  C   UNL     1      53.510   4.614  17.822  0.00  0.00    +0.000 A 
ATOM     36  N   UNL     1      53.031   3.509  18.455  0.00  0.00    +0.000 NA
ATOM     37  C   UNL     1      51.760   3.325  18.323  0.00  0.00    +0.000 A 
ATOM     38  N   UNL     1      50.922   4.152  17.620  0.00  0.00    +0.000 N 
ATOM     39  C   UNL     1      51.353   5.296  16.994  0.00  0.00    +0.000 A 
ATOM     40  O   UNL     1      50.567   6.044  16.422  0.00  0.00    +0.000 OA
ATOM     41  C   UNL     1      52.780   5.537  17.094  0.00  0.00    +0.000 A 
ATOM     42  H   UNL     1      49.932   3.962  17.569  0.00  0.00    +0.000 HD
ENDBRANCH  29  32
ENDBRANCH  27  28
ENDBRANCH   4  27
TORSDOF 10
ENDMDL
MODEL 6
REMARK VINA RESULT:    -6.337      1.585      2.182
REMARK INTER + INTRA:         -12.166
REMARK INTER:                 -10.429
REMARK INTRA:                  -1.737
REMARK UNBOUND:                -2.124
REMARK  Name = 
REMARK  12 active torsions:
REMARK  status: ('A' for Active; 'I' for Inactive)
REMARK    1  A    between atoms: C_1  and  C_2
REMARK    2  A    between atoms: C_2  and  N_3
REMARK    3  A    between atoms: C_2  and  C_19
REMARK    4  A    between atoms: C_4  and  C_6
REMARK    5  A    between atoms: N_11  and  C_12
REMARK    6  A    between atoms: C_12  and  C_13
REMARK    7  A    between atoms: C_13  and  N_14
REMARK    8  A    between atoms: N_14  and  S_15
REMARK    9  A    between atoms: S_15  and  C_16
REMARK   10  A    between atoms: C_22  and  C_23
REMARK   11  A    between atoms: C_23  and  N_24
REMARK   12  A    between atoms: C_25  and  C_27
REMARK                            x       y       z     vdW  Elec       q    Type
REMARK                         _______ _______ _______ _____ _____    ______ ____
ROOT
ATOM      1  C   UNL     1      50.212   8.969  12.086  0.00  0.00    +0.000 A 
ATOM      2  C   UNL     1      49.282  10.019  12.204  0.00  0.00    +0.000 A 
ATOM      3  C   UNL     1      47.902   9.775  12.180  0.00  0.00    +0.000 A 
ATOM      4  C   UNL     1      47.411   8.470  12.056  0.00  0.00    +0.000 A 
ATOM      5  C   UNL     1      48.331   7.425  11.902  0.00  0.00    +0.000 A 
ATOM      6  C   UNL     1      49.711   7.669  11.932  0.00  0.00    +0.000 A 
ENDROOT
BRANCH   1   8
ATOM      7  C   UNL     1      52.493   8.970  10.892  0.00  0.00    +0.000 C 
ATOM      8  C   UNL     1      51.701   9.282  12.163  0.00  0.00    +0.000 C 
BRANCH   8   9
ATOM      9  N   UNL     1      52.296   8.589  13.290  0.00  0.00    +0.000 N 
ATOM     10  C   UNL     1      52.309   9.107  14.566  0.00  0.00    +0.000 C 
ATOM     11  O   UNL     1      51.831  10.204  14.850  0.00  0.00    +0.000 OA
ATOM     12  H   UNL     1      52.702   7.666  13.168  0.00  0.00    +0.000 HD
BRANCH  10  13
ATOM     13  C   UNL     1      53.035   8.231  15.616  0.00  0.00    +0.000 C 
ATOM     14  C   UNL     1      54.498   8.084  15.152  0.00  0.00    +0.000 C 
ATOM     15  C   UNL     1      55.313   7.201  16.089  0.00  0.00    +0.000 C 
ATOM     16  C   UNL     1      54.612   5.871  16.294  0.00  0.00    +0.000 C 
ATOM     17  C   UNL     1      53.167   6.075  16.734  0.00  0.00    +0.000 C 
ATOM     18  N   UNL     1      52.391   6.883  15.762  0.00  0.00    +0.000 NA
BRANCH  18  19
ATOM     19  C   UNL     1      50.980   6.990  16.217  0.00  0.00    +0.000 C 
BRANCH  19  20
ATOM     20  C   UNL     1      50.555   5.772  17.061  0.00  0.00    +0.000 C 
BRANCH  20  21
ATOM     21  N   UNL     1      49.361   5.126  16.499  0.00  0.00    +0.000 NA
ATOM     22  H   UNL     1      49.277   5.109  15.484  0.00  0.00    +0.000 HD
BRANCH  21  23
ATOM     23  S   UNL     1      48.893   3.675  17.229  0.00  0.00    +0.000 S 
ATOM     24  C   UNL     1      47.120   3.872  17.299  0.00  0.00    +0.000 C 
ATOM     25  O   UNL     1      49.201   2.589  16.335  0.00  0.00    +0.000 OA
ATOM     26  O   UNL     1      49.387   3.725  18.584  0.00  0.00    +0.000 OA
ENDBRANCH  21  23
ENDBRANCH  20  21
ENDBRANCH  19  20
ENDBRANCH  18  19
ENDBRANCH  10  13
ENDBRANCH   8   9
ENDBRANCH   1   8
BRANCH   4  27
ATOM     27  C   UNL     1      45.929   8.183  12.070  0.00  0.00    +0.000 C 
BRANCH  27  28
ATOM     28  N   UNL     1      45.649   6.800  11.796  0.00  0.00    +0.000 N 
ATOM     29  C   UNL     1      44.389   6.385  11.436  0.00  0.00    +0.000 C 
ATOM     30  O   UNL     1      43.461   7.175  11.287  0.00  0.00    +0.000 OA
ATOM     31  H   UNL     1      46.306   6.118  12.156  0.00  0.00    +0.000 HD
BRANCH  29  32
ATOM     32  C   UNL     1      44.229   4.949  11.175  0.00  0.00    +0.000 A 
ATOM     33  C   UNL     1      43.480   4.167  12.044  0.00  0.00    +0.000 A 
ATOM     34  S   UNL     1      43.354   2.536  11.558  0.00  0.00    +0.000 S 
ATOM     35  C   UNL     1      44.341   2.806  10.199  0.00  0.00    +0.000 A 
ATOM     36  N   UNL     1      44.661   1.791   9.353  0.00  0.00    +0.000 NA
ATOM     37  C   UNL     1      45.438   2.132   8.379  0.00  0.00    +0.000 A 
ATOM     38  N   UNL     1      45.919   3.399   8.172  0.00  0.00    +0.000 N 
ATOM     39  C   UNL     1      45.594   4.462   8.980  0.00  0.00    +0.000 A 
ATOM     40  O   UNL     1      45.995   5.595   8.733  0.00  0.00    +0.000 OA
ATOM     41  C   UNL     1      44.739   4.128  10.103  0.00  0.00    +0.000 A 
ATOM     42  H   UNL     1      46.510   3.605   7.380  0.00  0.00    +0.000 HD
ENDBRANCH  29  32
ENDBRANCH  27  28
ENDBRANCH   4  27
TORSDOF 10
ENDMDL
MODEL 7
REMARK VINA RESULT:    -6.301      3.147      5.928
REMARK INTER + INTRA:         -12.108
REMARK INTER:                  -9.077
REMARK INTRA:                  -3.032
REMARK UNBOUND:                -2.124
REMARK  Name = 
REMARK  12 active torsions:
REMARK  status: ('A' for Active; 'I' for Inactive)
REMARK    1  A    between atoms: C_1  and  C_2
REMARK    2  A    between atoms: C_2  and  N_3
REMARK    3  A    between atoms: C_2  and  C_19
REMARK    4  A    between atoms: C_4  and  C_6
REMARK    5  A    between atoms: N_11  and  C_12
REMARK    6  A    between atoms: C_12  and  C_13
REMARK    7  A    between atoms: C_13  and  N_14
REMARK    8  A    between atoms: N_14  and  S_15
REMARK    9  A    between atoms: S_15  and  C_16
REMARK   10  A    between atoms: C_22  and  C_23
REMARK   11  A    between atoms: C_23  and  N_24
REMARK   12  A    between atoms: C_25  and  C_27
REMARK                            x       y       z     vdW  Elec       q    Type
REMARK                         _______ _______ _______ _____ _____    ______ ____
ROOT
ATOM      1  C   UNL     1      51.569   3.675  17.755  0.00  0.00    +0.000 A 
ATOM      2  C   UNL     1      51.003   2.441  17.383  0.00  0.00    +0.000 A 
ATOM      3  C   UNL     1      49.632   2.320  17.119  0.00  0.00    +0.000 A 
ATOM      4  C   UNL     1      48.789   3.435  17.200  0.00  0.00    +0.000 A 
ATOM      5  C   UNL     1      49.341   4.657  17.605  0.00  0.00    +0.000 A 
ATOM      6  C   UNL     1      50.712   4.779  17.863  0.00  0.00    +0.000 A 
ENDROOT
BRANCH   1   8
ATOM      7  C   UNL     1      53.567   3.103  19.276  0.00  0.00    +0.000 C 
ATOM      8  C   UNL     1      53.072   3.764  17.988  0.00  0.00    +0.000 C 
BRANCH   8   9
ATOM      9  N   UNL     1      53.498   5.150  17.957  0.00  0.00    +0.000 N 
ATOM     10  C   UNL     1      54.495   5.609  17.126  0.00  0.00    +0.000 C 
ATOM     11  O   UNL     1      55.115   4.879  16.354  0.00  0.00    +0.000 OA
ATOM     12  H   UNL     1      53.038   5.840  18.542  0.00  0.00    +0.000 HD
BRANCH  10  13
ATOM     13  C   UNL     1      54.831   7.112  17.281  0.00  0.00    +0.000 C 
ATOM     14  C   UNL     1      55.040   7.378  18.785  0.00  0.00    +0.000 C 
ATOM     15  C   UNL     1      55.338   8.845  19.075  0.00  0.00    +0.000 C 
ATOM     16  C   UNL     1      54.271   9.727  18.453  0.00  0.00    +0.000 C 
ATOM     17  C   UNL     1      54.094   9.409  16.972  0.00  0.00    +0.000 C 
ATOM     18  N   UNL     1      53.739   7.989  16.738  0.00  0.00    +0.000 NA
BRANCH  18  19
ATOM     19  C   UNL     1      53.518   7.762  15.286  0.00  0.00    +0.000 C 
BRANCH  19  20
ATOM     20  C   UNL     1      52.252   8.482  14.780  0.00  0.00    +0.000 C 
BRANCH  20  21
ATOM     21  N   UNL     1      51.697   7.812  13.595  0.00  0.00    +0.000 NA
ATOM     22  H   UNL     1      50.749   7.445  13.672  0.00  0.00    +0.000 HD
BRANCH  21  23
ATOM     23  S   UNL     1      52.000   8.562  12.112  0.00  0.00    +0.000 S 
ATOM     24  C   UNL     1      51.859  10.285  12.552  0.00  0.00    +0.000 C 
ATOM     25  O   UNL     1      53.363   8.293  11.729  0.00  0.00    +0.000 OA
ATOM     26  O   UNL     1      50.881   8.240  11.258  0.00  0.00    +0.000 OA
ENDBRANCH  21  23
ENDBRANCH  20  21
ENDBRANCH  19  20
ENDBRANCH  18  19
ENDBRANCH  10  13
ENDBRANCH   8   9
ENDBRANCH   1   8
BRANCH   4  27
ATOM     27  C   UNL     1      47.317   3.332  16.879  0.00  0.00    +0.000 C 
BRANCH  27  28
ATOM     28  N   UNL     1      46.901   4.345  15.947  0.00  0.00    +0.000 N 
ATOM     29  C   UNL     1      46.934   4.124  14.592  0.00  0.00    +0.000 C 
ATOM     30  O   UNL     1      47.274   3.045  14.116  0.00  0.00    +0.000 OA
ATOM     31  H   UNL     1      46.869   5.299  16.289  0.00  0.00    +0.000 HD
BRANCH  29  32
ATOM     32  C   UNL     1      46.477   5.231  13.743  0.00  0.00    +0.000 A 
ATOM     33  C   UNL     1      45.274   5.128  13.057  0.00  0.00    +0.000 A 
ATOM     34  S   UNL     1      44.874   6.526  12.165  0.00  0.00    +0.000 S 
ATOM     35  C   UNL     1      46.319   7.299  12.621  0.00  0.00    +0.000 A 
ATOM     36  N   UNL     1      46.621   8.545  12.168  0.00  0.00    +0.000 NA
ATOM     37  C   UNL     1      47.761   8.999  12.571  0.00  0.00    +0.000 A 
ATOM     38  N   UNL     1      48.624   8.321  13.393  0.00  0.00    +0.000 N 
ATOM     39  C   UNL     1      48.346   7.076  13.902  0.00  0.00    +0.000 A 
ATOM     40  O   UNL     1      49.114   6.521  14.682  0.00  0.00    +0.000 OA
ATOM     41  C   UNL     1      47.085   6.511  13.462  0.00  0.00    +0.000 A 
ATOM     42  H   UNL     1      49.494   8.739  13.687  0.00  0.00    +0.000 HD
ENDBRANCH  29  32
ENDBRANCH  27  28
ENDBRANCH   4  27
TORSDOF 10
ENDMDL
MODEL 8
REMARK VINA RESULT:    -6.260      2.499      8.597
REMARK INTER + INTRA:         -12.044
REMARK INTER:                 -11.227
REMARK INTRA:                  -0.817
REMARK UNBOUND:                -2.124
REMARK  Name = 
REMARK  12 active torsions:
REMARK  status: ('A' for Active; 'I' for Inactive)
REMARK    1  A    between atoms: C_1  and  C_2
REMARK    2  A    between atoms: C_2  and  N_3
REMARK    3  A    between atoms: C_2  and  C_19
REMARK    4  A    between atoms: C_4  and  C_6
REMARK    5  A    between atoms: N_11  and  C_12
REMARK    6  A    between atoms: C_12  and  C_13
REMARK    7  A    between atoms: C_13  and  N_14
REMARK    8  A    between atoms: N_14  and  S_15
REMARK    9  A    between atoms: S_15  and  C_16
REMARK   10  A    between atoms: C_22  and  C_23
REMARK   11  A    between atoms: C_23  and  N_24
REMARK   12  A    between atoms: C_25  and  C_27
REMARK                            x       y       z     vdW  Elec       q    Type
REMARK                         _______ _______ _______ _____ _____    ______ ____
ROOT
ATOM      1  C   UNL     1      47.090   9.068  12.399  0.00  0.00    +0.000 A 
ATOM      2  C   UNL     1      48.375   9.162  11.834  0.00  0.00    +0.000 A 
ATOM      3  C   UNL     1      49.527   8.974  12.610  0.00  0.00    +0.000 A 
ATOM      4  C   UNL     1      49.426   8.667  13.972  0.00  0.00    +0.000 A 
ATOM      5  C   UNL     1      48.151   8.608  14.547  0.00  0.00    +0.000 A 
ATOM      6  C   UNL     1      46.999   8.790  13.770  0.00  0.00    +0.000 A 
ENDROOT
BRANCH   1   8
ATOM      7  C   UNL     1      45.025  10.480  11.788  0.00  0.00    +0.000 C 
ATOM      8  C   UNL     1      45.869   9.236  11.503  0.00  0.00    +0.000 C 
BRANCH   8   9
ATOM      9  N   UNL     1      45.033   8.053  11.575  0.00  0.00    +0.000 N 
ATOM     10  C   UNL     1      45.508   6.784  11.330  0.00  0.00    +0.000 C 
ATOM     11  O   UNL     1      46.675   6.553  11.015  0.00  0.00    +0.000 OA
ATOM     12  H   UNL     1      44.058   8.130  11.846  0.00  0.00    +0.000 HD
BRANCH  10  13
ATOM     13  C   UNL     1      44.444   5.663  11.413  0.00  0.00    +0.000 C 
ATOM     14  C   UNL     1      44.299   5.282  12.899  0.00  0.00    +0.000 C 
ATOM     15  C   UNL     1      43.301   4.149  13.109  0.00  0.00    +0.000 C 
ATOM     16  C   UNL     1      43.655   2.971  12.220  0.00  0.00    +0.000 C 
ATOM     17  C   UNL     1      43.803   3.408  10.767  0.00  0.00    +0.000 C 
ATOM     18  N   UNL     1      44.830   4.463  10.597  0.00  0.00    +0.000 NA
BRANCH  18  19
ATOM     19  C   UNL     1      44.971   4.796   9.155  0.00  0.00    +0.000 C 
BRANCH  19  20
ATOM     20  C   UNL     1      45.337   3.557   8.314  0.00  0.00    +0.000 C 
BRANCH  20  21
ATOM     21  N   UNL     1      46.451   3.845   7.399  0.00  0.00    +0.000 NA
ATOM     22  H   UNL     1      47.142   4.525   7.711  0.00  0.00    +0.000 HD
BRANCH  21  23
ATOM     23  S   UNL     1      47.135   2.509   6.624  0.00  0.00    +0.000 S 
ATOM     24  C   UNL     1      46.602   1.175   7.683  0.00  0.00    +0.000 C 
ATOM     25  O   UNL     1      46.511   2.352   5.336  0.00  0.00    +0.000 OA
ATOM     26  O   UNL     1      48.565   2.639   6.779  0.00  0.00    +0.000 OA
ENDBRANCH  21  23
ENDBRANCH  20  21
ENDBRANCH  19  20
ENDBRANCH  18  19
ENDBRANCH  10  13
ENDBRANCH   8   9
ENDBRANCH   1   8
BRANCH   4  27
ATOM     27  C   UNL     1      50.654   8.420  14.815  0.00  0.00    +0.000 C 
BRANCH  27  28
ATOM     28  N   UNL     1      50.444   7.367  15.771  0.00  0.00    +0.000 N 
ATOM     29  C   UNL     1      50.162   7.644  17.087  0.00  0.00    +0.000 C 
ATOM     30  O   UNL     1      50.030   8.793  17.497  0.00  0.00    +0.000 OA
ATOM     31  H   UNL     1      50.796   6.448  15.527  0.00  0.00    +0.000 HD
BRANCH  29  32
ATOM     32  C   UNL     1      49.962   6.484  17.965  0.00  0.00    +0.000 A 
ATOM     33  C   UNL     1      50.579   6.441  19.208  0.00  0.00    +0.000 A 
ATOM     34  S   UNL     1      50.192   5.049  20.115  0.00  0.00    +0.000 S 
ATOM     35  C   UNL     1      49.229   4.429  18.858  0.00  0.00    +0.000 A 
ATOM     36  N   UNL     1      48.610   3.224  18.978  0.00  0.00    +0.000 NA
ATOM     37  C   UNL     1      47.934   2.864  17.938  0.00  0.00    +0.000 A 
ATOM     38  N   UNL     1      47.814   3.605  16.791  0.00  0.00    +0.000 N 
ATOM     39  C   UNL     1      48.392   4.842  16.638  0.00  0.00    +0.000 A 
ATOM     40  O   UNL     1      48.217   5.506  15.620  0.00  0.00    +0.000 OA
ATOM     41  C   UNL     1      49.182   5.284  17.771  0.00  0.00    +0.000 A 
ATOM     42  H   UNL     1      47.254   3.276  16.019  0.00  0.00    +0.000 HD
ENDBRANCH  29  32
ENDBRANCH  27  28
ENDBRANCH   4  27
TORSDOF 10
ENDMDL
MODEL 9
REMARK VINA RESULT:    -6.239      2.368      3.160
REMARK INTER + INTRA:         -12.011
REMARK INTER:                  -9.988
REMARK INTRA:                  -2.023
REMARK UNBOUND:                -2.124
REMARK  Name = 
REMARK  12 active torsions:
REMARK  status: ('A' for Active; 'I' for Inactive)
REMARK    1  A    between atoms: C_1  and  C_2
REMARK    2  A    between atoms: C_2  and  N_3
REMARK    3  A    between atoms: C_2  and  C_19
REMARK    4  A    between atoms: C_4  and  C_6
REMARK    5  A    between atoms: N_11  and  C_12
REMARK    6  A    between atoms: C_12  and  C_13
REMARK    7  A    between atoms: C_13  and  N_14
REMARK    8  A    between atoms: N_14  and  S_15
REMARK    9  A    between atoms: S_15  and  C_16
REMARK   10  A    between atoms: C_22  and  C_23
REMARK   11  A    between atoms: C_23  and  N_24
REMARK   12  A    between atoms: C_25  and  C_27
REMARK                            x       y       z     vdW  Elec       q    Type
REMARK                         _______ _______ _______ _____ _____    ______ ____
ROOT
ATOM      1  C   UNL     1      50.879   8.373  17.483  0.00  0.00    +0.000 A 
ATOM      2  C   UNL     1      51.345   8.364  16.156  0.00  0.00    +0.000 A 
ATOM      3  C   UNL     1      50.482   8.607  15.079  0.00  0.00    +0.000 A 
ATOM      4  C   UNL     1      49.128   8.886  15.300  0.00  0.00    +0.000 A 
ATOM      5  C   UNL     1      48.651   8.861  16.617  0.00  0.00    +0.000 A 
ATOM      6  C   UNL     1      49.516   8.624  17.693  0.00  0.00    +0.000 A 
ENDROOT
BRANCH   1   8
ATOM      7  C   UNL     1      53.150   8.977  18.537  0.00  0.00    +0.000 C 
ATOM      8  C   UNL     1      51.867   8.147  18.621  0.00  0.00    +0.000 C 
BRANCH   8   9
ATOM      9  N   UNL     1      52.203   6.739  18.714  0.00  0.00    +0.000 N 
ATOM     10  C   UNL     1      51.695   5.911  19.689  0.00  0.00    +0.000 C 
ATOM     11  O   UNL     1      50.928   6.300  20.568  0.00  0.00    +0.000 OA
ATOM     12  H   UNL     1      52.814   6.312  18.025  0.00  0.00    +0.000 HD
BRANCH  10  13
ATOM     13  C   UNL     1      52.216   4.453  19.641  0.00  0.00    +0.000 C 
ATOM     14  C   UNL     1      53.544   4.420  20.422  0.00  0.00    +0.000 C 
ATOM     15  C   UNL     1      54.184   3.036  20.412  0.00  0.00    +0.000 C 
ATOM     16  C   UNL     1      54.314   2.532  18.986  0.00  0.00    +0.000 C 
ATOM     17  C   UNL     1      52.978   2.605  18.255  0.00  0.00    +0.000 C 
ATOM     18  N   UNL     1      52.423   3.980  18.230  0.00  0.00    +0.000 NA
BRANCH  18  19
ATOM     19  C   UNL     1      51.158   3.993  17.451  0.00  0.00    +0.000 C 
BRANCH  19  20
ATOM     20  C   UNL     1      50.356   2.689  17.638  0.00  0.00    +0.000 C 
BRANCH  20  21
ATOM     21  N   UNL     1      48.981   2.968  18.077  0.00  0.00    +0.000 NA
ATOM     22  H   UNL     1      48.868   3.577  18.886  0.00  0.00    +0.000 HD
BRANCH  21  23
ATOM     23  S   UNL     1      47.862   3.279  16.850  0.00  0.00    +0.000 S 
ATOM     24  C   UNL     1      48.009   5.049  16.677  0.00  0.00    +0.000 C 
ATOM     25  O   UNL     1      48.324   2.657  15.635  0.00  0.00    +0.000 OA
ATOM     26  O   UNL     1      46.560   3.006  17.410  0.00  0.00    +0.000 OA
ENDBRANCH  21  23
ENDBRANCH  20  21
ENDBRANCH  19  20
ENDBRANCH  18  19
ENDBRANCH  10  13
ENDBRANCH   8   9
ENDBRANCH   1   8
BRANCH   4  27
ATOM     27  C   UNL     1      48.191   9.191  14.157  0.00  0.00    +0.000 C 
BRANCH  27  28
ATOM     28  N   UNL     1      47.297   8.097  13.890  0.00  0.00    +0.000 N 
ATOM     29  C   UNL     1      47.612   7.128  12.968  0.00  0.00    +0.000 C 
ATOM     30  O   UNL     1      48.682   7.124  12.367  0.00  0.00    +0.000 OA
ATOM     31  H   UNL     1      46.330   8.216  14.167  0.00  0.00    +0.000 HD
BRANCH  29  32
ATOM     32  C   UNL     1      46.623   6.058  12.789  0.00  0.00    +0.000 A 
ATOM     33  C   UNL     1      46.930   4.759  13.171  0.00  0.00    +0.000 A 
ATOM     34  S   UNL     1      45.646   3.658  12.943  0.00  0.00    +0.000 S 
ATOM     35  C   UNL     1      44.653   4.867  12.276  0.00  0.00    +0.000 A 
ATOM     36  N   UNL     1      43.399   4.581  11.836  0.00  0.00    +0.000 NA
ATOM     37  C   UNL     1      42.767   5.586  11.328  0.00  0.00    +0.000 A 
ATOM     38  N   UNL     1      43.275   6.856  11.228  0.00  0.00    +0.000 N 
ATOM     39  C   UNL     1      44.522   7.200  11.690  0.00  0.00    +0.000 A 
ATOM     40  O   UNL     1      44.924   8.358  11.638  0.00  0.00    +0.000 OA
ATOM     41  C   UNL     1      45.283   6.100  12.251  0.00  0.00    +0.000 A 
ATOM     42  H   UNL     1      42.723   7.605  10.837  0.00  0.00    +0.000 HD
ENDBRANCH  29  32
ENDBRANCH  27  28
ENDBRANCH   4  27
TORSDOF 10
ENDMDL
