MODEL 1
REMARK VINA RESULT:    -8.391      0.000      0.000
REMARK INTER + INTRA:         -10.603
REMARK INTER:                 -10.843
REMARK INTRA:                   0.240
REMARK UNBOUND:                 0.240
REMARK  Name = 
REMARK  5 active torsions:
REMARK  status: ('A' for Active; 'I' for Inactive)
REMARK    1  A    between atoms: C_2  and  C_18
REMARK    2  A    between atoms: N_3  and  C_4
REMARK    3  A    between atoms: C_4  and  C_5
REMARK    4  A    between atoms: C_8  and  C_9
REMARK    5  A    between atoms: C_9  and  N_10
REMARK                            x       y       z     vdW  Elec       q    Type
REMARK                         _______ _______ _______ _____ _____    ______ ____
ROOT
ATOM      1  O   UNL     1      49.187   6.689  13.608  0.00  0.00    +0.000 OA
ATOM      2  C   UNL     1      48.268   6.486  14.396  0.00  0.00    +0.000 C 
ATOM      3  N   UNL     1      46.952   6.542  14.019  0.00  0.00    +0.000 N 
ATOM      4  H   UNL     1      46.235   6.563  14.737  0.00  0.00    +0.000 HD
ENDROOT
BRANCH   2   5
ATOM      5  C   UNL     1      48.523   6.121  15.793  0.00  0.00    +0.000 A 
ATOM      6  C   UNL     1      49.085   7.055  16.657  0.00  0.00    +0.000 A 
ATOM      7  S   UNL     1      49.285   6.474  18.248  0.00  0.00    +0.000 S 
ATOM      8  C   UNL     1      48.590   4.972  17.847  0.00  0.00    +0.000 A 
ATOM      9  N   UNL     1      48.413   4.009  18.791  0.00  0.00    +0.000 NA
ATOM     10  C   UNL     1      47.839   2.937  18.354  0.00  0.00    +0.000 A 
ATOM     11  N   UNL     1      47.445   2.730  17.057  0.00  0.00    +0.000 N 
ATOM     12  C   UNL     1      47.687   3.642  16.055  0.00  0.00    +0.000 A 
ATOM     13  O   UNL     1      47.474   3.367  14.878  0.00  0.00    +0.000 OA
ATOM     14  C   UNL     1      48.259   4.896  16.506  0.00  0.00    +0.000 A 
ATOM     15  H   UNL     1      47.042   1.851  16.773  0.00  0.00    +0.000 HD
ENDBRANCH   2   5
BRANCH   3  16
ATOM     16  C   UNL     1      46.550   6.974  12.704  0.00  0.00    +0.000 C 
BRANCH  16  17
ATOM     17  C   UNL     1      45.997   5.829  11.909  0.00  0.00    +0.000 A 
ATOM     18  C   UNL     1      45.797   4.570  12.477  0.00  0.00    +0.000 A 
ATOM     19  C   UNL     1      45.249   3.545  11.711  0.00  0.00    +0.000 A 
ATOM     20  C   UNL     1      44.897   3.808  10.390  0.00  0.00    +0.000 A 
ATOM     21  N   UNL     1      45.076   5.025   9.817  0.00  0.00    +0.000 NA
ATOM     22  C   UNL     1      45.611   6.003  10.585  0.00  0.00    +0.000 A 
BRANCH  20  23
ATOM     23  C   UNL     1      44.300   2.712   9.525  0.00  0.00    +0.000 C 
BRANCH  23  24
ATOM     24  N   UNL     1      45.037   2.431   8.262  0.00  0.00    +0.000 NA
ATOM     25  C   UNL     1      45.674   3.667   7.768  0.00  0.00    +0.000 C 
ATOM     26  C   UNL     1      46.609   3.428   6.579  0.00  0.00    +0.000 C 
ATOM     27  C   UNL     1      47.646   2.363   6.897  0.00  0.00    +0.000 C 
ATOM     28  C   UNL     1      46.941   1.088   7.335  0.00  0.00    +0.000 C 
ATOM     29  C   UNL     1      46.013   1.359   8.519  0.00  0.00    +0.000 C 
ENDBRANCH  23  24
ENDBRANCH  20  23
ENDBRANCH  16  17
ENDBRANCH   3  16
TORSDOF 5
ENDMDL
MODEL 2
REMARK VINA RESULT:    -7.873      1.690      2.068
REMARK INTER + INTRA:          -9.934
REMARK INTER:                  -9.763
REMARK INTRA:                  -0.171
REMARK UNBOUND:                 0.240
REMARK  Name = 
REMARK  5 active torsions:
REMARK  status: ('A' for Active; 'I' for Inactive)
REMARK    1  A    between atoms: C_2  and  C_18
REMARK    2  A    between atoms: N_3  and  C_4
REMARK    3  A    between atoms: C_4  and  C_5
REMARK    4  A    between atoms: C_8  and  C_9
REMARK    5  A    between atoms: C_9  and  N_10
REMARK                            x       y       z     vdW  Elec       q    Type
REMARK                         _______ _______ _______ _____ _____    ______ ____
ROOT
ATOM      1  O   UNL     1      50.313   6.663  15.454  0.00  0.00    +0.000 OA
ATOM      2  C   UNL     1      49.150   6.748  15.839  0.00  0.00    +0.000 C 
ATOM      3  N   UNL     1      48.090   6.772  14.971  0.00  0.00    +0.000 N 
ATOM      4  H   UNL     1      47.175   7.038  15.318  0.00  0.00    +0.000 HD
ENDROOT
BRANCH   2   5
ATOM      5  C   UNL     1      48.815   6.781  17.265  0.00  0.00    +0.000 A 
ATOM      6  C   UNL     1      48.303   7.946  17.825  0.00  0.00    +0.000 A 
ATOM      7  S   UNL     1      47.941   7.800  19.486  0.00  0.00    +0.000 S 
ATOM      8  C   UNL     1      48.417   6.166  19.503  0.00  0.00    +0.000 A 
ATOM      9  N   UNL     1      48.311   5.418  20.635  0.00  0.00    +0.000 NA
ATOM     10  C   UNL     1      48.672   4.185  20.492  0.00  0.00    +0.000 A 
ATOM     11  N   UNL     1      49.150   3.636  19.330  0.00  0.00    +0.000 N 
ATOM     12  C   UNL     1      49.358   4.380  18.190  0.00  0.00    +0.000 A 
ATOM     13  O   UNL     1      49.936   3.907  17.217  0.00  0.00    +0.000 OA
ATOM     14  C   UNL     1      48.895   5.753  18.273  0.00  0.00    +0.000 A 
ATOM     15  H   UNL     1      49.456   2.677  19.298  0.00  0.00    +0.000 HD
ENDBRANCH   2   5
BRANCH   3  16
ATOM     16  C   UNL     1      48.272   6.835  13.542  0.00  0.00    +0.000 C 
BRANCH  16  17
ATOM     17  C   UNL     1      47.123   6.190  12.826  0.00  0.00    +0.000 A 
ATOM     18  C   UNL     1      46.528   5.019  13.299  0.00  0.00    +0.000 A 
ATOM     19  C   UNL     1      45.441   4.473  12.622  0.00  0.00    +0.000 A 
ATOM     20  C   UNL     1      44.961   5.123  11.488  0.00  0.00    +0.000 A 
ATOM     21  N   UNL     1      45.517   6.265  11.013  0.00  0.00    +0.000 NA
ATOM     22  C   UNL     1      46.573   6.773  11.690  0.00  0.00    +0.000 A 
BRANCH  20  23
ATOM     23  C   UNL     1      43.779   4.553  10.724  0.00  0.00    +0.000 C 
BRANCH  23  24
ATOM     24  N   UNL     1      44.132   3.766   9.511  0.00  0.00    +0.000 NA
ATOM     25  C   UNL     1      45.225   4.434   8.779  0.00  0.00    +0.000 C 
ATOM     26  C   UNL     1      45.778   3.594   7.624  0.00  0.00    +0.000 C 
ATOM     27  C   UNL     1      46.197   2.211   8.098  0.00  0.00    +0.000 C 
ATOM     28  C   UNL     1      45.019   1.536   8.784  0.00  0.00    +0.000 C 
ATOM     29  C   UNL     1      44.487   2.399   9.928  0.00  0.00    +0.000 C 
ENDBRANCH  23  24
ENDBRANCH  20  23
ENDBRANCH  16  17
ENDBRANCH   3  16
TORSDOF 5
ENDMDL
MODEL 3
REMARK VINA RESULT:    -7.775      2.195      3.779
REMARK INTER + INTRA:          -9.807
REMARK INTER:                  -9.511
REMARK INTRA:                  -0.296
REMARK UNBOUND:                 0.240
REMARK  Name = 
REMARK  5 active torsions:
REMARK  status: ('A' for Active; 'I' for Inactive)
REMARK    1  A    between atoms: C_2  and  C_18
REMARK    2  A    between atoms: N_3  and  C_4
REMARK    3  A    between atoms: C_4  and  C_5
REMARK    4  A    between atoms: C_8  and  C_9
REMARK    5  A    between atoms: C_9  and  N_10
REMARK                            x       y       z     vdW  Elec       q    Type
REMARK                         _______ _______ _______ _____ _____    ______ ____
ROOT
ATOM      1  O   UNL     1      48.735   5.067  16.147  0.00  0.00    +0.000 OA
ATOM      2  C   UNL     1      48.363   5.967  15.398  0.00  0.00    +0.000 C 
ATOM      3  N   UNL     1      47.348   5.795  14.495  0.00  0.00    +0.000 N 
ATOM      4  H   UNL     1      47.209   6.494  13.771  0.00  0.00    +0.000 HD
ENDROOT
BRANCH   2   5
ATOM      5  C   UNL     1      48.953   7.307  15.457  0.00  0.00    +0.000 A 
ATOM      6  C   UNL     1      48.965   8.002  16.661  0.00  0.00    +0.000 A 
ATOM      7  S   UNL     1      49.715   9.531  16.555  0.00  0.00    +0.000 S 
ATOM      8  C   UNL     1      50.086   9.298  14.911  0.00  0.00    +0.000 A 
ATOM      9  N   UNL     1      50.784  10.233  14.212  0.00  0.00    +0.000 NA
ATOM     10  C   UNL     1      51.027   9.907  12.985  0.00  0.00    +0.000 A 
ATOM     11  N   UNL     1      50.618   8.743  12.386  0.00  0.00    +0.000 N 
ATOM     12  C   UNL     1      49.834   7.813  13.031  0.00  0.00    +0.000 A 
ATOM     13  O   UNL     1      49.345   6.863  12.429  0.00  0.00    +0.000 OA
ATOM     14  C   UNL     1      49.597   8.094  14.435  0.00  0.00    +0.000 A 
ATOM     15  H   UNL     1      50.804   8.570  11.411  0.00  0.00    +0.000 HD
ENDBRANCH   2   5
BRANCH   3  16
ATOM     16  C   UNL     1      46.735   4.511  14.264  0.00  0.00    +0.000 C 
BRANCH  16  17
ATOM     17  C   UNL     1      46.069   4.466  12.922  0.00  0.00    +0.000 A 
ATOM     18  C   UNL     1      46.129   5.544  12.037  0.00  0.00    +0.000 A 
ATOM     19  C   UNL     1      45.526   5.447  10.787  0.00  0.00    +0.000 A 
ATOM     20  C   UNL     1      44.885   4.261  10.440  0.00  0.00    +0.000 A 
ATOM     21  N   UNL     1      44.819   3.197  11.280  0.00  0.00    +0.000 NA
ATOM     22  C   UNL     1      45.414   3.319  12.489  0.00  0.00    +0.000 A 
BRANCH  20  23
ATOM     23  C   UNL     1      44.214   4.121   9.086  0.00  0.00    +0.000 C 
BRANCH  23  24
ATOM     24  N   UNL     1      44.918   3.234   8.120  0.00  0.00    +0.000 NA
ATOM     25  C   UNL     1      46.001   3.981   7.452  0.00  0.00    +0.000 C 
ATOM     26  C   UNL     1      46.898   3.093   6.584  0.00  0.00    +0.000 C 
ATOM     27  C   UNL     1      47.446   1.917   7.377  0.00  0.00    +0.000 C 
ATOM     28  C   UNL     1      46.290   1.140   7.989  0.00  0.00    +0.000 C 
ATOM     29  C   UNL     1      45.412   2.052   8.845  0.00  0.00    +0.000 C 
ENDBRANCH  23  24
ENDBRANCH  20  23
ENDBRANCH  16  17
ENDBRANCH   3  16
TORSDOF 5
ENDMDL
MODEL 4
REMARK VINA RESULT:    -7.736      2.334      3.264
REMARK INTER + INTRA:          -9.757
REMARK INTER:                  -9.235
REMARK INTRA:                  -0.523
REMARK UNBOUND:                 0.240
REMARK  Name = 
REMARK  5 active torsions:
REMARK  status: ('A' for Active; 'I' for Inactive)
REMARK    1  A    between atoms: C_2  and  C_18
REMARK    2  A    between atoms: N_3  and  C_4
REMARK    3  A    between atoms: C_4  and  C_5
REMARK    4  A    between atoms: C_8  and  C_9
REMARK    5  A    between atoms: C_9  and  N_10
REMARK                            x       y       z     vdW  Elec       q    Type
REMARK                         _______ _______ _______ _____ _____    ______ ____
ROOT
ATOM      1  O   UNL     1      50.177   6.366  15.698  0.00  0.00    +0.000 OA
ATOM      2  C   UNL     1      49.020   6.548  16.067  0.00  0.00    +0.000 C 
ATOM      3  N   UNL     1      47.994   6.765  15.185  0.00  0.00    +0.000 N 
ATOM      4  H   UNL     1      47.104   7.102  15.538  0.00  0.00    +0.000 HD
ENDROOT
BRANCH   2   5
ATOM      5  C   UNL     1      48.649   6.496  17.485  0.00  0.00    +0.000 A 
ATOM      6  C   UNL     1      48.796   5.308  18.192  0.00  0.00    +0.000 A 
ATOM      7  S   UNL     1      48.347   5.435  19.833  0.00  0.00    +0.000 S 
ATOM      8  C   UNL     1      47.981   7.088  19.663  0.00  0.00    +0.000 A 
ATOM      9  N   UNL     1      47.576   7.828  20.731  0.00  0.00    +0.000 NA
ATOM     10  C   UNL     1      47.370   9.076  20.465  0.00  0.00    +0.000 A 
ATOM     11  N   UNL     1      47.511   9.648  19.226  0.00  0.00    +0.000 N 
ATOM     12  C   UNL     1      47.830   8.917  18.104  0.00  0.00    +0.000 A 
ATOM     13  O   UNL     1      47.790   9.418  16.985  0.00  0.00    +0.000 OA
ATOM     14  C   UNL     1      48.148   7.525  18.361  0.00  0.00    +0.000 A 
ATOM     15  H   UNL     1      47.292  10.620  19.078  0.00  0.00    +0.000 HD
ENDBRANCH   2   5
BRANCH   3  16
ATOM     16  C   UNL     1      48.222   6.930  13.771  0.00  0.00    +0.000 C 
BRANCH  16  17
ATOM     17  C   UNL     1      47.091   6.352  12.974  0.00  0.00    +0.000 A 
ATOM     18  C   UNL     1      46.678   5.029  13.139  0.00  0.00    +0.000 A 
ATOM     19  C   UNL     1      45.601   4.544  12.403  0.00  0.00    +0.000 A 
ATOM     20  C   UNL     1      44.946   5.403  11.524  0.00  0.00    +0.000 A 
ATOM     21  N   UNL     1      45.324   6.695  11.352  0.00  0.00    +0.000 NA
ATOM     22  C   UNL     1      46.375   7.139  12.080  0.00  0.00    +0.000 A 
BRANCH  20  23
ATOM     23  C   UNL     1      43.769   4.907  10.704  0.00  0.00    +0.000 C 
BRANCH  23  24
ATOM     24  N   UNL     1      44.128   4.062   9.532  0.00  0.00    +0.000 NA
ATOM     25  C   UNL     1      45.369   4.564   8.913  0.00  0.00    +0.000 C 
ATOM     26  C   UNL     1      45.913   3.641   7.818  0.00  0.00    +0.000 C 
ATOM     27  C   UNL     1      46.087   2.220   8.331  0.00  0.00    +0.000 C 
ATOM     28  C   UNL     1      44.766   1.722   8.895  0.00  0.00    +0.000 C 
ATOM     29  C   UNL     1      44.247   2.665   9.981  0.00  0.00    +0.000 C 
ENDBRANCH  23  24
ENDBRANCH  20  23
ENDBRANCH  16  17
ENDBRANCH   3  16
TORSDOF 5
ENDMDL
MODEL 5
REMARK VINA RESULT:    -7.661      2.081      2.872
REMARK INTER + INTRA:          -9.660
REMARK INTER:                  -9.366
REMARK INTRA:                  -0.294
REMARK UNBOUND:                 0.240
REMARK  Name = 
REMARK  5 active torsions:
REMARK  status: ('A' for Active; 'I' for Inactive)
REMARK    1  A    between atoms: C_2  and  C_18
REMARK    2  A    between atoms: N_3  and  C_4
REMARK    3  A    between atoms: C_4  and  C_5
REMARK    4  A    between atoms: C_8  and  C_9
REMARK    5  A    between atoms: C_9  and  N_10
REMARK                            x       y       z     vdW  Elec       q    Type
REMARK                         _______ _______ _______ _____ _____    ______ ____
ROOT
ATOM      1  O   UNL     1      47.522   3.881  14.087  0.00  0.00    +0.000 OA
ATOM      2  C   UNL     1      47.222   5.067  13.982  0.00  0.00    +0.000 C 
ATOM      3  N   UNL     1      45.951   5.477  13.676  0.00  0.00    +0.000 N 
ATOM      4  H   UNL     1      45.796   6.444  13.409  0.00  0.00    +0.000 HD
ENDROOT
BRANCH   2   5
ATOM      5  C   UNL     1      48.200   6.131  14.227  0.00  0.00    +0.000 A 
ATOM      6  C   UNL     1      48.647   6.912  13.167  0.00  0.00    +0.000 A 
ATOM      7  S   UNL     1      49.758   8.119  13.635  0.00  0.00    +0.000 S 
ATOM      8  C   UNL     1      49.648   7.665  15.272  0.00  0.00    +0.000 A 
ATOM      9  N   UNL     1      50.330   8.345  16.233  0.00  0.00    +0.000 NA
ATOM     10  C   UNL     1      50.123   7.916  17.434  0.00  0.00    +0.000 A 
ATOM     11  N   UNL     1      49.314   6.857  17.761  0.00  0.00    +0.000 N 
ATOM     12  C   UNL     1      48.680   6.088  16.812  0.00  0.00    +0.000 A 
ATOM     13  O   UNL     1      48.098   5.052  17.116  0.00  0.00    +0.000 OA
ATOM     14  C   UNL     1      48.817   6.575  15.452  0.00  0.00    +0.000 A 
ATOM     15  H   UNL     1      49.231   6.546  18.716  0.00  0.00    +0.000 HD
ENDBRANCH   2   5
BRANCH   3  16
ATOM     16  C   UNL     1      44.909   4.545  13.323  0.00  0.00    +0.000 C 
BRANCH  16  17
ATOM     17  C   UNL     1      44.800   4.400  11.834  0.00  0.00    +0.000 A 
ATOM     18  C   UNL     1      45.531   5.208  10.963  0.00  0.00    +0.000 A 
ATOM     19  C   UNL     1      45.426   5.017   9.589  0.00  0.00    +0.000 A 
ATOM     20  C   UNL     1      44.596   4.005   9.113  0.00  0.00    +0.000 A 
ATOM     21  N   UNL     1      43.880   3.202   9.940  0.00  0.00    +0.000 NA
ATOM     22  C   UNL     1      44.002   3.411  11.271  0.00  0.00    +0.000 A 
BRANCH  20  23
ATOM     23  C   UNL     1      44.455   3.770   7.620  0.00  0.00    +0.000 C 
BRANCH  23  24
ATOM     24  N   UNL     1      45.387   2.760   7.048  0.00  0.00    +0.000 NA
ATOM     25  C   UNL     1      46.450   3.438   6.282  0.00  0.00    +0.000 C 
ATOM     26  C   UNL     1      47.558   2.487   5.819  0.00  0.00    +0.000 C 
ATOM     27  C   UNL     1      48.135   1.702   6.987  0.00  0.00    +0.000 C 
ATOM     28  C   UNL     1      47.012   0.967   7.703  0.00  0.00    +0.000 C 
ATOM     29  C   UNL     1      45.921   1.940   8.148  0.00  0.00    +0.000 C 
ENDBRANCH  23  24
ENDBRANCH  20  23
ENDBRANCH  16  17
ENDBRANCH   3  16
TORSDOF 5
ENDMDL
MODEL 6
REMARK VINA RESULT:    -7.651      1.455      2.200
REMARK INTER + INTRA:          -9.647
REMARK INTER:                  -9.789
REMARK INTRA:                   0.142
REMARK UNBOUND:                 0.240
REMARK  Name = 
REMARK  5 active torsions:
REMARK  status: ('A' for Active; 'I' for Inactive)
REMARK    1  A    between atoms: C_2  and  C_18
REMARK    2  A    between atoms: N_3  and  C_4
REMARK    3  A    between atoms: C_4  and  C_5
REMARK    4  A    between atoms: C_8  and  C_9
REMARK    5  A    between atoms: C_9  and  N_10
REMARK                            x       y       z     vdW  Elec       q    Type
REMARK                         _______ _______ _______ _____ _____    ______ ____
ROOT
ATOM      1  O   UNL     1      49.095   6.530  14.320  0.00  0.00    +0.000 OA
ATOM      2  C   UNL     1      48.134   6.020  14.890  0.00  0.00    +0.000 C 
ATOM      3  N   UNL     1      46.904   5.909  14.296  0.00  0.00    +0.000 N 
ATOM      4  H   UNL     1      46.102   5.665  14.867  0.00  0.00    +0.000 HD
ENDROOT
BRANCH   2   5
ATOM      5  C   UNL     1      48.253   5.452  16.236  0.00  0.00    +0.000 A 
ATOM      6  C   UNL     1      48.057   4.089  16.427  0.00  0.00    +0.000 A 
ATOM      7  S   UNL     1      48.262   3.594  18.047  0.00  0.00    +0.000 S 
ATOM      8  C   UNL     1      48.660   5.174  18.538  0.00  0.00    +0.000 A 
ATOM      9  N   UNL     1      49.001   5.440  19.828  0.00  0.00    +0.000 NA
ATOM     10  C   UNL     1      49.316   6.674  20.050  0.00  0.00    +0.000 A 
ATOM     11  N   UNL     1      49.301   7.670  19.107  0.00  0.00    +0.000 N 
ATOM     12  C   UNL     1      48.876   7.461  17.814  0.00  0.00    +0.000 A 
ATOM     13  O   UNL     1      48.717   8.396  17.037  0.00  0.00    +0.000 OA
ATOM     14  C   UNL     1      48.585   6.076  17.492  0.00  0.00    +0.000 A 
ATOM     15  H   UNL     1      49.516   8.622  19.357  0.00  0.00    +0.000 HD
ENDBRANCH   2   5
BRANCH   3  16
ATOM     16  C   UNL     1      46.616   6.500  13.014  0.00  0.00    +0.000 C 
BRANCH  16  17
ATOM     17  C   UNL     1      46.044   5.485  12.070  0.00  0.00    +0.000 A 
ATOM     18  C   UNL     1      45.809   4.167  12.465  0.00  0.00    +0.000 A 
ATOM     19  C   UNL     1      45.244   3.266  11.568  0.00  0.00    +0.000 A 
ATOM     20  C   UNL     1      44.910   3.710  10.291  0.00  0.00    +0.000 A 
ATOM     21  N   UNL     1      45.123   4.988   9.885  0.00  0.00    +0.000 NA
ATOM     22  C   UNL     1      45.674   5.842  10.778  0.00  0.00    +0.000 A 
BRANCH  20  23
ATOM     23  C   UNL     1      44.295   2.754   9.285  0.00  0.00    +0.000 C 
BRANCH  23  24
ATOM     24  N   UNL     1      45.122   2.490   8.076  0.00  0.00    +0.000 NA
ATOM     25  C   UNL     1      45.797   3.731   7.650  0.00  0.00    +0.000 C 
ATOM     26  C   UNL     1      46.817   3.508   6.528  0.00  0.00    +0.000 C 
ATOM     27  C   UNL     1      47.825   2.433   6.905  0.00  0.00    +0.000 C 
ATOM     28  C   UNL     1      47.086   1.155   7.270  0.00  0.00    +0.000 C 
ATOM     29  C   UNL     1      46.074   1.410   8.386  0.00  0.00    +0.000 C 
ENDBRANCH  23  24
ENDBRANCH  20  23
ENDBRANCH  16  17
ENDBRANCH   3  16
TORSDOF 5
ENDMDL
MODEL 7
REMARK VINA RESULT:    -7.378      3.511      8.067
REMARK INTER + INTRA:          -9.294
REMARK INTER:                  -8.411
REMARK INTRA:                  -0.883
REMARK UNBOUND:                 0.240
REMARK  Name = 
REMARK  5 active torsions:
REMARK  status: ('A' for Active; 'I' for Inactive)
REMARK    1  A    between atoms: C_2  and  C_18
REMARK    2  A    between atoms: N_3  and  C_4
REMARK    3  A    between atoms: C_4  and  C_5
REMARK    4  A    between atoms: C_8  and  C_9
REMARK    5  A    between atoms: C_9  and  N_10
REMARK                            x       y       z     vdW  Elec       q    Type
REMARK                         _______ _______ _______ _____ _____    ______ ____
ROOT
ATOM      1  O   UNL     1      48.000   7.208  11.874  0.00  0.00    +0.000 OA
ATOM      2  C   UNL     1      47.106   6.983  12.685  0.00  0.00    +0.000 C 
ATOM      3  N   UNL     1      47.245   7.246  14.023  0.00  0.00    +0.000 N 
ATOM      4  H   UNL     1      46.565   6.866  14.673  0.00  0.00    +0.000 HD
ENDROOT
BRANCH   2   5
ATOM      5  C   UNL     1      45.803   6.459  12.265  0.00  0.00    +0.000 A 
ATOM      6  C   UNL     1      44.880   7.308  11.665  0.00  0.00    +0.000 A 
ATOM      7  S   UNL     1      43.432   6.527  11.214  0.00  0.00    +0.000 S 
ATOM      8  C   UNL     1      44.006   5.022  11.765  0.00  0.00    +0.000 A 
ATOM      9  N   UNL     1      43.256   3.895  11.628  0.00  0.00    +0.000 NA
ATOM     10  C   UNL     1      43.832   2.820  12.055  0.00  0.00    +0.000 A 
ATOM     11  N   UNL     1      45.078   2.770  12.627  0.00  0.00    +0.000 N 
ATOM     12  C   UNL     1      45.829   3.899  12.866  0.00  0.00    +0.000 A 
ATOM     13  O   UNL     1      46.863   3.848  13.523  0.00  0.00    +0.000 OA
ATOM     14  C   UNL     1      45.262   5.124  12.335  0.00  0.00    +0.000 A 
ATOM     15  H   UNL     1      45.450   1.903  12.980  0.00  0.00    +0.000 HD
ENDBRANCH   2   5
BRANCH   3  16
ATOM     16  C   UNL     1      48.497   7.679  14.591  0.00  0.00    +0.000 C 
BRANCH  16  17
ATOM     17  C   UNL     1      49.021   6.669  15.568  0.00  0.00    +0.000 A 
ATOM     18  C   UNL     1      48.199   5.684  16.116  0.00  0.00    +0.000 A 
ATOM     19  C   UNL     1      48.735   4.744  16.992  0.00  0.00    +0.000 A 
ATOM     20  C   UNL     1      50.094   4.802  17.290  0.00  0.00    +0.000 A 
ATOM     21  N   UNL     1      50.915   5.745  16.764  0.00  0.00    +0.000 NA
ATOM     22  C   UNL     1      50.367   6.646  15.916  0.00  0.00    +0.000 A 
BRANCH  20  23
ATOM     23  C   UNL     1      50.711   3.795  18.244  0.00  0.00    +0.000 C 
BRANCH  23  24
ATOM     24  N   UNL     1      51.893   3.062  17.711  0.00  0.00    +0.000 NA
ATOM     25  C   UNL     1      53.082   3.370  18.528  0.00  0.00    +0.000 C 
ATOM     26  C   UNL     1      54.299   2.511  18.167  0.00  0.00    +0.000 C 
ATOM     27  C   UNL     1      53.962   1.029  18.219  0.00  0.00    +0.000 C 
ATOM     28  C   UNL     1      52.775   0.749  17.310  0.00  0.00    +0.000 C 
ATOM     29  C   UNL     1      51.580   1.623  17.691  0.00  0.00    +0.000 C 
ENDBRANCH  23  24
ENDBRANCH  20  23
ENDBRANCH  16  17
ENDBRANCH   3  16
TORSDOF 5
ENDMDL
MODEL 8
REMARK VINA RESULT:    -7.331      3.751      8.725
REMARK INTER + INTRA:          -9.234
REMARK INTER:                  -8.527
REMARK INTRA:                  -0.707
REMARK UNBOUND:                 0.240
REMARK  Name = 
REMARK  5 active torsions:
REMARK  status: ('A' for Active; 'I' for Inactive)
REMARK    1  A    between atoms: C_2  and  C_18
REMARK    2  A    between atoms: N_3  and  C_4
REMARK    3  A    between atoms: C_4  and  C_5
REMARK    4  A    between atoms: C_8  and  C_9
REMARK    5  A    between atoms: C_9  and  N_10
REMARK                            x       y       z     vdW  Elec       q    Type
REMARK                         _______ _______ _______ _____ _____    ______ ____
ROOT
ATOM      1  O   UNL     1      47.277   3.232  13.904  0.00  0.00    +0.000 OA
ATOM      2  C   UNL     1      46.778   4.238  14.401  0.00  0.00    +0.000 C 
ATOM      3  N   UNL     1      46.743   4.446  15.755  0.00  0.00    +0.000 N 
ATOM      4  H   UNL     1      46.153   5.185  16.125  0.00  0.00    +0.000 HD
ENDROOT
BRANCH   2   5
ATOM      5  C   UNL     1      46.226   5.312  13.570  0.00  0.00    +0.000 A 
ATOM      6  C   UNL     1      47.003   6.429  13.283  0.00  0.00    +0.000 A 
ATOM      7  S   UNL     1      46.216   7.564  12.282  0.00  0.00    +0.000 S 
ATOM      8  C   UNL     1      44.830   6.584  12.164  0.00  0.00    +0.000 A 
ATOM      9  N   UNL     1      43.772   6.958  11.395  0.00  0.00    +0.000 NA
ATOM     10  C   UNL     1      42.805   6.100  11.368  0.00  0.00    +0.000 A 
ATOM     11  N   UNL     1      42.789   4.913  12.056  0.00  0.00    +0.000 N 
ATOM     12  C   UNL     1      43.799   4.541  12.914  0.00  0.00    +0.000 A 
ATOM     13  O   UNL     1      43.688   3.558  13.640  0.00  0.00    +0.000 OA
ATOM     14  C   UNL     1      44.944   5.432  12.922  0.00  0.00    +0.000 A 
ATOM     15  H   UNL     1      41.984   4.309  12.026  0.00  0.00    +0.000 HD
ENDBRANCH   2   5
BRANCH   3  16
ATOM     16  C   UNL     1      47.167   3.440  16.696  0.00  0.00    +0.000 C 
BRANCH  16  17
ATOM     17  C   UNL     1      48.584   3.672  17.128  0.00  0.00    +0.000 A 
ATOM     18  C   UNL     1      49.517   2.636  17.168  0.00  0.00    +0.000 A 
ATOM     19  C   UNL     1      50.831   2.902  17.542  0.00  0.00    +0.000 A 
ATOM     20  C   UNL     1      51.188   4.211  17.856  0.00  0.00    +0.000 A 
ATOM     21  N   UNL     1      50.300   5.237  17.818  0.00  0.00    +0.000 NA
ATOM     22  C   UNL     1      49.030   4.949  17.452  0.00  0.00    +0.000 A 
BRANCH  20  23
ATOM     23  C   UNL     1      52.611   4.537  18.271  0.00  0.00    +0.000 C 
BRANCH  23  24
ATOM     24  N   UNL     1      53.343   5.453  17.354  0.00  0.00    +0.000 NA
ATOM     25  C   UNL     1      53.529   6.766  18.000  0.00  0.00    +0.000 C 
ATOM     26  C   UNL     1      54.439   7.706  17.203  0.00  0.00    +0.000 C 
ATOM     27  C   UNL     1      55.775   7.050  16.893  0.00  0.00    +0.000 C 
ATOM     28  C   UNL     1      55.534   5.735  16.167  0.00  0.00    +0.000 C 
ATOM     29  C   UNL     1      54.621   4.822  16.984  0.00  0.00    +0.000 C 
ENDBRANCH  23  24
ENDBRANCH  20  23
ENDBRANCH  16  17
ENDBRANCH   3  16
TORSDOF 5
ENDMDL
MODEL 9
REMARK VINA RESULT:    -7.281      2.657      3.629
REMARK INTER + INTRA:          -9.170
REMARK INTER:                  -8.288
REMARK INTRA:                  -0.881
REMARK UNBOUND:                 0.240
REMARK  Name = 
REMARK  5 active torsions:
REMARK  status: ('A' for Active; 'I' for Inactive)
REMARK    1  A    between atoms: C_2  and  C_18
REMARK    2  A    between atoms: N_3  and  C_4
REMARK    3  A    between atoms: C_4  and  C_5
REMARK    4  A    between atoms: C_8  and  C_9
REMARK    5  A    between atoms: C_9  and  N_10
REMARK                            x       y       z     vdW  Elec       q    Type
REMARK                         _______ _______ _______ _____ _____    ______ ____
ROOT
ATOM      1  O   UNL     1      48.430   8.693  16.350  0.00  0.00    +0.000 OA
ATOM      2  C   UNL     1      48.931   7.614  16.046  0.00  0.00    +0.000 C 
ATOM      3  N   UNL     1      49.379   7.345  14.779  0.00  0.00    +0.000 N 
ATOM      4  H   UNL     1      49.600   6.387  14.528  0.00  0.00    +0.000 HD
ENDROOT
BRANCH   2   5
ATOM      5  C   UNL     1      49.125   6.552  17.037  0.00  0.00    +0.000 A 
ATOM      6  C   UNL     1      49.918   6.790  18.154  0.00  0.00    +0.000 A 
ATOM      7  S   UNL     1      50.013   5.458  19.216  0.00  0.00    +0.000 S 
ATOM      8  C   UNL     1      48.966   4.535  18.241  0.00  0.00    +0.000 A 
ATOM      9  N   UNL     1      48.587   3.282  18.613  0.00  0.00    +0.000 NA
ATOM     10  C   UNL     1      47.760   2.714  17.798  0.00  0.00    +0.000 A 
ATOM     11  N   UNL     1      47.295   3.273  16.635  0.00  0.00    +0.000 N 
ATOM     12  C   UNL     1      47.724   4.499  16.179  0.00  0.00    +0.000 A 
ATOM     13  O   UNL     1      47.421   4.905  15.061  0.00  0.00    +0.000 OA
ATOM     14  C   UNL     1      48.593   5.213  17.095  0.00  0.00    +0.000 A 
ATOM     15  H   UNL     1      46.685   2.758  16.021  0.00  0.00    +0.000 HD
ENDBRANCH   2   5
BRANCH   3  16
ATOM     16  C   UNL     1      49.174   8.259  13.684  0.00  0.00    +0.000 C 
BRANCH  16  17
ATOM     17  C   UNL     1      47.889   7.962  12.970  0.00  0.00    +0.000 A 
ATOM     18  C   UNL     1      47.797   6.947  12.017  0.00  0.00    +0.000 A 
ATOM     19  C   UNL     1      46.576   6.681  11.404  0.00  0.00    +0.000 A 
ATOM     20  C   UNL     1      45.463   7.433  11.771  0.00  0.00    +0.000 A 
ATOM     21  N   UNL     1      45.525   8.420  12.700  0.00  0.00    +0.000 NA
ATOM     22  C   UNL     1      46.725   8.656  13.279  0.00  0.00    +0.000 A 
BRANCH  20  23
ATOM     23  C   UNL     1      44.116   7.172  11.120  0.00  0.00    +0.000 C 
BRANCH  23  24
ATOM     24  N   UNL     1      43.505   5.853  11.439  0.00  0.00    +0.000 NA
ATOM     25  C   UNL     1      44.009   4.829  10.505  0.00  0.00    +0.000 C 
ATOM     26  C   UNL     1      43.578   3.407  10.880  0.00  0.00    +0.000 C 
ATOM     27  C   UNL     1      43.955   3.078  12.316  0.00  0.00    +0.000 C 
ATOM     28  C   UNL     1      43.356   4.122  13.247  0.00  0.00    +0.000 C 
ATOM     29  C   UNL     1      43.800   5.528  12.844  0.00  0.00    +0.000 C 
ENDBRANCH  23  24
ENDBRANCH  20  23
ENDBRANCH  16  17
ENDBRANCH   3  16
TORSDOF 5
ENDMDL
