MODEL 1
REMARK VINA RESULT:    -8.218      0.000      0.000
REMARK INTER + INTRA:         -12.375
REMARK INTER:                 -11.101
REMARK INTRA:                  -1.275
REMARK UNBOUND:                -1.275
REMARK  Name = 
REMARK  7 active torsions:
REMARK  status: ('A' for Active; 'I' for Inactive)
REMARK    1  A    between atoms: C_1  and  N_2
REMARK    2  A    between atoms: C_8  and  C_9
REMARK    3  A    between atoms: N_11  and  C_12
REMARK    4  A    between atoms: C_12  and  C_13
REMARK    5  A    between atoms: N_16  and  C_17
REMARK    6  A    between atoms: C_17  and  C_18
REMARK    7  A    between atoms: C_19  and  C_20
REMARK                            x       y       z     vdW  Elec       q    Type
REMARK                         _______ _______ _______ _____ _____    ______ ____
ROOT
ATOM      1  C   UNL     1      46.071   6.846  12.456  0.00  0.00    +0.000 C 
ENDROOT
BRANCH   1   2
ATOM      2  C   UNL     1      44.575   6.559  12.673  0.00  0.00    +0.000 C 
ATOM      3  C   UNL     1      44.335   5.266  13.466  0.00  0.00    +0.000 C 
ATOM      4  C   UNL     1      44.592   4.017  12.628  0.00  0.00    +0.000 C 
ATOM      5  N   UNL     1      43.702   4.009  11.460  0.00  0.00    +0.000 NA
ATOM      6  C   UNL     1      43.979   5.165  10.593  0.00  0.00    +0.000 C 
ATOM      7  C   UNL     1      43.811   6.494  11.342  0.00  0.00    +0.000 C 
BRANCH   5   8
ATOM      8  C   UNL     1      43.805   2.754  10.701  0.00  0.00    +0.000 C 
BRANCH   8   9
ATOM      9  C   UNL     1      44.586   2.943   9.431  0.00  0.00    +0.000 C 
ATOM     10  C   UNL     1      45.524   2.087   8.987  0.00  0.00    +0.000 C 
BRANCH  10  11
ATOM     11  C   UNL     1      46.248   2.243   7.717  0.00  0.00    +0.000 A 
ATOM     12  C   UNL     1      46.044   3.343   6.871  0.00  0.00    +0.000 A 
ATOM     13  C   UNL     1      46.764   3.473   5.682  0.00  0.00    +0.000 A 
ATOM     14  C   UNL     1      47.705   2.510   5.327  0.00  0.00    +0.000 A 
ATOM     15  C   UNL     1      47.930   1.419   6.163  0.00  0.00    +0.000 A 
ATOM     16  C   UNL     1      47.208   1.288   7.353  0.00  0.00    +0.000 A 
ENDBRANCH  10  11
ENDBRANCH   8   9
ENDBRANCH   5   8
ENDBRANCH   1   2
BRANCH   1  19
ATOM     17  C   UNL     1      48.178   6.590  13.763  0.00  0.00    +0.000 C 
ATOM     18  O   UNL     1      48.877   6.456  12.763  0.00  0.00    +0.000 OA
ATOM     19  N   UNL     1      46.821   6.763  13.690  0.00  0.00    +0.000 N 
ATOM     20  H   UNL     1      46.283   6.817  14.549  0.00  0.00    +0.000 HD
BRANCH  17  28
ATOM     21  C   UNL     1      47.140   2.701  17.837  0.00  0.00    +0.000 C 
ATOM     22  N   UNL     1      47.899   3.917  17.632  0.00  0.00    +0.000 N 
ATOM     23  C   UNL     1      48.647   4.463  18.652  0.00  0.00    +0.000 A 
ATOM     24  N   UNL     1      49.346   5.548  18.570  0.00  0.00    +0.000 NA
ATOM     25  C   UNL     1      49.304   6.156  17.358  0.00  0.00    +0.000 A 
ATOM     26  S   UNL     1      50.183   7.585  17.068  0.00  0.00    +0.000 S 
ATOM     27  C   UNL     1      49.633   7.660  15.456  0.00  0.00    +0.000 A 
ATOM     28  C   UNL     1      48.760   6.634  15.114  0.00  0.00    +0.000 A 
ATOM     29  C   UNL     1      48.595   5.746  16.247  0.00  0.00    +0.000 A 
ATOM     30  C   UNL     1      47.812   4.529  16.386  0.00  0.00    +0.000 A 
ATOM     31  O   UNL     1      47.103   4.085  15.486  0.00  0.00    +0.000 OA
ENDBRANCH  17  28
ENDBRANCH   1  19
TORSDOF 6
ENDMDL
MODEL 2
REMARK VINA RESULT:    -8.000      2.023      2.721
REMARK INTER + INTRA:         -12.081
REMARK INTER:                 -11.828
REMARK INTRA:                  -0.252
REMARK UNBOUND:                -1.275
REMARK  Name = 
REMARK  7 active torsions:
REMARK  status: ('A' for Active; 'I' for Inactive)
REMARK    1  A    between atoms: C_1  and  N_2
REMARK    2  A    between atoms: C_8  and  C_9
REMARK    3  A    between atoms: N_11  and  C_12
REMARK    4  A    between atoms: C_12  and  C_13
REMARK    5  A    between atoms: N_16  and  C_17
REMARK    6  A    between atoms: C_17  and  C_18
REMARK    7  A    between atoms: C_19  and  C_20
REMARK                            x       y       z     vdW  Elec       q    Type
REMARK                         _______ _______ _______ _____ _____    ______ ____
ROOT
ATOM      1  C   UNL     1      46.367   4.770  14.157  0.00  0.00    +0.000 C 
ENDROOT
BRANCH   1   2
ATOM      2  C   UNL     1      45.994   6.007  13.322  0.00  0.00    +0.000 C 
ATOM      3  C   UNL     1      44.479   6.256  13.285  0.00  0.00    +0.000 C 
ATOM      4  C   UNL     1      43.751   5.261  12.385  0.00  0.00    +0.000 C 
ATOM      5  N   UNL     1      44.265   5.363  11.013  0.00  0.00    +0.000 NA
ATOM      6  C   UNL     1      45.692   5.008  10.970  0.00  0.00    +0.000 C 
ATOM      7  C   UNL     1      46.532   5.907  11.886  0.00  0.00    +0.000 C 
BRANCH   5   8
ATOM      8  C   UNL     1      43.495   4.532  10.076  0.00  0.00    +0.000 C 
BRANCH   8   9
ATOM      9  C   UNL     1      44.388   3.607   9.298  0.00  0.00    +0.000 C 
ATOM     10  C   UNL     1      45.138   3.987   8.249  0.00  0.00    +0.000 C 
BRANCH  10  11
ATOM     11  C   UNL     1      46.055   3.094   7.525  0.00  0.00    +0.000 A 
ATOM     12  C   UNL     1      46.406   1.828   8.014  0.00  0.00    +0.000 A 
ATOM     13  C   UNL     1      47.262   0.995   7.291  0.00  0.00    +0.000 A 
ATOM     14  C   UNL     1      47.770   1.412   6.063  0.00  0.00    +0.000 A 
ATOM     15  C   UNL     1      47.419   2.661   5.556  0.00  0.00    +0.000 A 
ATOM     16  C   UNL     1      46.564   3.496   6.282  0.00  0.00    +0.000 A 
ENDBRANCH  10  11
ENDBRANCH   8   9
ENDBRANCH   5   8
ENDBRANCH   1   2
BRANCH   1  19
ATOM     17  C   UNL     1      47.497   4.418  16.351  0.00  0.00    +0.000 C 
ATOM     18  O   UNL     1      46.735   3.515  16.688  0.00  0.00    +0.000 OA
ATOM     19  N   UNL     1      47.367   5.076  15.157  0.00  0.00    +0.000 N 
ATOM     20  H   UNL     1      47.990   5.849  14.949  0.00  0.00    +0.000 HD
BRANCH  17  28
ATOM     21  C   UNL     1      52.019   1.067  17.407  0.00  0.00    +0.000 C 
ATOM     22  N   UNL     1      51.520   2.389  17.723  0.00  0.00    +0.000 N 
ATOM     23  C   UNL     1      52.228   3.231  18.552  0.00  0.00    +0.000 A 
ATOM     24  N   UNL     1      51.861   4.420  18.903  0.00  0.00    +0.000 NA
ATOM     25  C   UNL     1      50.674   4.822  18.380  0.00  0.00    +0.000 A 
ATOM     26  S   UNL     1      50.049   6.368  18.720  0.00  0.00    +0.000 S 
ATOM     27  C   UNL     1      48.673   6.083  17.754  0.00  0.00    +0.000 A 
ATOM     28  C   UNL     1      48.643   4.816  17.184  0.00  0.00    +0.000 A 
ATOM     29  C   UNL     1      49.844   4.094  17.550  0.00  0.00    +0.000 A 
ATOM     30  C   UNL     1      50.289   2.758  17.193  0.00  0.00    +0.000 A 
ATOM     31  O   UNL     1      49.620   1.995  16.499  0.00  0.00    +0.000 OA
ENDBRANCH  17  28
ENDBRANCH   1  19
TORSDOF 6
ENDMDL
MODEL 3
REMARK VINA RESULT:    -7.983      1.550      2.116
REMARK INTER + INTRA:         -12.057
REMARK INTER:                 -10.895
REMARK INTRA:                  -1.162
REMARK UNBOUND:                -1.275
REMARK  Name = 
REMARK  7 active torsions:
REMARK  status: ('A' for Active; 'I' for Inactive)
REMARK    1  A    between atoms: C_1  and  N_2
REMARK    2  A    between atoms: C_8  and  C_9
REMARK    3  A    between atoms: N_11  and  C_12
REMARK    4  A    between atoms: C_12  and  C_13
REMARK    5  A    between atoms: N_16  and  C_17
REMARK    6  A    between atoms: C_17  and  C_18
REMARK    7  A    between atoms: C_19  and  C_20
REMARK                            x       y       z     vdW  Elec       q    Type
REMARK                         _______ _______ _______ _____ _____    ______ ____
ROOT
ATOM      1  C   UNL     1      47.674   6.515  12.465  0.00  0.00    +0.000 C 
ENDROOT
BRANCH   1   2
ATOM      2  C   UNL     1      46.351   6.541  13.250  0.00  0.00    +0.000 C 
ATOM      3  C   UNL     1      45.802   5.133  13.521  0.00  0.00    +0.000 C 
ATOM      4  C   UNL     1      45.204   4.494  12.271  0.00  0.00    +0.000 C 
ATOM      5  N   UNL     1      44.104   5.326  11.765  0.00  0.00    +0.000 NA
ATOM      6  C   UNL     1      44.601   6.651  11.367  0.00  0.00    +0.000 C 
ATOM      7  C   UNL     1      45.282   7.380  12.532  0.00  0.00    +0.000 C 
BRANCH   5   8
ATOM      8  C   UNL     1      43.398   4.679  10.649  0.00  0.00    +0.000 C 
BRANCH   8   9
ATOM      9  C   UNL     1      44.297   3.734   9.903  0.00  0.00    +0.000 C 
ATOM     10  C   UNL     1      44.799   3.975   8.679  0.00  0.00    +0.000 C 
BRANCH  10  11
ATOM     11  C   UNL     1      45.724   3.075   7.975  0.00  0.00    +0.000 A 
ATOM     12  C   UNL     1      45.936   1.752   8.385  0.00  0.00    +0.000 A 
ATOM     13  C   UNL     1      46.805   0.916   7.681  0.00  0.00    +0.000 A 
ATOM     14  C   UNL     1      47.465   1.389   6.549  0.00  0.00    +0.000 A 
ATOM     15  C   UNL     1      47.254   2.697   6.120  0.00  0.00    +0.000 A 
ATOM     16  C   UNL     1      46.385   3.535   6.827  0.00  0.00    +0.000 A 
ENDBRANCH  10  11
ENDBRANCH   8   9
ENDBRANCH   5   8
ENDBRANCH   1   2
BRANCH   1  19
ATOM     17  C   UNL     1      49.246   7.673  14.016  0.00  0.00    +0.000 C 
ATOM     18  O   UNL     1      48.688   8.761  13.897  0.00  0.00    +0.000 OA
ATOM     19  N   UNL     1      48.823   6.556  13.344  0.00  0.00    +0.000 N 
ATOM     20  H   UNL     1      49.350   5.695  13.437  0.00  0.00    +0.000 HD
BRANCH  17  28
ATOM     21  C   UNL     1      49.079   4.286  18.630  0.00  0.00    +0.000 C 
ATOM     22  N   UNL     1      49.992   5.168  17.934  0.00  0.00    +0.000 N 
ATOM     23  C   UNL     1      51.262   5.394  18.418  0.00  0.00    +0.000 A 
ATOM     24  N   UNL     1      52.142   6.171  17.877  0.00  0.00    +0.000 NA
ATOM     25  C   UNL     1      51.730   6.786  16.740  0.00  0.00    +0.000 A 
ATOM     26  S   UNL     1      52.769   7.827  15.885  0.00  0.00    +0.000 S 
ATOM     27  C   UNL     1      51.580   8.129  14.700  0.00  0.00    +0.000 A 
ATOM     28  C   UNL     1      50.375   7.478  14.939  0.00  0.00    +0.000 A 
ATOM     29  C   UNL     1      50.492   6.675  16.138  0.00  0.00    +0.000 A 
ATOM     30  C   UNL     1      49.528   5.802  16.788  0.00  0.00    +0.000 A 
ATOM     31  O   UNL     1      48.379   5.655  16.376  0.00  0.00    +0.000 OA
ENDBRANCH  17  28
ENDBRANCH   1  19
TORSDOF 6
ENDMDL
MODEL 4
REMARK VINA RESULT:    -7.730      2.098      2.873
REMARK INTER + INTRA:         -11.716
REMARK INTER:                 -10.646
REMARK INTRA:                  -1.070
REMARK UNBOUND:                -1.275
REMARK  Name = 
REMARK  7 active torsions:
REMARK  status: ('A' for Active; 'I' for Inactive)
REMARK    1  A    between atoms: C_1  and  N_2
REMARK    2  A    between atoms: C_8  and  C_9
REMARK    3  A    between atoms: N_11  and  C_12
REMARK    4  A    between atoms: C_12  and  C_13
REMARK    5  A    between atoms: N_16  and  C_17
REMARK    6  A    between atoms: C_17  and  C_18
REMARK    7  A    between atoms: C_19  and  C_20
REMARK                            x       y       z     vdW  Elec       q    Type
REMARK                         _______ _______ _______ _____ _____    ______ ____
ROOT
ATOM      1  C   UNL     1      46.120   6.742  11.937  0.00  0.00    +0.000 C 
ENDROOT
BRANCH   1   2
ATOM      2  C   UNL     1      45.384   6.069  13.109  0.00  0.00    +0.000 C 
ATOM      3  C   UNL     1      45.886   4.643  13.377  0.00  0.00    +0.000 C 
ATOM      4  C   UNL     1      45.401   3.650  12.324  0.00  0.00    +0.000 C 
ATOM      5  N   UNL     1      43.932   3.622  12.306  0.00  0.00    +0.000 NA
ATOM      6  C   UNL     1      43.397   4.938  11.927  0.00  0.00    +0.000 C 
ATOM      7  C   UNL     1      43.864   6.043  12.883  0.00  0.00    +0.000 C 
BRANCH   5   8
ATOM      8  C   UNL     1      43.416   2.574  11.414  0.00  0.00    +0.000 C 
BRANCH   8   9
ATOM      9  C   UNL     1      44.414   2.217  10.349  0.00  0.00    +0.000 C 
ATOM     10  C   UNL     1      44.561   2.891   9.195  0.00  0.00    +0.000 C 
BRANCH  10  11
ATOM     11  C   UNL     1      45.576   2.576   8.179  0.00  0.00    +0.000 A 
ATOM     12  C   UNL     1      46.210   1.327   8.119  0.00  0.00    +0.000 A 
ATOM     13  C   UNL     1      47.154   1.052   7.128  0.00  0.00    +0.000 A 
ATOM     14  C   UNL     1      47.469   2.018   6.176  0.00  0.00    +0.000 A 
ATOM     15  C   UNL     1      46.837   3.259   6.213  0.00  0.00    +0.000 A 
ATOM     16  C   UNL     1      45.893   3.535   7.207  0.00  0.00    +0.000 A 
ENDBRANCH  10  11
ENDBRANCH   8   9
ENDBRANCH   5   8
ENDBRANCH   1   2
BRANCH   1  19
ATOM     17  C   UNL     1      48.036   8.292  12.312  0.00  0.00    +0.000 C 
ATOM     18  O   UNL     1      47.381   9.295  12.044  0.00  0.00    +0.000 OA
ATOM     19  N   UNL     1      47.499   7.032  12.264  0.00  0.00    +0.000 N 
ATOM     20  H   UNL     1      48.098   6.233  12.444  0.00  0.00    +0.000 HD
BRANCH  17  28
ATOM     21  C   UNL     1      49.984   6.003  17.186  0.00  0.00    +0.000 C 
ATOM     22  N   UNL     1      50.460   6.765  16.051  0.00  0.00    +0.000 N 
ATOM     23  C   UNL     1      51.774   7.172  15.975  0.00  0.00    +0.000 A 
ATOM     24  N   UNL     1      52.289   7.865  15.012  0.00  0.00    +0.000 NA
ATOM     25  C   UNL     1      51.420   8.187  14.021  0.00  0.00    +0.000 A 
ATOM     26  S   UNL     1      51.934   9.077  12.665  0.00  0.00    +0.000 S 
ATOM     27  C   UNL     1      50.374   9.034  11.978  0.00  0.00    +0.000 A 
ATOM     28  C   UNL     1      49.434   8.378  12.764  0.00  0.00    +0.000 A 
ATOM     29  C   UNL     1      50.078   7.867  13.957  0.00  0.00    +0.000 A 
ATOM     30  C   UNL     1      49.537   7.101  15.067  0.00  0.00    +0.000 A 
ATOM     31  O   UNL     1      48.350   6.793  15.150  0.00  0.00    +0.000 OA
ENDBRANCH  17  28
ENDBRANCH   1  19
TORSDOF 6
ENDMDL
MODEL 5
REMARK VINA RESULT:    -7.569      1.635      2.944
REMARK INTER + INTRA:         -11.498
REMARK INTER:                 -10.573
REMARK INTRA:                  -0.926
REMARK UNBOUND:                -1.275
REMARK  Name = 
REMARK  7 active torsions:
REMARK  status: ('A' for Active; 'I' for Inactive)
REMARK    1  A    between atoms: C_1  and  N_2
REMARK    2  A    between atoms: C_8  and  C_9
REMARK    3  A    between atoms: N_11  and  C_12
REMARK    4  A    between atoms: C_12  and  C_13
REMARK    5  A    between atoms: N_16  and  C_17
REMARK    6  A    between atoms: C_17  and  C_18
REMARK    7  A    between atoms: C_19  and  C_20
REMARK                            x       y       z     vdW  Elec       q    Type
REMARK                         _______ _______ _______ _____ _____    ______ ____
ROOT
ATOM      1  C   UNL     1      46.769   5.050  13.723  0.00  0.00    +0.000 C 
ENDROOT
BRANCH   1   2
ATOM      2  C   UNL     1      45.895   6.217  13.234  0.00  0.00    +0.000 C 
ATOM      3  C   UNL     1      44.394   5.913  13.341  0.00  0.00    +0.000 C 
ATOM      4  C   UNL     1      43.924   4.934  12.268  0.00  0.00    +0.000 C 
ATOM      5  N   UNL     1      44.183   5.495  10.935  0.00  0.00    +0.000 NA
ATOM      6  C   UNL     1      45.627   5.688  10.730  0.00  0.00    +0.000 C 
ATOM      7  C   UNL     1      46.236   6.615  11.789  0.00  0.00    +0.000 C 
BRANCH   5   8
ATOM      8  C   UNL     1      43.614   4.658   9.869  0.00  0.00    +0.000 C 
BRANCH   8   9
ATOM      9  C   UNL     1      44.659   4.260   8.865  0.00  0.00    +0.000 C 
ATOM     10  C   UNL     1      45.056   2.994   8.649  0.00  0.00    +0.000 C 
BRANCH  10  11
ATOM     11  C   UNL     1      46.037   2.600   7.627  0.00  0.00    +0.000 A 
ATOM     12  C   UNL     1      46.782   1.417   7.724  0.00  0.00    +0.000 A 
ATOM     13  C   UNL     1      47.690   1.060   6.725  0.00  0.00    +0.000 A 
ATOM     14  C   UNL     1      47.857   1.876   5.609  0.00  0.00    +0.000 A 
ATOM     15  C   UNL     1      47.113   3.048   5.490  0.00  0.00    +0.000 A 
ATOM     16  C   UNL     1      46.205   3.406   6.492  0.00  0.00    +0.000 A 
ENDBRANCH  10  11
ENDBRANCH   8   9
ENDBRANCH   5   8
ENDBRANCH   1   2
BRANCH   1  19
ATOM     17  C   UNL     1      47.769   4.300  15.880  0.00  0.00    +0.000 C 
ATOM     18  O   UNL     1      47.783   3.117  15.554  0.00  0.00    +0.000 OA
ATOM     19  N   UNL     1      47.279   5.280  15.057  0.00  0.00    +0.000 N 
ATOM     20  H   UNL     1      47.242   6.236  15.395  0.00  0.00    +0.000 HD
BRANCH  17  28
ATOM     21  C   UNL     1      51.829   8.311  16.345  0.00  0.00    +0.000 C 
ATOM     22  N   UNL     1      51.028   7.442  17.181  0.00  0.00    +0.000 N 
ATOM     23  C   UNL     1      51.187   7.436  18.550  0.00  0.00    +0.000 A 
ATOM     24  N   UNL     1      50.531   6.689  19.376  0.00  0.00    +0.000 NA
ATOM     25  C   UNL     1      49.622   5.865  18.794  0.00  0.00    +0.000 A 
ATOM     26  S   UNL     1      48.655   4.829  19.735  0.00  0.00    +0.000 S 
ATOM     27  C   UNL     1      47.868   4.219  18.352  0.00  0.00    +0.000 A 
ATOM     28  C   UNL     1      48.334   4.759  17.159  0.00  0.00    +0.000 A 
ATOM     29  C   UNL     1      49.357   5.744  17.445  0.00  0.00    +0.000 A 
ATOM     30  C   UNL     1      50.128   6.592  16.550  0.00  0.00    +0.000 A 
ATOM     31  O   UNL     1      50.017   6.545  15.327  0.00  0.00    +0.000 OA
ENDBRANCH  17  28
ENDBRANCH   1  19
TORSDOF 6
ENDMDL
MODEL 6
REMARK VINA RESULT:    -7.508      3.173      4.772
REMARK INTER + INTRA:         -11.416
REMARK INTER:                 -10.312
REMARK INTRA:                  -1.104
REMARK UNBOUND:                -1.275
REMARK  Name = 
REMARK  7 active torsions:
REMARK  status: ('A' for Active; 'I' for Inactive)
REMARK    1  A    between atoms: C_1  and  N_2
REMARK    2  A    between atoms: C_8  and  C_9
REMARK    3  A    between atoms: N_11  and  C_12
REMARK    4  A    between atoms: C_12  and  C_13
REMARK    5  A    between atoms: N_16  and  C_17
REMARK    6  A    between atoms: C_17  and  C_18
REMARK    7  A    between atoms: C_19  and  C_20
REMARK                            x       y       z     vdW  Elec       q    Type
REMARK                         _______ _______ _______ _____ _____    ______ ____
ROOT
ATOM      1  C   UNL     1      47.608   6.484  12.278  0.00  0.00    +0.000 C 
ENDROOT
BRANCH   1   2
ATOM      2  C   UNL     1      46.350   6.523  13.163  0.00  0.00    +0.000 C 
ATOM      3  C   UNL     1      45.944   5.131  13.668  0.00  0.00    +0.000 C 
ATOM      4  C   UNL     1      45.311   4.279  12.571  0.00  0.00    +0.000 C 
ATOM      5  N   UNL     1      44.109   4.947  12.053  0.00  0.00    +0.000 NA
ATOM      6  C   UNL     1      44.461   6.235  11.438  0.00  0.00    +0.000 C 
ATOM      7  C   UNL     1      45.163   7.170  12.432  0.00  0.00    +0.000 C 
BRANCH   5   8
ATOM      8  C   UNL     1      43.380   4.098  11.100  0.00  0.00    +0.000 C 
BRANCH   8   9
ATOM      9  C   UNL     1      44.321   3.313  10.231  0.00  0.00    +0.000 C 
ATOM     10  C   UNL     1      44.610   3.625   8.955  0.00  0.00    +0.000 C 
BRANCH  10  11
ATOM     11  C   UNL     1      45.574   2.890   8.123  0.00  0.00    +0.000 A 
ATOM     12  C   UNL     1      46.232   3.486   7.039  0.00  0.00    +0.000 A 
ATOM     13  C   UNL     1      47.159   2.767   6.283  0.00  0.00    +0.000 A 
ATOM     14  C   UNL     1      47.450   1.444   6.607  0.00  0.00    +0.000 A 
ATOM     15  C   UNL     1      46.815   0.841   7.691  0.00  0.00    +0.000 A 
ATOM     16  C   UNL     1      45.884   1.561   8.447  0.00  0.00    +0.000 A 
ENDBRANCH  10  11
ENDBRANCH   8   9
ENDBRANCH   5   8
ENDBRANCH   1   2
BRANCH   1  19
ATOM     17  C   UNL     1      49.400   7.529  13.660  0.00  0.00    +0.000 C 
ATOM     18  O   UNL     1      49.446   6.592  14.453  0.00  0.00    +0.000 OA
ATOM     19  N   UNL     1      48.529   7.551  12.603  0.00  0.00    +0.000 N 
ATOM     20  H   UNL     1      48.496   8.372  12.008  0.00  0.00    +0.000 HD
BRANCH  17  28
ATOM     21  C   UNL     1      53.007   9.103   9.501  0.00  0.00    +0.000 C 
ATOM     22  N   UNL     1      52.618   9.497  10.839  0.00  0.00    +0.000 N 
ATOM     23  C   UNL     1      53.232  10.556  11.470  0.00  0.00    +0.000 A 
ATOM     24  N   UNL     1      52.964  10.973  12.664  0.00  0.00    +0.000 NA
ATOM     25  C   UNL     1      51.988  10.277  13.300  0.00  0.00    +0.000 A 
ATOM     26  S   UNL     1      51.493  10.704  14.871  0.00  0.00    +0.000 S 
ATOM     27  C   UNL     1      50.340   9.449  14.908  0.00  0.00    +0.000 A 
ATOM     28  C   UNL     1      50.324   8.670  13.756  0.00  0.00    +0.000 A 
ATOM     29  C   UNL     1      51.292   9.189  12.812  0.00  0.00    +0.000 A 
ATOM     30  C   UNL     1      51.635   8.744  11.471  0.00  0.00    +0.000 A 
ATOM     31  O   UNL     1      51.119   7.761  10.942  0.00  0.00    +0.000 OA
ENDBRANCH  17  28
ENDBRANCH   1  19
TORSDOF 6
ENDMDL
MODEL 7
REMARK VINA RESULT:    -7.187      2.745      3.968
REMARK INTER + INTRA:         -10.983
REMARK INTER:                  -9.888
REMARK INTRA:                  -1.095
REMARK UNBOUND:                -1.275
REMARK  Name = 
REMARK  7 active torsions:
REMARK  status: ('A' for Active; 'I' for Inactive)
REMARK    1  A    between atoms: C_1  and  N_2
REMARK    2  A    between atoms: C_8  and  C_9
REMARK    3  A    between atoms: N_11  and  C_12
REMARK    4  A    between atoms: C_12  and  C_13
REMARK    5  A    between atoms: N_16  and  C_17
REMARK    6  A    between atoms: C_17  and  C_18
REMARK    7  A    between atoms: C_19  and  C_20
REMARK                            x       y       z     vdW  Elec       q    Type
REMARK                         _______ _______ _______ _____ _____    ______ ____
ROOT
ATOM      1  C   UNL     1      48.581   6.678  14.228  0.00  0.00    +0.000 C 
ENDROOT
BRANCH   1   2
ATOM      2  C   UNL     1      48.097   7.887  13.410  0.00  0.00    +0.000 C 
ATOM      3  C   UNL     1      46.613   8.202  13.649  0.00  0.00    +0.000 C 
ATOM      4  C   UNL     1      45.690   7.198  12.964  0.00  0.00    +0.000 C 
ATOM      5  N   UNL     1      45.933   7.208  11.515  0.00  0.00    +0.000 NA
ATOM      6  C   UNL     1      47.311   6.786  11.221  0.00  0.00    +0.000 C 
ATOM      7  C   UNL     1      48.343   7.691  11.906  0.00  0.00    +0.000 C 
BRANCH   5   8
ATOM      8  C   UNL     1      44.967   6.367  10.793  0.00  0.00    +0.000 C 
BRANCH   8   9
ATOM      9  C   UNL     1      45.660   5.333   9.951  0.00  0.00    +0.000 C 
ATOM     10  C   UNL     1      45.022   4.400   9.222  0.00  0.00    +0.000 C 
BRANCH  10  11
ATOM     11  C   UNL     1      45.699   3.425   8.355  0.00  0.00    +0.000 A 
ATOM     12  C   UNL     1      46.390   3.810   7.197  0.00  0.00    +0.000 A 
ATOM     13  C   UNL     1      47.042   2.861   6.406  0.00  0.00    +0.000 A 
ATOM     14  C   UNL     1      47.021   1.517   6.768  0.00  0.00    +0.000 A 
ATOM     15  C   UNL     1      46.351   1.121   7.924  0.00  0.00    +0.000 A 
ATOM     16  C   UNL     1      45.697   2.070   8.715  0.00  0.00    +0.000 A 
ENDBRANCH  10  11
ENDBRANCH   8   9
ENDBRANCH   5   8
ENDBRANCH   1   2
BRANCH   1  19
ATOM     17  C   UNL     1      48.955   6.276  16.660  0.00  0.00    +0.000 C 
ATOM     18  O   UNL     1      49.983   5.630  16.477  0.00  0.00    +0.000 OA
ATOM     19  N   UNL     1      48.221   6.793  15.625  0.00  0.00    +0.000 N 
ATOM     20  H   UNL     1      47.352   7.274  15.829  0.00  0.00    +0.000 HD
BRANCH  17  28
ATOM     21  C   UNL     1      47.392  11.512  18.373  0.00  0.00    +0.000 C 
ATOM     22  N   UNL     1      47.497  10.162  18.887  0.00  0.00    +0.000 N 
ATOM     23  C   UNL     1      47.181   9.879  20.197  0.00  0.00    +0.000 A 
ATOM     24  N   UNL     1      47.255   8.713  20.750  0.00  0.00    +0.000 NA
ATOM     25  C   UNL     1      47.682   7.723  19.925  0.00  0.00    +0.000 A 
ATOM     26  S   UNL     1      47.817   6.121  20.482  0.00  0.00    +0.000 S 
ATOM     27  C   UNL     1      48.355   5.579  18.958  0.00  0.00    +0.000 A 
ATOM     28  C   UNL     1      48.470   6.592  18.013  0.00  0.00    +0.000 A 
ATOM     29  C   UNL     1      48.048   7.847  18.600  0.00  0.00    +0.000 A 
ATOM     30  C   UNL     1      47.964   9.178  18.022  0.00  0.00    +0.000 A 
ATOM     31  O   UNL     1      48.304   9.427  16.868  0.00  0.00    +0.000 OA
ENDBRANCH  17  28
ENDBRANCH   1  19
TORSDOF 6
ENDMDL
MODEL 8
REMARK VINA RESULT:    -7.032      1.959      2.741
REMARK INTER + INTRA:         -10.773
REMARK INTER:                  -9.708
REMARK INTRA:                  -1.065
REMARK UNBOUND:                -1.275
REMARK  Name = 
REMARK  7 active torsions:
REMARK  status: ('A' for Active; 'I' for Inactive)
REMARK    1  A    between atoms: C_1  and  N_2
REMARK    2  A    between atoms: C_8  and  C_9
REMARK    3  A    between atoms: N_11  and  C_12
REMARK    4  A    between atoms: C_12  and  C_13
REMARK    5  A    between atoms: N_16  and  C_17
REMARK    6  A    between atoms: C_17  and  C_18
REMARK    7  A    between atoms: C_19  and  C_20
REMARK                            x       y       z     vdW  Elec       q    Type
REMARK                         _______ _______ _______ _____ _____    ______ ____
ROOT
ATOM      1  C   UNL     1      47.167   8.430  14.425  0.00  0.00    +0.000 C 
ENDROOT
BRANCH   1   2
ATOM      2  C   UNL     1      47.415   8.565  12.913  0.00  0.00    +0.000 C 
ATOM      3  C   UNL     1      46.166   9.035  12.152  0.00  0.00    +0.000 C 
ATOM      4  C   UNL     1      45.120   7.932  12.020  0.00  0.00    +0.000 C 
ATOM      5  N   UNL     1      45.692   6.788  11.298  0.00  0.00    +0.000 NA
ATOM      6  C   UNL     1      46.818   6.215  12.050  0.00  0.00    +0.000 C 
ATOM      7  C   UNL     1      47.922   7.249  12.302  0.00  0.00    +0.000 C 
BRANCH   5   8
ATOM      8  C   UNL     1      44.680   5.760  11.012  0.00  0.00    +0.000 C 
BRANCH   8   9
ATOM      9  C   UNL     1      45.267   4.610  10.243  0.00  0.00    +0.000 C 
ATOM     10  C   UNL     1      45.226   4.497   8.904  0.00  0.00    +0.000 C 
BRANCH  10  11
ATOM     11  C   UNL     1      45.849   3.401   8.148  0.00  0.00    +0.000 A 
ATOM     12  C   UNL     1      46.571   3.624   6.968  0.00  0.00    +0.000 A 
ATOM     13  C   UNL     1      47.171   2.563   6.286  0.00  0.00    +0.000 A 
ATOM     14  C   UNL     1      47.067   1.266   6.781  0.00  0.00    +0.000 A 
ATOM     15  C   UNL     1      46.365   1.030   7.961  0.00  0.00    +0.000 A 
ATOM     16  C   UNL     1      45.763   2.092   8.643  0.00  0.00    +0.000 A 
ENDBRANCH  10  11
ENDBRANCH   8   9
ENDBRANCH   5   8
ENDBRANCH   1   2
BRANCH   1  19
ATOM     17  C   UNL     1      48.734   8.331  16.361  0.00  0.00    +0.000 C 
ATOM     18  O   UNL     1      48.145   9.210  16.985  0.00  0.00    +0.000 OA
ATOM     19  N   UNL     1      48.329   7.920  15.119  0.00  0.00    +0.000 N 
ATOM     20  H   UNL     1      48.881   7.227  14.624  0.00  0.00    +0.000 HD
BRANCH  17  28
ATOM     21  C   UNL     1      48.890   2.671  17.214  0.00  0.00    +0.000 C 
ATOM     22  N   UNL     1      49.721   3.843  17.393  0.00  0.00    +0.000 N 
ATOM     23  C   UNL     1      50.973   3.740  17.959  0.00  0.00    +0.000 A 
ATOM     24  N   UNL     1      51.781   4.727  18.172  0.00  0.00    +0.000 NA
ATOM     25  C   UNL     1      51.309   5.938  17.783  0.00  0.00    +0.000 A 
ATOM     26  S   UNL     1      52.251   7.343  17.969  0.00  0.00    +0.000 S 
ATOM     27  C   UNL     1      51.030   8.317  17.286  0.00  0.00    +0.000 A 
ATOM     28  C   UNL     1      49.885   7.613  16.933  0.00  0.00    +0.000 A 
ATOM     29  C   UNL     1      50.078   6.206  17.217  0.00  0.00    +0.000 A 
ATOM     30  C   UNL     1      49.195   5.071  17.009  0.00  0.00    +0.000 A 
ATOM     31  O   UNL     1      48.058   5.184  16.555  0.00  0.00    +0.000 OA
ENDBRANCH  17  28
ENDBRANCH   1  19
TORSDOF 6
ENDMDL
MODEL 9
REMARK VINA RESULT:    -6.702      2.844      3.658
REMARK INTER + INTRA:         -10.328
REMARK INTER:                  -9.528
REMARK INTRA:                  -0.800
REMARK UNBOUND:                -1.275
REMARK  Name = 
REMARK  7 active torsions:
REMARK  status: ('A' for Active; 'I' for Inactive)
REMARK    1  A    between atoms: C_1  and  N_2
REMARK    2  A    between atoms: C_8  and  C_9
REMARK    3  A    between atoms: N_11  and  C_12
REMARK    4  A    between atoms: C_12  and  C_13
REMARK    5  A    between atoms: N_16  and  C_17
REMARK    6  A    between atoms: C_17  and  C_18
REMARK    7  A    between atoms: C_19  and  C_20
REMARK                            x       y       z     vdW  Elec       q    Type
REMARK                         _______ _______ _______ _____ _____    ______ ____
ROOT
ATOM      1  C   UNL     1      47.101   7.418  11.953  0.00  0.00    +0.000 C 
ENDROOT
BRANCH   1   2
ATOM      2  C   UNL     1      46.005   7.020  12.956  0.00  0.00    +0.000 C 
ATOM      3  C   UNL     1      46.017   5.518  13.274  0.00  0.00    +0.000 C 
ATOM      4  C   UNL     1      45.461   4.679  12.126  0.00  0.00    +0.000 C 
ATOM      5  N   UNL     1      44.075   5.077  11.845  0.00  0.00    +0.000 NA
ATOM      6  C   UNL     1      44.020   6.480  11.409  0.00  0.00    +0.000 C 
ATOM      7  C   UNL     1      44.608   7.429  12.461  0.00  0.00    +0.000 C 
BRANCH   5   8
ATOM      8  C   UNL     1      43.445   4.198  10.849  0.00  0.00    +0.000 C 
BRANCH   8   9
ATOM      9  C   UNL     1      44.352   3.959   9.675  0.00  0.00    +0.000 C 
ATOM     10  C   UNL     1      44.968   2.791   9.420  0.00  0.00    +0.000 C 
BRANCH  10  11
ATOM     11  C   UNL     1      45.810   2.542   8.241  0.00  0.00    +0.000 A 
ATOM     12  C   UNL     1      46.459   1.318   8.032  0.00  0.00    +0.000 A 
ATOM     13  C   UNL     1      47.234   1.105   6.890  0.00  0.00    +0.000 A 
ATOM     14  C   UNL     1      47.360   2.110   5.935  0.00  0.00    +0.000 A 
ATOM     15  C   UNL     1      46.709   3.328   6.120  0.00  0.00    +0.000 A 
ATOM     16  C   UNL     1      45.935   3.541   7.265  0.00  0.00    +0.000 A 
ENDBRANCH  10  11
ENDBRANCH   8   9
ENDBRANCH   5   8
ENDBRANCH   1   2
BRANCH   1  19
ATOM     17  C   UNL     1      49.189   7.711  13.283  0.00  0.00    +0.000 C 
ATOM     18  O   UNL     1      49.327   6.507  13.481  0.00  0.00    +0.000 OA
ATOM     19  N   UNL     1      48.134   8.220  12.573  0.00  0.00    +0.000 N 
ATOM     20  H   UNL     1      48.039   9.226  12.483  0.00  0.00    +0.000 HD
BRANCH  17  28
ATOM     21  C   UNL     1      48.835  10.555  18.241  0.00  0.00    +0.000 C 
ATOM     22  N   UNL     1      49.703  10.441  17.087  0.00  0.00    +0.000 N 
ATOM     23  C   UNL     1      50.839  11.212  16.979  0.00  0.00    +0.000 A 
ATOM     24  N   UNL     1      51.666  11.192  15.986  0.00  0.00    +0.000 NA
ATOM     25  C   UNL     1      51.342  10.318  14.999  0.00  0.00    +0.000 A 
ATOM     26  S   UNL     1      52.333  10.146  13.627  0.00  0.00    +0.000 S 
ATOM     27  C   UNL     1      51.303   8.959  12.966  0.00  0.00    +0.000 A 
ATOM     28  C   UNL     1      50.185   8.691  13.746  0.00  0.00    +0.000 A 
ATOM     29  C   UNL     1      50.238   9.491  14.953  0.00  0.00    +0.000 A 
ATOM     30  C   UNL     1      49.326   9.557  16.083  0.00  0.00    +0.000 A 
ATOM     31  O   UNL     1      48.286   8.904  16.139  0.00  0.00    +0.000 OA
ENDBRANCH  17  28
ENDBRANCH   1  19
TORSDOF 6
ENDMDL
