MODEL 1
REMARK VINA RESULT:    -8.760      0.000      0.000
REMARK INTER + INTRA:         -12.064
REMARK INTER:                 -11.320
REMARK INTRA:                  -0.744
REMARK UNBOUND:                -0.744
REMARK  Name = 
REMARK  5 active torsions:
REMARK  status: ('A' for Active; 'I' for Inactive)
REMARK    1  A    between atoms: C_2  and  C_4
REMARK    2  A    between atoms: C_7  and  O_8
REMARK    3  A    between atoms: O_8  and  C_9
REMARK    4  A    between atoms: C_9  and  C_10
REMARK    5  A    between atoms: C_14  and  C_15
REMARK                            x       y       z     vdW  Elec       q    Type
REMARK                         _______ _______ _______ _____ _____    ______ ____
ROOT
ATOM      1  C   UNL     1      43.692   4.338  11.259  0.00  0.00    +0.000 C 
ENDROOT
BRANCH   1   2
ATOM      2  C   UNL     1      44.942   4.821  11.949  0.00  0.00    +0.000 A 
ATOM      3  C   UNL     1      45.524   4.026  12.929  0.00  0.00    +0.000 A 
ATOM      4  N   UNL     1      46.623   4.371  13.630  0.00  0.00    +0.000 NA
ATOM      5  C   UNL     1      47.170   5.578  13.342  0.00  0.00    +0.000 A 
ATOM      6  C   UNL     1      46.697   6.468  12.373  0.00  0.00    +0.000 A 
ATOM      7  C   UNL     1      45.557   6.047  11.672  0.00  0.00    +0.000 A 
BRANCH   6   8
ATOM      8  C   UNL     1      47.344   7.771  12.108  0.00  0.00    +0.000 A 
ATOM      9  C   UNL     1      46.651   8.988  12.272  0.00  0.00    +0.000 A 
ATOM     10  C   UNL     1      47.263  10.222  12.018  0.00  0.00    +0.000 A 
ATOM     11  C   UNL     1      48.591  10.266  11.607  0.00  0.00    +0.000 A 
ATOM     12  C   UNL     1      49.289   9.080  11.446  0.00  0.00    +0.000 A 
ATOM     13  F   UNL     1      50.569   9.116  11.055  0.00  0.00    +0.000 F 
ATOM     14  C   UNL     1      48.682   7.850  11.681  0.00  0.00    +0.000 A 
ENDBRANCH   6   8
ENDBRANCH   1   2
BRANCH   1  15
ATOM     15  O   UNL     1      43.675   4.681   9.866  0.00  0.00    +0.000 OA
BRANCH  15  19
ATOM     16  C   UNL     1      46.355   2.384   7.742  0.00  0.00    +0.000 A 
ATOM     17  C   UNL     1      45.494   1.771   8.653  0.00  0.00    +0.000 A 
ATOM     18  C   UNL     1      44.584   2.556   9.368  0.00  0.00    +0.000 A 
ATOM     19  C   UNL     1      44.572   3.924   9.140  0.00  0.00    +0.000 A 
ATOM     20  N   UNL     1      45.389   4.541   8.260  0.00  0.00    +0.000 NA
ATOM     21  C   UNL     1      46.270   3.761   7.590  0.00  0.00    +0.000 A 
BRANCH  16  23
ATOM     22  N   UNL     1      48.442   2.381   6.487  0.00  0.00    +0.000 N 
ATOM     23  C   UNL     1      47.377   1.664   6.956  0.00  0.00    +0.000 C 
ATOM     24  O   UNL     1      47.294   0.458   6.759  0.00  0.00    +0.000 OA
ATOM     25  H   UNL     1      49.177   1.842   6.050  0.00  0.00    +0.000 HD
ATOM     26  H   UNL     1      48.678   3.300   6.834  0.00  0.00    +0.000 HD
ENDBRANCH  16  23
ENDBRANCH  15  19
ENDBRANCH   1  15
TORSDOF 5
ENDMDL
MODEL 2
REMARK VINA RESULT:    -8.753      0.937      1.354
REMARK INTER + INTRA:         -12.056
REMARK INTER:                 -11.368
REMARK INTRA:                  -0.688
REMARK UNBOUND:                -0.744
REMARK  Name = 
REMARK  5 active torsions:
REMARK  status: ('A' for Active; 'I' for Inactive)
REMARK    1  A    between atoms: C_2  and  C_4
REMARK    2  A    between atoms: C_7  and  O_8
REMARK    3  A    between atoms: O_8  and  C_9
REMARK    4  A    between atoms: C_9  and  C_10
REMARK    5  A    between atoms: C_14  and  C_15
REMARK                            x       y       z     vdW  Elec       q    Type
REMARK                         _______ _______ _______ _____ _____    ______ ____
ROOT
ATOM      1  C   UNL     1      43.501   4.438  11.116  0.00  0.00    +0.000 C 
ENDROOT
BRANCH   1   2
ATOM      2  C   UNL     1      44.757   4.822  11.854  0.00  0.00    +0.000 A 
ATOM      3  C   UNL     1      45.251   3.972  12.836  0.00  0.00    +0.000 A 
ATOM      4  N   UNL     1      46.347   4.228  13.578  0.00  0.00    +0.000 NA
ATOM      5  C   UNL     1      46.984   5.400  13.331  0.00  0.00    +0.000 A 
ATOM      6  C   UNL     1      46.605   6.337  12.367  0.00  0.00    +0.000 A 
ATOM      7  C   UNL     1      45.462   6.008  11.621  0.00  0.00    +0.000 A 
BRANCH   6   8
ATOM      8  C   UNL     1      47.347   7.598  12.147  0.00  0.00    +0.000 A 
ATOM      9  C   UNL     1      48.720   7.603  11.830  0.00  0.00    +0.000 A 
ATOM     10  C   UNL     1      49.422   8.797  11.624  0.00  0.00    +0.000 A 
ATOM     11  C   UNL     1      48.759  10.017  11.718  0.00  0.00    +0.000 A 
ATOM     12  C   UNL     1      47.408  10.031  12.023  0.00  0.00    +0.000 A 
ATOM     13  F   UNL     1      46.763  11.201  12.111  0.00  0.00    +0.000 F 
ATOM     14  C   UNL     1      46.708   8.848  12.244  0.00  0.00    +0.000 A 
ENDBRANCH   6   8
ENDBRANCH   1   2
BRANCH   1  15
ATOM     15  O   UNL     1      43.579   4.746   9.716  0.00  0.00    +0.000 OA
BRANCH  15  19
ATOM     16  C   UNL     1      46.359   2.363   7.830  0.00  0.00    +0.000 A 
ATOM     17  C   UNL     1      45.435   1.785   8.700  0.00  0.00    +0.000 A 
ATOM     18  C   UNL     1      44.491   2.599   9.334  0.00  0.00    +0.000 A 
ATOM     19  C   UNL     1      44.511   3.960   9.069  0.00  0.00    +0.000 A 
ATOM     20  N   UNL     1      45.389   4.544   8.226  0.00  0.00    +0.000 NA
ATOM     21  C   UNL     1      46.301   3.737   7.635  0.00  0.00    +0.000 A 
BRANCH  16  23
ATOM     22  N   UNL     1      48.400   2.328   6.500  0.00  0.00    +0.000 N 
ATOM     23  C   UNL     1      47.420   1.611   7.129  0.00  0.00    +0.000 C 
ATOM     24  O   UNL     1      47.443   0.387   7.141  0.00  0.00    +0.000 OA
ATOM     25  H   UNL     1      49.168   1.788   6.126  0.00  0.00    +0.000 HD
ATOM     26  H   UNL     1      48.559   3.309   6.678  0.00  0.00    +0.000 HD
ENDBRANCH  16  23
ENDBRANCH  15  19
ENDBRANCH   1  15
TORSDOF 5
ENDMDL
MODEL 3
REMARK VINA RESULT:    -8.538      1.252      1.736
REMARK INTER + INTRA:         -11.778
REMARK INTER:                 -11.022
REMARK INTRA:                  -0.756
REMARK UNBOUND:                -0.744
REMARK  Name = 
REMARK  5 active torsions:
REMARK  status: ('A' for Active; 'I' for Inactive)
REMARK    1  A    between atoms: C_2  and  C_4
REMARK    2  A    between atoms: C_7  and  O_8
REMARK    3  A    between atoms: O_8  and  C_9
REMARK    4  A    between atoms: C_9  and  C_10
REMARK    5  A    between atoms: C_14  and  C_15
REMARK                            x       y       z     vdW  Elec       q    Type
REMARK                         _______ _______ _______ _____ _____    ______ ____
ROOT
ATOM      1  C   UNL     1      43.674   4.828  10.765  0.00  0.00    +0.000 C 
ENDROOT
BRANCH   1   2
ATOM      2  C   UNL     1      44.767   4.934  11.797  0.00  0.00    +0.000 A 
ATOM      3  C   UNL     1      44.757   4.069  12.884  0.00  0.00    +0.000 A 
ATOM      4  N   UNL     1      45.665   4.094  13.880  0.00  0.00    +0.000 NA
ATOM      5  C   UNL     1      46.635   5.038  13.791  0.00  0.00    +0.000 A 
ATOM      6  C   UNL     1      46.772   5.959  12.748  0.00  0.00    +0.000 A 
ATOM      7  C   UNL     1      45.801   5.875  11.738  0.00  0.00    +0.000 A 
BRANCH   6   8
ATOM      8  C   UNL     1      47.856   6.964  12.711  0.00  0.00    +0.000 A 
ATOM      9  C   UNL     1      48.989   6.861  13.543  0.00  0.00    +0.000 A 
ATOM     10  C   UNL     1      50.015   7.813  13.509  0.00  0.00    +0.000 A 
ATOM     11  C   UNL     1      49.936   8.886  12.627  0.00  0.00    +0.000 A 
ATOM     12  C   UNL     1      48.833   9.001  11.798  0.00  0.00    +0.000 A 
ATOM     13  F   UNL     1      48.753  10.029  10.943  0.00  0.00    +0.000 F 
ATOM     14  C   UNL     1      47.802   8.066  11.838  0.00  0.00    +0.000 A 
ENDBRANCH   6   8
ENDBRANCH   1   2
BRANCH   1  15
ATOM     15  O   UNL     1      43.555   3.499  10.237  0.00  0.00    +0.000 OA
BRANCH  15  19
ATOM     16  C   UNL     1      46.478   2.715   7.444  0.00  0.00    +0.000 A 
ATOM     17  C   UNL     1      45.947   4.002   7.541  0.00  0.00    +0.000 A 
ATOM     18  C   UNL     1      44.958   4.262   8.494  0.00  0.00    +0.000 A 
ATOM     19  C   UNL     1      44.542   3.222   9.313  0.00  0.00    +0.000 A 
ATOM     20  N   UNL     1      45.044   1.972   9.245  0.00  0.00    +0.000 NA
ATOM     21  C   UNL     1      45.991   1.741   8.305  0.00  0.00    +0.000 A 
BRANCH  16  23
ATOM     22  N   UNL     1      47.531   2.981   5.264  0.00  0.00    +0.000 N 
ATOM     23  C   UNL     1      47.502   2.315   6.457  0.00  0.00    +0.000 C 
ATOM     24  O   UNL     1      48.321   1.441   6.711  0.00  0.00    +0.000 OA
ATOM     25  H   UNL     1      48.309   2.762   4.656  0.00  0.00    +0.000 HD
ATOM     26  H   UNL     1      47.054   3.859   5.116  0.00  0.00    +0.000 HD
ENDBRANCH  16  23
ENDBRANCH  15  19
ENDBRANCH   1  15
TORSDOF 5
ENDMDL
MODEL 4
REMARK VINA RESULT:    -8.359      3.624      6.847
REMARK INTER + INTRA:         -11.546
REMARK INTER:                 -10.696
REMARK INTRA:                  -0.850
REMARK UNBOUND:                -0.744
REMARK  Name = 
REMARK  5 active torsions:
REMARK  status: ('A' for Active; 'I' for Inactive)
REMARK    1  A    between atoms: C_2  and  C_4
REMARK    2  A    between atoms: C_7  and  O_8
REMARK    3  A    between atoms: O_8  and  C_9
REMARK    4  A    between atoms: C_9  and  C_10
REMARK    5  A    between atoms: C_14  and  C_15
REMARK                            x       y       z     vdW  Elec       q    Type
REMARK                         _______ _______ _______ _____ _____    ______ ____
ROOT
ATOM      1  C   UNL     1      43.944   6.534  11.523  0.00  0.00    +0.000 C 
ENDROOT
BRANCH   1   2
ATOM      2  C   UNL     1      43.961   5.099  11.062  0.00  0.00    +0.000 A 
ATOM      3  C   UNL     1      43.181   4.164  11.732  0.00  0.00    +0.000 A 
ATOM      4  N   UNL     1      43.142   2.852  11.425  0.00  0.00    +0.000 NA
ATOM      5  C   UNL     1      43.928   2.447  10.396  0.00  0.00    +0.000 A 
ATOM      6  C   UNL     1      44.747   3.281   9.631  0.00  0.00    +0.000 A 
ATOM      7  C   UNL     1      44.737   4.637   9.994  0.00  0.00    +0.000 A 
BRANCH   6   8
ATOM      8  C   UNL     1      45.580   2.774   8.518  0.00  0.00    +0.000 A 
ATOM      9  C   UNL     1      46.040   3.624   7.492  0.00  0.00    +0.000 A 
ATOM     10  C   UNL     1      46.827   3.143   6.438  0.00  0.00    +0.000 A 
ATOM     11  C   UNL     1      47.185   1.800   6.396  0.00  0.00    +0.000 A 
ATOM     12  C   UNL     1      46.747   0.951   7.400  0.00  0.00    +0.000 A 
ATOM     13  F   UNL     1      47.092  -0.342   7.368  0.00  0.00    +0.000 F 
ATOM     14  C   UNL     1      45.951   1.419   8.442  0.00  0.00    +0.000 A 
ENDBRANCH   6   8
ENDBRANCH   1   2
BRANCH   1  15
ATOM     15  O   UNL     1      44.565   6.698  12.807  0.00  0.00    +0.000 OA
BRANCH  15  19
ATOM     16  C   UNL     1      48.584   7.514  12.426  0.00  0.00    +0.000 A 
ATOM     17  C   UNL     1      47.649   8.497  12.101  0.00  0.00    +0.000 A 
ATOM     18  C   UNL     1      46.286   8.215  12.236  0.00  0.00    +0.000 A 
ATOM     19  C   UNL     1      45.915   6.959  12.694  0.00  0.00    +0.000 A 
ATOM     20  N   UNL     1      46.800   5.993  13.022  0.00  0.00    +0.000 NA
ATOM     21  C   UNL     1      48.112   6.287  12.870  0.00  0.00    +0.000 A 
BRANCH  16  23
ATOM     22  N   UNL     1      50.782   7.778  13.442  0.00  0.00    +0.000 N 
ATOM     23  C   UNL     1      50.045   7.686  12.294  0.00  0.00    +0.000 C 
ATOM     24  O   UNL     1      50.585   7.710  11.196  0.00  0.00    +0.000 OA
ATOM     25  H   UNL     1      51.786   7.783  13.322  0.00  0.00    +0.000 HD
ATOM     26  H   UNL     1      50.420   7.512  14.347  0.00  0.00    +0.000 HD
ENDBRANCH  16  23
ENDBRANCH  15  19
ENDBRANCH   1  15
TORSDOF 5
ENDMDL
MODEL 5
REMARK VINA RESULT:    -8.340      2.442      3.818
REMARK INTER + INTRA:         -11.522
REMARK INTER:                 -10.850
REMARK INTRA:                  -0.672
REMARK UNBOUND:                -0.744
REMARK  Name = 
REMARK  5 active torsions:
REMARK  status: ('A' for Active; 'I' for Inactive)
REMARK    1  A    between atoms: C_2  and  C_4
REMARK    2  A    between atoms: C_7  and  O_8
REMARK    3  A    between atoms: O_8  and  C_9
REMARK    4  A    between atoms: C_9  and  C_10
REMARK    5  A    between atoms: C_14  and  C_15
REMARK                            x       y       z     vdW  Elec       q    Type
REMARK                         _______ _______ _______ _____ _____    ______ ____
ROOT
ATOM      1  C   UNL     1      44.039   4.298  11.492  0.00  0.00    +0.000 C 
ENDROOT
BRANCH   1   2
ATOM      2  C   UNL     1      45.125   5.075  12.191  0.00  0.00    +0.000 A 
ATOM      3  C   UNL     1      45.538   6.289  11.657  0.00  0.00    +0.000 A 
ATOM      4  N   UNL     1      46.519   7.052  12.181  0.00  0.00    +0.000 NA
ATOM      5  C   UNL     1      47.126   6.575  13.296  0.00  0.00    +0.000 A 
ATOM      6  C   UNL     1      46.802   5.379  13.943  0.00  0.00    +0.000 A 
ATOM      7  C   UNL     1      45.766   4.636  13.355  0.00  0.00    +0.000 A 
BRANCH   6   8
ATOM      8  C   UNL     1      47.505   4.917  15.159  0.00  0.00    +0.000 A 
ATOM      9  C   UNL     1      47.294   3.629  15.691  0.00  0.00    +0.000 A 
ATOM     10  C   UNL     1      47.959   3.192  16.844  0.00  0.00    +0.000 A 
ATOM     11  C   UNL     1      48.862   4.033  17.484  0.00  0.00    +0.000 A 
ATOM     12  C   UNL     1      49.086   5.301  16.972  0.00  0.00    +0.000 A 
ATOM     13  F   UNL     1      49.959   6.114  17.582  0.00  0.00    +0.000 F 
ATOM     14  C   UNL     1      48.418   5.747  15.836  0.00  0.00    +0.000 A 
ENDBRANCH   6   8
ENDBRANCH   1   2
BRANCH   1  15
ATOM     15  O   UNL     1      43.906   4.672  10.113  0.00  0.00    +0.000 OA
BRANCH  15  19
ATOM     16  C   UNL     1      46.425   2.454   7.726  0.00  0.00    +0.000 A 
ATOM     17  C   UNL     1      45.623   1.807   8.667  0.00  0.00    +0.000 A 
ATOM     18  C   UNL     1      44.767   2.566   9.472  0.00  0.00    +0.000 A 
ATOM     19  C   UNL     1      44.748   3.942   9.299  0.00  0.00    +0.000 A 
ATOM     20  N   UNL     1      45.508   4.591   8.392  0.00  0.00    +0.000 NA
ATOM     21  C   UNL     1      46.338   3.836   7.634  0.00  0.00    +0.000 A 
BRANCH  16  23
ATOM     22  N   UNL     1      48.473   2.470   6.408  0.00  0.00    +0.000 N 
ATOM     23  C   UNL     1      47.388   1.762   6.845  0.00  0.00    +0.000 C 
ATOM     24  O   UNL     1      47.240   0.585   6.543  0.00  0.00    +0.000 OA
ATOM     25  H   UNL     1      49.169   1.940   5.901  0.00  0.00    +0.000 HD
ATOM     26  H   UNL     1      48.763   3.341   6.829  0.00  0.00    +0.000 HD
ENDBRANCH  16  23
ENDBRANCH  15  19
ENDBRANCH   1  15
TORSDOF 5
ENDMDL
MODEL 6
REMARK VINA RESULT:    -8.103      3.779      7.346
REMARK INTER + INTRA:         -11.216
REMARK INTER:                 -10.827
REMARK INTRA:                  -0.388
REMARK UNBOUND:                -0.744
REMARK  Name = 
REMARK  5 active torsions:
REMARK  status: ('A' for Active; 'I' for Inactive)
REMARK    1  A    between atoms: C_2  and  C_4
REMARK    2  A    between atoms: C_7  and  O_8
REMARK    3  A    between atoms: O_8  and  C_9
REMARK    4  A    between atoms: C_9  and  C_10
REMARK    5  A    between atoms: C_14  and  C_15
REMARK                            x       y       z     vdW  Elec       q    Type
REMARK                         _______ _______ _______ _____ _____    ______ ____
ROOT
ATOM      1  C   UNL     1      45.937   7.202  11.940  0.00  0.00    +0.000 C 
ENDROOT
BRANCH   1   2
ATOM      2  C   UNL     1      45.202   6.166  11.130  0.00  0.00    +0.000 A 
ATOM      3  C   UNL     1      43.841   5.983  11.341  0.00  0.00    +0.000 A 
ATOM      4  N   UNL     1      43.091   5.066  10.695  0.00  0.00    +0.000 NA
ATOM      5  C   UNL     1      43.735   4.284   9.793  0.00  0.00    +0.000 A 
ATOM      6  C   UNL     1      45.093   4.371   9.474  0.00  0.00    +0.000 A 
ATOM      7  C   UNL     1      45.816   5.351  10.173  0.00  0.00    +0.000 A 
BRANCH   6   8
ATOM      8  C   UNL     1      45.734   3.487   8.477  0.00  0.00    +0.000 A 
ATOM      9  C   UNL     1      46.333   4.000   7.309  0.00  0.00    +0.000 A 
ATOM     10  C   UNL     1      46.939   3.162   6.364  0.00  0.00    +0.000 A 
ATOM     11  C   UNL     1      46.970   1.788   6.575  0.00  0.00    +0.000 A 
ATOM     12  C   UNL     1      46.391   1.266   7.721  0.00  0.00    +0.000 A 
ATOM     13  F   UNL     1      46.423  -0.056   7.932  0.00  0.00    +0.000 F 
ATOM     14  C   UNL     1      45.775   2.092   8.656  0.00  0.00    +0.000 A 
ENDBRANCH   6   8
ENDBRANCH   1   2
BRANCH   1  15
ATOM     15  O   UNL     1      47.280   6.800  12.245  0.00  0.00    +0.000 OA
BRANCH  15  19
ATOM     16  C   UNL     1      47.545   4.740  15.802  0.00  0.00    +0.000 A 
ATOM     17  C   UNL     1      48.313   5.890  15.614  0.00  0.00    +0.000 A 
ATOM     18  C   UNL     1      48.215   6.586  14.405  0.00  0.00    +0.000 A 
ATOM     19  C   UNL     1      47.350   6.104  13.434  0.00  0.00    +0.000 A 
ATOM     20  N   UNL     1      46.591   4.999  13.594  0.00  0.00    +0.000 NA
ATOM     21  C   UNL     1      46.713   4.335  14.767  0.00  0.00    +0.000 A 
BRANCH  16  23
ATOM     22  N   UNL     1      48.721   3.953  17.784  0.00  0.00    +0.000 N 
ATOM     23  C   UNL     1      47.588   3.906  17.021  0.00  0.00    +0.000 C 
ATOM     24  O   UNL     1      46.628   3.224  17.357  0.00  0.00    +0.000 OA
ATOM     25  H   UNL     1      48.677   3.460  18.666  0.00  0.00    +0.000 HD
ATOM     26  H   UNL     1      49.416   4.678  17.687  0.00  0.00    +0.000 HD
ENDBRANCH  16  23
ENDBRANCH  15  19
ENDBRANCH   1  15
TORSDOF 5
ENDMDL
MODEL 7
REMARK VINA RESULT:    -8.023      3.731      7.137
REMARK INTER + INTRA:         -11.112
REMARK INTER:                 -10.393
REMARK INTRA:                  -0.719
REMARK UNBOUND:                -0.744
REMARK  Name = 
REMARK  5 active torsions:
REMARK  status: ('A' for Active; 'I' for Inactive)
REMARK    1  A    between atoms: C_2  and  C_4
REMARK    2  A    between atoms: C_7  and  O_8
REMARK    3  A    between atoms: O_8  and  C_9
REMARK    4  A    between atoms: C_9  and  C_10
REMARK    5  A    between atoms: C_14  and  C_15
REMARK                            x       y       z     vdW  Elec       q    Type
REMARK                         _______ _______ _______ _____ _____    ______ ____
ROOT
ATOM      1  C   UNL     1      43.935   6.595  11.569  0.00  0.00    +0.000 C 
ENDROOT
BRANCH   1   2
ATOM      2  C   UNL     1      43.953   5.161  11.105  0.00  0.00    +0.000 A 
ATOM      3  C   UNL     1      43.172   4.225  11.773  0.00  0.00    +0.000 A 
ATOM      4  N   UNL     1      43.134   2.913  11.463  0.00  0.00    +0.000 NA
ATOM      5  C   UNL     1      43.920   2.511  10.434  0.00  0.00    +0.000 A 
ATOM      6  C   UNL     1      44.740   3.346   9.671  0.00  0.00    +0.000 A 
ATOM      7  C   UNL     1      44.729   4.702  10.036  0.00  0.00    +0.000 A 
BRANCH   6   8
ATOM      8  C   UNL     1      45.574   2.842   8.558  0.00  0.00    +0.000 A 
ATOM      9  C   UNL     1      46.049   3.697   7.543  0.00  0.00    +0.000 A 
ATOM     10  C   UNL     1      46.837   3.218   6.489  0.00  0.00    +0.000 A 
ATOM     11  C   UNL     1      47.181   1.871   6.435  0.00  0.00    +0.000 A 
ATOM     12  C   UNL     1      46.727   1.017   7.428  0.00  0.00    +0.000 A 
ATOM     13  F   UNL     1      47.058  -0.280   7.384  0.00  0.00    +0.000 F 
ATOM     14  C   UNL     1      45.931   1.484   8.470  0.00  0.00    +0.000 A 
ENDBRANCH   6   8
ENDBRANCH   1   2
BRANCH   1  15
ATOM     15  O   UNL     1      45.024   7.355  11.023  0.00  0.00    +0.000 OA
BRANCH  15  19
ATOM     16  C   UNL     1      48.184   7.584  13.655  0.00  0.00    +0.000 A 
ATOM     17  C   UNL     1      48.249   6.701  12.577  0.00  0.00    +0.000 A 
ATOM     18  C   UNL     1      47.175   6.631  11.685  0.00  0.00    +0.000 A 
ATOM     19  C   UNL     1      46.078   7.450  11.908  0.00  0.00    +0.000 A 
ATOM     20  N   UNL     1      45.993   8.318  12.939  0.00  0.00    +0.000 NA
ATOM     21  C   UNL     1      47.040   8.358  13.796  0.00  0.00    +0.000 A 
BRANCH  16  23
ATOM     22  N   UNL     1      50.526   7.441  14.306  0.00  0.00    +0.000 N 
ATOM     23  C   UNL     1      49.241   7.722  14.678  0.00  0.00    +0.000 C 
ATOM     24  O   UNL     1      48.982   8.109  15.810  0.00  0.00    +0.000 OA
ATOM     25  H   UNL     1      51.238   7.650  14.993  0.00  0.00    +0.000 HD
ATOM     26  H   UNL     1      50.813   7.369  13.340  0.00  0.00    +0.000 HD
ENDBRANCH  16  23
ENDBRANCH  15  19
ENDBRANCH   1  15
TORSDOF 5
ENDMDL
MODEL 8
REMARK VINA RESULT:    -6.927      5.098      8.017
REMARK INTER + INTRA:          -9.695
REMARK INTER:                  -8.981
REMARK INTRA:                  -0.714
REMARK UNBOUND:                -0.744
REMARK  Name = 
REMARK  5 active torsions:
REMARK  status: ('A' for Active; 'I' for Inactive)
REMARK    1  A    between atoms: C_2  and  C_4
REMARK    2  A    between atoms: C_7  and  O_8
REMARK    3  A    between atoms: O_8  and  C_9
REMARK    4  A    between atoms: C_9  and  C_10
REMARK    5  A    between atoms: C_14  and  C_15
REMARK                            x       y       z     vdW  Elec       q    Type
REMARK                         _______ _______ _______ _____ _____    ______ ____
ROOT
ATOM      1  C   UNL     1      48.659   6.360  15.841  0.00  0.00    +0.000 C 
ENDROOT
BRANCH   1   2
ATOM      2  C   UNL     1      48.108   6.509  14.446  0.00  0.00    +0.000 A 
ATOM      3  C   UNL     1      48.558   7.555  13.650  0.00  0.00    +0.000 A 
ATOM      4  N   UNL     1      48.113   7.800  12.401  0.00  0.00    +0.000 NA
ATOM      5  C   UNL     1      47.164   6.960  11.920  0.00  0.00    +0.000 A 
ATOM      6  C   UNL     1      46.635   5.863  12.606  0.00  0.00    +0.000 A 
ATOM      7  C   UNL     1      47.145   5.655  13.897  0.00  0.00    +0.000 A 
BRANCH   6   8
ATOM      8  C   UNL     1      45.600   4.983  12.022  0.00  0.00    +0.000 A 
ATOM      9  C   UNL     1      44.915   4.028  12.801  0.00  0.00    +0.000 A 
ATOM     10  C   UNL     1      43.936   3.194  12.247  0.00  0.00    +0.000 A 
ATOM     11  C   UNL     1      43.609   3.307  10.899  0.00  0.00    +0.000 A 
ATOM     12  C   UNL     1      44.268   4.244  10.120  0.00  0.00    +0.000 A 
ATOM     13  F   UNL     1      43.955   4.361   8.823  0.00  0.00    +0.000 F 
ATOM     14  C   UNL     1      45.253   5.066  10.661  0.00  0.00    +0.000 A 
ENDBRANCH   6   8
ENDBRANCH   1   2
BRANCH   1  15
ATOM     15  O   UNL     1      48.118   5.215  16.518  0.00  0.00    +0.000 OA
BRANCH  15  19
ATOM     16  C   UNL     1      51.080   2.507  17.444  0.00  0.00    +0.000 A 
ATOM     17  C   UNL     1      51.305   3.869  17.649  0.00  0.00    +0.000 A 
ATOM     18  C   UNL     1      50.294   4.783  17.336  0.00  0.00    +0.000 A 
ATOM     19  C   UNL     1      49.097   4.295  16.832  0.00  0.00    +0.000 A 
ATOM     20  N   UNL     1      48.852   2.983  16.632  0.00  0.00    +0.000 NA
ATOM     21  C   UNL     1      49.851   2.119  16.930  0.00  0.00    +0.000 A 
BRANCH  16  23
ATOM     22  N   UNL     1      51.627   0.226  18.099  0.00  0.00    +0.000 N 
ATOM     23  C   UNL     1      52.082   1.454  17.708  0.00  0.00    +0.000 C 
ATOM     24  O   UNL     1      53.278   1.662  17.546  0.00  0.00    +0.000 OA
ATOM     25  H   UNL     1      52.326  -0.502  18.164  0.00  0.00    +0.000 HD
ATOM     26  H   UNL     1      50.663  -0.058  17.998  0.00  0.00    +0.000 HD
ENDBRANCH  16  23
ENDBRANCH  15  19
ENDBRANCH   1  15
TORSDOF 5
ENDMDL
MODEL 9
REMARK VINA RESULT:    -6.913      4.324      8.072
REMARK INTER + INTRA:          -9.678
REMARK INTER:                  -8.985
REMARK INTRA:                  -0.693
REMARK UNBOUND:                -0.744
REMARK  Name = 
REMARK  5 active torsions:
REMARK  status: ('A' for Active; 'I' for Inactive)
REMARK    1  A    between atoms: C_2  and  C_4
REMARK    2  A    between atoms: C_7  and  O_8
REMARK    3  A    between atoms: O_8  and  C_9
REMARK    4  A    between atoms: C_9  and  C_10
REMARK    5  A    between atoms: C_14  and  C_15
REMARK                            x       y       z     vdW  Elec       q    Type
REMARK                         _______ _______ _______ _____ _____    ______ ____
ROOT
ATOM      1  C   UNL     1      48.094   7.640  13.833  0.00  0.00    +0.000 C 
ENDROOT
BRANCH   1   2
ATOM      2  C   UNL     1      46.909   7.510  12.911  0.00  0.00    +0.000 A 
ATOM      3  C   UNL     1      45.996   8.555  12.832  0.00  0.00    +0.000 A 
ATOM      4  N   UNL     1      44.888   8.534  12.064  0.00  0.00    +0.000 NA
ATOM      5  C   UNL     1      44.674   7.408  11.339  0.00  0.00    +0.000 A 
ATOM      6  C   UNL     1      45.516   6.293  11.314  0.00  0.00    +0.000 A 
ATOM      7  C   UNL     1      46.657   6.379  12.126  0.00  0.00    +0.000 A 
BRANCH   6   8
ATOM      8  C   UNL     1      45.224   5.094  10.498  0.00  0.00    +0.000 A 
ATOM      9  C   UNL     1      44.494   4.006  11.017  0.00  0.00    +0.000 A 
ATOM     10  C   UNL     1      44.219   2.870  10.244  0.00  0.00    +0.000 A 
ATOM     11  C   UNL     1      44.659   2.805   8.926  0.00  0.00    +0.000 A 
ATOM     12  C   UNL     1      45.374   3.868   8.398  0.00  0.00    +0.000 A 
ATOM     13  F   UNL     1      45.796   3.813   7.128  0.00  0.00    +0.000 F 
ATOM     14  C   UNL     1      45.663   4.993   9.165  0.00  0.00    +0.000 A 
ENDBRANCH   6   8
ENDBRANCH   1   2
BRANCH   1  15
ATOM     15  O   UNL     1      48.749   6.382  14.054  0.00  0.00    +0.000 OA
BRANCH  15  19
ATOM     16  C   UNL     1      48.480   5.183  17.985  0.00  0.00    +0.000 A 
ATOM     17  C   UNL     1      49.107   6.390  17.675  0.00  0.00    +0.000 A 
ATOM     18  C   UNL     1      49.192   6.793  16.339  0.00  0.00    +0.000 A 
ATOM     19  C   UNL     1      48.643   5.971  15.367  0.00  0.00    +0.000 A 
ATOM     20  N   UNL     1      48.024   4.803  15.640  0.00  0.00    +0.000 NA
ATOM     21  C   UNL     1      47.966   4.428  16.939  0.00  0.00    +0.000 A 
BRANCH  16  23
ATOM     22  N   UNL     1      48.349   3.281  19.501  0.00  0.00    +0.000 N 
ATOM     23  C   UNL     1      48.359   4.640  19.353  0.00  0.00    +0.000 C 
ATOM     24  O   UNL     1      48.305   5.380  20.327  0.00  0.00    +0.000 OA
ATOM     25  H   UNL     1      48.377   2.942  20.452  0.00  0.00    +0.000 HD
ATOM     26  H   UNL     1      48.642   2.650  18.769  0.00  0.00    +0.000 HD
ENDBRANCH  16  23
ENDBRANCH  15  19
ENDBRANCH   1  15
TORSDOF 5
ENDMDL
