MODEL 1
REMARK VINA RESULT:    -7.098      0.000      0.000
REMARK INTER + INTRA:          -8.778
REMARK INTER:                  -8.343
REMARK INTRA:                  -0.435
REMARK UNBOUND:                -0.435
REMARK  Name = 
REMARK  4 active torsions:
REMARK  status: ('A' for Active; 'I' for Inactive)
REMARK    1  A    between atoms: C_1  and  O_2
REMARK    2  A    between atoms: O_2  and  C_3
REMARK    3  A    between atoms: N_10  and  C_11
REMARK    4  A    between atoms: C_11  and  C_12
REMARK                            x       y       z     vdW  Elec       q    Type
REMARK                         _______ _______ _______ _____ _____    ______ ____
ROOT
ATOM      1  C   UNL     1      46.705   6.259  12.986  0.00  0.00    +0.000 A 
ATOM      2  C   UNL     1      46.809   6.580  11.636  0.00  0.00    +0.000 A 
ATOM      3  C   UNL     1      46.070   5.889  10.666  0.00  0.00    +0.000 A 
ATOM      4  C   UNL     1      45.213   4.858  11.089  0.00  0.00    +0.000 A 
ATOM      5  C   UNL     1      45.092   4.523  12.442  0.00  0.00    +0.000 A 
ATOM      6  C   UNL     1      44.150   3.465  12.533  0.00  0.00    +0.000 A 
ATOM      7  C   UNL     1      43.730   3.166  11.259  0.00  0.00    +0.000 A 
ATOM      8  N   UNL     1      44.386   4.001  10.387  0.00  0.00    +0.000 N 
ATOM      9  C   UNL     1      45.860   5.221  13.394  0.00  0.00    +0.000 A 
ENDROOT
BRANCH   1  11
ATOM     10  C   UNL     1      48.796   7.068  13.735  0.00  0.00    +0.000 C 
ATOM     11  O   UNL     1      47.412   6.861  13.994  0.00  0.00    +0.000 OA
ENDBRANCH   1  11
BRANCH   8  12
ATOM     12  C   UNL     1      44.281   3.907   8.935  0.00  0.00    +0.000 C 
BRANCH  12  13
ATOM     13  C   UNL     1      45.369   3.069   8.348  0.00  0.00    +0.000 A 
ATOM     14  C   UNL     1      46.316   3.580   7.482  0.00  0.00    +0.000 A 
ATOM     15  N   UNL     1      47.293   2.844   6.918  0.00  0.00    +0.000 NA
ATOM     16  C   UNL     1      47.302   1.543   7.239  0.00  0.00    +0.000 A 
ATOM     17  N   UNL     1      46.452   0.934   8.079  0.00  0.00    +0.000 NA
ATOM     18  C   UNL     1      45.497   1.720   8.615  0.00  0.00    +0.000 A 
ENDBRANCH  12  13
ENDBRANCH   8  12
TORSDOF 3
ENDMDL
MODEL 2
REMARK VINA RESULT:    -6.453      2.928      5.599
REMARK INTER + INTRA:          -8.020
REMARK INTER:                  -7.603
REMARK INTRA:                  -0.418
REMARK UNBOUND:                -0.435
REMARK  Name = 
REMARK  4 active torsions:
REMARK  status: ('A' for Active; 'I' for Inactive)
REMARK    1  A    between atoms: C_1  and  O_2
REMARK    2  A    between atoms: O_2  and  C_3
REMARK    3  A    between atoms: N_10  and  C_11
REMARK    4  A    between atoms: C_11  and  C_12
REMARK                            x       y       z     vdW  Elec       q    Type
REMARK                         _______ _______ _______ _____ _____    ______ ____
ROOT
ATOM      1  C   UNL     1      45.665   3.506   7.965  0.00  0.00    +0.000 A 
ATOM      2  C   UNL     1      46.033   4.768   8.422  0.00  0.00    +0.000 A 
ATOM      3  C   UNL     1      45.617   5.237   9.675  0.00  0.00    +0.000 A 
ATOM      4  C   UNL     1      44.815   4.400  10.469  0.00  0.00    +0.000 A 
ATOM      5  C   UNL     1      44.437   3.126  10.030  0.00  0.00    +0.000 A 
ATOM      6  C   UNL     1      43.652   2.540  11.058  0.00  0.00    +0.000 A 
ATOM      7  C   UNL     1      43.552   3.452  12.081  0.00  0.00    +0.000 A 
ATOM      8  N   UNL     1      44.245   4.581  11.715  0.00  0.00    +0.000 N 
ATOM      9  C   UNL     1      44.854   2.686   8.759  0.00  0.00    +0.000 A 
ENDROOT
BRANCH   1  11
ATOM     10  C   UNL     1      47.220   2.250   6.705  0.00  0.00    +0.000 C 
ATOM     11  O   UNL     1      46.000   2.982   6.745  0.00  0.00    +0.000 OA
ENDBRANCH   1  11
BRANCH   8  12
ATOM     12  C   UNL     1      44.273   5.810  12.502  0.00  0.00    +0.000 C 
BRANCH  12  13
ATOM     13  C   UNL     1      45.627   6.079  13.071  0.00  0.00    +0.000 A 
ATOM     14  C   UNL     1      46.241   7.312  12.977  0.00  0.00    +0.000 A 
ATOM     15  N   UNL     1      47.471   7.578  13.458  0.00  0.00    +0.000 NA
ATOM     16  C   UNL     1      48.101   6.553  14.047  0.00  0.00    +0.000 A 
ATOM     17  N   UNL     1      47.605   5.318  14.217  0.00  0.00    +0.000 NA
ATOM     18  C   UNL     1      46.371   5.111  13.717  0.00  0.00    +0.000 A 
ENDBRANCH  12  13
ENDBRANCH   8  12
TORSDOF 3
ENDMDL
MODEL 3
REMARK VINA RESULT:    -6.407      1.398      1.890
REMARK INTER + INTRA:          -7.966
REMARK INTER:                  -7.478
REMARK INTRA:                  -0.488
REMARK UNBOUND:                -0.435
REMARK  Name = 
REMARK  4 active torsions:
REMARK  status: ('A' for Active; 'I' for Inactive)
REMARK    1  A    between atoms: C_1  and  O_2
REMARK    2  A    between atoms: O_2  and  C_3
REMARK    3  A    between atoms: N_10  and  C_11
REMARK    4  A    between atoms: C_11  and  C_12
REMARK                            x       y       z     vdW  Elec       q    Type
REMARK                         _______ _______ _______ _____ _____    ______ ____
ROOT
ATOM      1  C   UNL     1      46.145   7.521  12.699  0.00  0.00    +0.000 A 
ATOM      2  C   UNL     1      45.354   7.521  11.555  0.00  0.00    +0.000 A 
ATOM      3  C   UNL     1      44.858   6.327  11.014  0.00  0.00    +0.000 A 
ATOM      4  C   UNL     1      45.177   5.119  11.658  0.00  0.00    +0.000 A 
ATOM      5  C   UNL     1      45.968   5.099  12.811  0.00  0.00    +0.000 A 
ATOM      6  C   UNL     1      46.091   3.742  13.215  0.00  0.00    +0.000 A 
ATOM      7  C   UNL     1      45.400   2.972  12.311  0.00  0.00    +0.000 A 
ATOM      8  N   UNL     1      44.860   3.807  11.363  0.00  0.00    +0.000 N 
ATOM      9  C   UNL     1      46.469   6.311  13.323  0.00  0.00    +0.000 A 
ENDROOT
BRANCH   1  11
ATOM     10  C   UNL     1      46.779   9.783  12.438  0.00  0.00    +0.000 C 
ATOM     11  O   UNL     1      46.695   8.635  13.276  0.00  0.00    +0.000 OA
ENDBRANCH   1  11
BRANCH   8  12
ATOM     12  C   UNL     1      44.149   3.340  10.178  0.00  0.00    +0.000 C 
BRANCH  12  13
ATOM     13  C   UNL     1      45.073   3.094   9.031  0.00  0.00    +0.000 A 
ATOM     14  C   UNL     1      45.642   1.860   8.786  0.00  0.00    +0.000 A 
ATOM     15  N   UNL     1      46.498   1.614   7.776  0.00  0.00    +0.000 NA
ATOM     16  C   UNL     1      46.792   2.662   6.992  0.00  0.00    +0.000 A 
ATOM     17  N   UNL     1      46.292   3.900   7.115  0.00  0.00    +0.000 NA
ATOM     18  C   UNL     1      45.440   4.087   8.142  0.00  0.00    +0.000 A 
ENDBRANCH  12  13
ENDBRANCH   8  12
TORSDOF 3
ENDMDL
MODEL 4
REMARK VINA RESULT:    -5.635      2.996      6.060
REMARK INTER + INTRA:          -7.058
REMARK INTER:                  -6.638
REMARK INTRA:                  -0.420
REMARK UNBOUND:                -0.435
REMARK  Name = 
REMARK  4 active torsions:
REMARK  status: ('A' for Active; 'I' for Inactive)
REMARK    1  A    between atoms: C_1  and  O_2
REMARK    2  A    between atoms: O_2  and  C_3
REMARK    3  A    between atoms: N_10  and  C_11
REMARK    4  A    between atoms: C_11  and  C_12
REMARK                            x       y       z     vdW  Elec       q    Type
REMARK                         _______ _______ _______ _____ _____    ______ ____
ROOT
ATOM      1  C   UNL     1      46.729   1.920   7.048  0.00  0.00    +0.000 A 
ATOM      2  C   UNL     1      46.099   1.185   8.048  0.00  0.00    +0.000 A 
ATOM      3  C   UNL     1      45.493   1.817   9.143  0.00  0.00    +0.000 A 
ATOM      4  C   UNL     1      45.535   3.220   9.210  0.00  0.00    +0.000 A 
ATOM      5  C   UNL     1      46.160   3.977   8.214  0.00  0.00    +0.000 A 
ATOM      6  C   UNL     1      46.015   5.345   8.569  0.00  0.00    +0.000 A 
ATOM      7  C   UNL     1      45.331   5.399   9.759  0.00  0.00    +0.000 A 
ATOM      8  N   UNL     1      45.054   4.112  10.151  0.00  0.00    +0.000 N 
ATOM      9  C   UNL     1      46.776   3.316   7.134  0.00  0.00    +0.000 A 
ENDROOT
BRANCH   1  11
ATOM     10  C   UNL     1      47.915   2.325   5.045  0.00  0.00    +0.000 C 
ATOM     11  O   UNL     1      47.370   1.384   5.963  0.00  0.00    +0.000 OA
ENDBRANCH   1  11
BRANCH   8  12
ATOM     12  C   UNL     1      44.434   3.764  11.426  0.00  0.00    +0.000 C 
BRANCH  12  13
ATOM     13  C   UNL     1      45.358   3.988  12.577  0.00  0.00    +0.000 A 
ATOM     14  C   UNL     1      45.404   5.180  13.272  0.00  0.00    +0.000 A 
ATOM     15  N   UNL     1      46.244   5.421  14.298  0.00  0.00    +0.000 NA
ATOM     16  C   UNL     1      47.070   4.416  14.622  0.00  0.00    +0.000 A 
ATOM     17  N   UNL     1      47.108   3.210  14.038  0.00  0.00    +0.000 NA
ATOM     18  C   UNL     1      46.245   3.026  13.020  0.00  0.00    +0.000 A 
ENDBRANCH  12  13
ENDBRANCH   8  12
TORSDOF 3
ENDMDL
MODEL 5
REMARK VINA RESULT:    -5.301      2.686      4.249
REMARK INTER + INTRA:          -6.666
REMARK INTER:                  -6.318
REMARK INTRA:                  -0.349
REMARK UNBOUND:                -0.435
REMARK  Name = 
REMARK  4 active torsions:
REMARK  status: ('A' for Active; 'I' for Inactive)
REMARK    1  A    between atoms: C_1  and  O_2
REMARK    2  A    between atoms: O_2  and  C_3
REMARK    3  A    between atoms: N_10  and  C_11
REMARK    4  A    between atoms: C_11  and  C_12
REMARK                            x       y       z     vdW  Elec       q    Type
REMARK                         _______ _______ _______ _____ _____    ______ ____
ROOT
ATOM      1  C   UNL     1      48.810   8.221  14.227  0.00  0.00    +0.000 A 
ATOM      2  C   UNL     1      49.139   7.124  13.437  0.00  0.00    +0.000 A 
ATOM      3  C   UNL     1      48.252   6.631  12.470  0.00  0.00    +0.000 A 
ATOM      4  C   UNL     1      47.012   7.274  12.314  0.00  0.00    +0.000 A 
ATOM      5  C   UNL     1      46.663   8.380  13.096  0.00  0.00    +0.000 A 
ATOM      6  C   UNL     1      45.369   8.797  12.685  0.00  0.00    +0.000 A 
ATOM      7  C   UNL     1      44.951   7.947  11.690  0.00  0.00    +0.000 A 
ATOM      8  N   UNL     1      45.941   7.019  11.477  0.00  0.00    +0.000 N 
ATOM      9  C   UNL     1      47.566   8.844  14.072  0.00  0.00    +0.000 A 
ENDROOT
BRANCH   1  11
ATOM     10  C   UNL     1      49.127   8.572  16.543  0.00  0.00    +0.000 C 
ATOM     11  O   UNL     1      49.603   8.747  15.213  0.00  0.00    +0.000 OA
ENDBRANCH   1  11
BRANCH   8  12
ATOM     12  C   UNL     1      45.812   5.884  10.569  0.00  0.00    +0.000 C 
BRANCH  12  13
ATOM     13  C   UNL     1      44.998   4.783  11.163  0.00  0.00    +0.000 A 
ATOM     14  C   UNL     1      44.166   3.981  10.406  0.00  0.00    +0.000 A 
ATOM     15  N   UNL     1      43.401   2.997  10.916  0.00  0.00    +0.000 NA
ATOM     16  C   UNL     1      43.478   2.827  12.244  0.00  0.00    +0.000 A 
ATOM     17  N   UNL     1      44.259   3.525  13.081  0.00  0.00    +0.000 NA
ATOM     18  C   UNL     1      45.003   4.495  12.515  0.00  0.00    +0.000 A 
ENDBRANCH  12  13
ENDBRANCH   8  12
TORSDOF 3
ENDMDL
MODEL 6
REMARK VINA RESULT:    -5.217      3.534      6.150
REMARK INTER + INTRA:          -6.568
REMARK INTER:                  -6.095
REMARK INTRA:                  -0.473
REMARK UNBOUND:                -0.435
REMARK  Name = 
REMARK  4 active torsions:
REMARK  status: ('A' for Active; 'I' for Inactive)
REMARK    1  A    between atoms: C_1  and  O_2
REMARK    2  A    between atoms: O_2  and  C_3
REMARK    3  A    between atoms: N_10  and  C_11
REMARK    4  A    between atoms: C_11  and  C_12
REMARK                            x       y       z     vdW  Elec       q    Type
REMARK                         _______ _______ _______ _____ _____    ______ ____
ROOT
ATOM      1  C   UNL     1      44.680   3.685  10.933  0.00  0.00    +0.000 A 
ATOM      2  C   UNL     1      44.842   4.978  10.445  0.00  0.00    +0.000 A 
ATOM      3  C   UNL     1      45.595   5.931  11.145  0.00  0.00    +0.000 A 
ATOM      4  C   UNL     1      46.190   5.550  12.360  0.00  0.00    +0.000 A 
ATOM      5  C   UNL     1      46.042   4.254  12.866  0.00  0.00    +0.000 A 
ATOM      6  C   UNL     1      46.767   4.191  14.085  0.00  0.00    +0.000 A 
ATOM      7  C   UNL     1      47.322   5.428  14.308  0.00  0.00    +0.000 A 
ATOM      8  N   UNL     1      46.959   6.251  13.269  0.00  0.00    +0.000 N 
ATOM      9  C   UNL     1      45.265   3.321  12.151  0.00  0.00    +0.000 A 
ENDROOT
BRANCH   1  11
ATOM     10  C   UNL     1      44.521   2.117   9.172  0.00  0.00    +0.000 C 
ATOM     11  O   UNL     1      43.938   2.704  10.331  0.00  0.00    +0.000 OA
ENDBRANCH   1  11
BRANCH   8  12
ATOM     12  C   UNL     1      47.269   7.676  13.213  0.00  0.00    +0.000 C 
BRANCH  12  13
ATOM     13  C   UNL     1      48.703   7.924  12.879  0.00  0.00    +0.000 A 
ATOM     14  C   UNL     1      49.612   8.396  13.805  0.00  0.00    +0.000 A 
ATOM     15  N   UNL     1      50.905   8.653  13.527  0.00  0.00    +0.000 NA
ATOM     16  C   UNL     1      51.284   8.429  12.261  0.00  0.00    +0.000 A 
ATOM     17  N   UNL     1      50.504   7.955  11.279  0.00  0.00    +0.000 NA
ATOM     18  C   UNL     1      49.222   7.715  11.615  0.00  0.00    +0.000 A 
ENDBRANCH  12  13
ENDBRANCH   8  12
TORSDOF 3
ENDMDL
MODEL 7
REMARK VINA RESULT:    -5.189      3.556      6.237
REMARK INTER + INTRA:          -6.535
REMARK INTER:                  -6.344
REMARK INTRA:                  -0.191
REMARK UNBOUND:                -0.435
REMARK  Name = 
REMARK  4 active torsions:
REMARK  status: ('A' for Active; 'I' for Inactive)
REMARK    1  A    between atoms: C_1  and  O_2
REMARK    2  A    between atoms: O_2  and  C_3
REMARK    3  A    between atoms: N_10  and  C_11
REMARK    4  A    between atoms: C_11  and  C_12
REMARK                            x       y       z     vdW  Elec       q    Type
REMARK                         _______ _______ _______ _____ _____    ______ ____
ROOT
ATOM      1  C   UNL     1      45.061   4.125   8.670  0.00  0.00    +0.000 A 
ATOM      2  C   UNL     1      46.036   5.089   8.904  0.00  0.00    +0.000 A 
ATOM      3  C   UNL     1      46.027   5.863  10.072  0.00  0.00    +0.000 A 
ATOM      4  C   UNL     1      45.005   5.644  11.011  0.00  0.00    +0.000 A 
ATOM      5  C   UNL     1      44.017   4.677  10.796  0.00  0.00    +0.000 A 
ATOM      6  C   UNL     1      43.154   4.696  11.924  0.00  0.00    +0.000 A 
ATOM      7  C   UNL     1      43.610   5.665  12.784  0.00  0.00    +0.000 A 
ATOM      8  N   UNL     1      44.722   6.245  12.223  0.00  0.00    +0.000 N 
ATOM      9  C   UNL     1      44.039   3.925   9.606  0.00  0.00    +0.000 A 
ENDROOT
BRANCH   1  11
ATOM     10  C   UNL     1      46.182   3.211   6.801  0.00  0.00    +0.000 C 
ATOM     11  O   UNL     1      44.977   3.347   7.546  0.00  0.00    +0.000 OA
ENDBRANCH   1  11
BRANCH   8  12
ATOM     12  C   UNL     1      45.419   7.392  12.796  0.00  0.00    +0.000 C 
BRANCH  12  13
ATOM     13  C   UNL     1      45.128   8.653  12.051  0.00  0.00    +0.000 A 
ATOM     14  C   UNL     1      44.031   8.792  11.223  0.00  0.00    +0.000 A 
ATOM     15  N   UNL     1      43.757   9.906  10.518  0.00  0.00    +0.000 NA
ATOM     16  C   UNL     1      44.632  10.913  10.655  0.00  0.00    +0.000 A 
ATOM     17  N   UNL     1      45.719  10.907  11.440  0.00  0.00    +0.000 NA
ATOM     18  C   UNL     1      45.942   9.767  12.122  0.00  0.00    +0.000 A 
ENDBRANCH  12  13
ENDBRANCH   8  12
TORSDOF 3
ENDMDL
MODEL 8
REMARK VINA RESULT:    -5.114      2.044      3.482
REMARK INTER + INTRA:          -6.446
REMARK INTER:                  -6.170
REMARK INTRA:                  -0.276
REMARK UNBOUND:                -0.435
REMARK  Name = 
REMARK  4 active torsions:
REMARK  status: ('A' for Active; 'I' for Inactive)
REMARK    1  A    between atoms: C_1  and  O_2
REMARK    2  A    between atoms: O_2  and  C_3
REMARK    3  A    between atoms: N_10  and  C_11
REMARK    4  A    between atoms: C_11  and  C_12
REMARK                            x       y       z     vdW  Elec       q    Type
REMARK                         _______ _______ _______ _____ _____    ______ ____
ROOT
ATOM      1  C   UNL     1      48.818   8.334  12.976  0.00  0.00    +0.000 A 
ATOM      2  C   UNL     1      48.805   6.943  12.957  0.00  0.00    +0.000 A 
ATOM      3  C   UNL     1      47.660   6.232  12.569  0.00  0.00    +0.000 A 
ATOM      4  C   UNL     1      46.517   6.959  12.196  0.00  0.00    +0.000 A 
ATOM      5  C   UNL     1      46.512   8.358  12.205  0.00  0.00    +0.000 A 
ATOM      6  C   UNL     1      45.228   8.779  11.767  0.00  0.00    +0.000 A 
ATOM      7  C   UNL     1      44.481   7.653  11.518  0.00  0.00    +0.000 A 
ATOM      8  N   UNL     1      45.260   6.555  11.791  0.00  0.00    +0.000 N 
ATOM      9  C   UNL     1      47.669   9.047  12.616  0.00  0.00    +0.000 A 
ENDROOT
BRANCH   1  11
ATOM     10  C   UNL     1      49.616  10.019  14.428  0.00  0.00    +0.000 C 
ATOM     11  O   UNL     1      49.880   9.105  13.370  0.00  0.00    +0.000 OA
ENDBRANCH   1  11
BRANCH   8  12
ATOM     12  C   UNL     1      44.772   5.180  11.749  0.00  0.00    +0.000 C 
BRANCH  12  13
ATOM     13  C   UNL     1      44.928   4.572  10.394  0.00  0.00    +0.000 A 
ATOM     14  C   UNL     1      44.375   3.352  10.058  0.00  0.00    +0.000 A 
ATOM     15  N   UNL     1      44.520   2.766   8.854  0.00  0.00    +0.000 NA
ATOM     16  C   UNL     1      45.260   3.442   7.963  0.00  0.00    +0.000 A 
ATOM     17  N   UNL     1      45.831   4.639   8.162  0.00  0.00    +0.000 NA
ATOM     18  C   UNL     1      45.651   5.176   9.384  0.00  0.00    +0.000 A 
ENDBRANCH  12  13
ENDBRANCH   8  12
TORSDOF 3
ENDMDL
MODEL 9
REMARK VINA RESULT:    -4.964      3.194      5.437
REMARK INTER + INTRA:          -6.270
REMARK INTER:                  -5.857
REMARK INTRA:                  -0.413
REMARK UNBOUND:                -0.435
REMARK  Name = 
REMARK  4 active torsions:
REMARK  status: ('A' for Active; 'I' for Inactive)
REMARK    1  A    between atoms: C_1  and  O_2
REMARK    2  A    between atoms: O_2  and  C_3
REMARK    3  A    between atoms: N_10  and  C_11
REMARK    4  A    between atoms: C_11  and  C_12
REMARK                            x       y       z     vdW  Elec       q    Type
REMARK                         _______ _______ _______ _____ _____    ______ ____
ROOT
ATOM      1  C   UNL     1      48.558   5.127  17.634  0.00  0.00    +0.000 A 
ATOM      2  C   UNL     1      47.916   3.923  17.361  0.00  0.00    +0.000 A 
ATOM      3  C   UNL     1      47.369   3.661  16.097  0.00  0.00    +0.000 A 
ATOM      4  C   UNL     1      47.485   4.647  15.102  0.00  0.00    +0.000 A 
ATOM      5  C   UNL     1      48.130   5.862  15.356  0.00  0.00    +0.000 A 
ATOM      6  C   UNL     1      48.088   6.621  14.156  0.00  0.00    +0.000 A 
ATOM      7  C   UNL     1      47.418   5.879  13.214  0.00  0.00    +0.000 A 
ATOM      8  N   UNL     1      47.043   4.691  13.793  0.00  0.00    +0.000 N 
ATOM      9  C   UNL     1      48.654   6.107  16.640  0.00  0.00    +0.000 A 
ENDROOT
BRANCH   1  11
ATOM     10  C   UNL     1      49.279   6.871  19.056  0.00  0.00    +0.000 C 
ATOM     11  O   UNL     1      49.092   5.476  18.846  0.00  0.00    +0.000 OA
ENDBRANCH   1  11
BRANCH   8  12
ATOM     12  C   UNL     1      46.215   3.688  13.132  0.00  0.00    +0.000 C 
BRANCH  12  13
ATOM     13  C   UNL     1      44.981   4.284  12.539  0.00  0.00    +0.000 A 
ATOM     14  C   UNL     1      43.917   4.710  13.308  0.00  0.00    +0.000 A 
ATOM     15  N   UNL     1      42.781   5.228  12.800  0.00  0.00    +0.000 NA
ATOM     16  C   UNL     1      42.724   5.308  11.463  0.00  0.00    +0.000 A 
ATOM     17  N   UNL     1      43.695   4.947  10.612  0.00  0.00    +0.000 NA
ATOM     18  C   UNL     1      44.807   4.437  11.176  0.00  0.00    +0.000 A 
ENDBRANCH  12  13
ENDBRANCH   8  12
TORSDOF 3
ENDMDL
