MODEL 1
REMARK VINA RESULT:    -8.578      0.000      0.000
REMARK INTER + INTRA:         -12.693
REMARK INTER:                 -11.587
REMARK INTRA:                  -1.107
REMARK UNBOUND:                -1.107
REMARK  Name = 
REMARK  8 active torsions:
REMARK  status: ('A' for Active; 'I' for Inactive)
REMARK    1  A    between atoms: C_1  and  C_2
REMARK    2  A    between atoms: C_2  and  C_3
REMARK    3  A    between atoms: C_2  and  C_4
REMARK    4  A    between atoms: C_2  and  C_15
REMARK    5  A    between atoms: C_4  and  N_5
REMARK    6  A    between atoms: N_5  and  C_6
REMARK    7  A    between atoms: C_9  and  C_10
REMARK    8  A    between atoms: C_19  and  C_20
REMARK                            x       y       z     vdW  Elec       q    Type
REMARK                         _______ _______ _______ _____ _____    ______ ____
ROOT
ATOM      1  C   UNL     1      43.337   5.799  11.070  0.00  0.00    +0.000 C 
ATOM      2  C   UNL     1      43.931   4.825  12.109  0.00  0.00    +0.000 C 
ATOM      3  C   UNL     1      42.991   4.789  13.339  0.00  0.00    +0.000 C 
ENDROOT
BRANCH   2   4
ATOM      4  C   UNL     1      45.360   5.298  12.478  0.00  0.00    +0.000 A 
ATOM      5  C   UNL     1      46.095   6.181  11.674  0.00  0.00    +0.000 A 
ATOM      6  C   UNL     1      47.343   6.654  12.077  0.00  0.00    +0.000 A 
ATOM      7  C   UNL     1      47.878   6.267  13.305  0.00  0.00    +0.000 A 
ATOM      8  C   UNL     1      47.183   5.390  14.152  0.00  0.00    +0.000 A 
ATOM      9  C   UNL     1      45.949   4.888  13.696  0.00  0.00    +0.000 A 
BRANCH   8  10
ATOM     10  C   UNL     1      47.687   5.085  15.504  0.00  0.00    +0.000 A 
ATOM     11  C   UNL     1      48.603   5.900  16.157  0.00  0.00    +0.000 A 
ATOM     12  N   UNL     1      49.060   5.697  17.414  0.00  0.00    +0.000 NA
ATOM     13  C   UNL     1      48.558   4.632  18.044  0.00  0.00    +0.000 A 
ATOM     14  N   UNL     1      47.667   3.768  17.541  0.00  0.00    +0.000 NA
ATOM     15  C   UNL     1      47.254   4.020  16.277  0.00  0.00    +0.000 A 
ENDBRANCH   8  10
ENDBRANCH   2   4
BRANCH   2  16
ATOM     16  C   UNL     1      44.027   3.382  11.519  0.00  0.00    +0.000 C 
BRANCH  16  17
ATOM     17  N   UNL     1      43.771   3.313  10.083  0.00  0.00    +0.000 N 
ATOM     18  H   UNL     1      42.862   3.587   9.732  0.00  0.00    +0.000 HD
BRANCH  17  19
ATOM     19  C   UNL     1      44.763   3.045   9.157  0.00  0.00    +0.000 A 
ATOM     20  C   UNL     1      45.283   1.765   8.940  0.00  0.00    +0.000 A 
ATOM     21  C   UNL     1      46.278   1.536   7.986  0.00  0.00    +0.000 A 
ATOM     22  C   UNL     1      46.768   2.592   7.215  0.00  0.00    +0.000 A 
ATOM     23  C   UNL     1      46.261   3.876   7.411  0.00  0.00    +0.000 A 
ATOM     24  C   UNL     1      45.267   4.094   8.374  0.00  0.00    +0.000 A 
BRANCH  22  25
ATOM     25  C   UNL     1      47.841   2.297   6.231  0.00  0.00    +0.000 C 
ATOM     26  N   UNL     1      47.876   3.048   5.089  0.00  0.00    +0.000 N 
ATOM     27  O   UNL     1      48.650   1.396   6.412  0.00  0.00    +0.000 OA
ATOM     28  H   UNL     1      47.120   3.654   4.803  0.00  0.00    +0.000 HD
ATOM     29  H   UNL     1      48.553   2.770   4.391  0.00  0.00    +0.000 HD
ENDBRANCH  22  25
ENDBRANCH  17  19
ENDBRANCH  16  17
ENDBRANCH   2  16
TORSDOF 6
ENDMDL
MODEL 2
REMARK VINA RESULT:    -8.073      2.566      3.928
REMARK INTER + INTRA:         -12.012
REMARK INTER:                 -11.117
REMARK INTRA:                  -0.895
REMARK UNBOUND:                -1.107
REMARK  Name = 
REMARK  8 active torsions:
REMARK  status: ('A' for Active; 'I' for Inactive)
REMARK    1  A    between atoms: C_1  and  C_2
REMARK    2  A    between atoms: C_2  and  C_3
REMARK    3  A    between atoms: C_2  and  C_4
REMARK    4  A    between atoms: C_2  and  C_15
REMARK    5  A    between atoms: C_4  and  N_5
REMARK    6  A    between atoms: N_5  and  C_6
REMARK    7  A    between atoms: C_9  and  C_10
REMARK    8  A    between atoms: C_19  and  C_20
REMARK                            x       y       z     vdW  Elec       q    Type
REMARK                         _______ _______ _______ _____ _____    ______ ____
ROOT
ATOM      1  C   UNL     1      42.947   5.132  13.266  0.00  0.00    +0.000 C 
ATOM      2  C   UNL     1      44.163   4.698  12.420  0.00  0.00    +0.000 C 
ATOM      3  C   UNL     1      44.281   3.156  12.487  0.00  0.00    +0.000 C 
ENDROOT
BRANCH   2   4
ATOM      4  C   UNL     1      45.429   5.407  12.963  0.00  0.00    +0.000 A 
ATOM      5  C   UNL     1      46.319   4.788  13.852  0.00  0.00    +0.000 A 
ATOM      6  C   UNL     1      47.494   5.422  14.255  0.00  0.00    +0.000 A 
ATOM      7  C   UNL     1      47.814   6.687  13.762  0.00  0.00    +0.000 A 
ATOM      8  C   UNL     1      46.961   7.350  12.867  0.00  0.00    +0.000 A 
ATOM      9  C   UNL     1      45.758   6.708  12.518  0.00  0.00    +0.000 A 
BRANCH   8  10
ATOM     10  C   UNL     1      47.362   8.627  12.246  0.00  0.00    +0.000 A 
ATOM     11  C   UNL     1      46.502   9.715  12.161  0.00  0.00    +0.000 A 
ATOM     12  N   UNL     1      46.832  10.923  11.649  0.00  0.00    +0.000 NA
ATOM     13  C   UNL     1      48.090  11.042  11.217  0.00  0.00    +0.000 A 
ATOM     14  N   UNL     1      49.024  10.082  11.244  0.00  0.00    +0.000 NA
ATOM     15  C   UNL     1      48.632   8.894  11.760  0.00  0.00    +0.000 A 
ENDBRANCH   8  10
ENDBRANCH   2   4
BRANCH   2  16
ATOM     16  C   UNL     1      43.969   5.113  10.926  0.00  0.00    +0.000 C 
BRANCH  16  17
ATOM     17  N   UNL     1      43.771   3.985  10.021  0.00  0.00    +0.000 N 
ATOM     18  H   UNL     1      42.856   3.555   9.963  0.00  0.00    +0.000 HD
BRANCH  17  19
ATOM     19  C   UNL     1      44.732   3.574   9.114  0.00  0.00    +0.000 A 
ATOM     20  C   UNL     1      45.424   4.456   8.279  0.00  0.00    +0.000 A 
ATOM     21  C   UNL     1      46.395   3.999   7.384  0.00  0.00    +0.000 A 
ATOM     22  C   UNL     1      46.705   2.640   7.317  0.00  0.00    +0.000 A 
ATOM     23  C   UNL     1      46.030   1.742   8.144  0.00  0.00    +0.000 A 
ATOM     24  C   UNL     1      45.055   2.211   9.034  0.00  0.00    +0.000 A 
BRANCH  22  25
ATOM     25  C   UNL     1      47.730   2.205   6.333  0.00  0.00    +0.000 C 
ATOM     26  N   UNL     1      47.951   3.012   5.251  0.00  0.00    +0.000 N 
ATOM     27  O   UNL     1      48.338   1.150   6.462  0.00  0.00    +0.000 OA
ATOM     28  H   UNL     1      47.340   3.775   4.997  0.00  0.00    +0.000 HD
ATOM     29  H   UNL     1      48.582   2.653   4.547  0.00  0.00    +0.000 HD
ENDBRANCH  22  25
ENDBRANCH  17  19
ENDBRANCH  16  17
ENDBRANCH   2  16
TORSDOF 6
ENDMDL
MODEL 3
REMARK VINA RESULT:    -6.732      3.086      5.004
REMARK INTER + INTRA:         -10.200
REMARK INTER:                  -9.003
REMARK INTRA:                  -1.197
REMARK UNBOUND:                -1.107
REMARK  Name = 
REMARK  8 active torsions:
REMARK  status: ('A' for Active; 'I' for Inactive)
REMARK    1  A    between atoms: C_1  and  C_2
REMARK    2  A    between atoms: C_2  and  C_3
REMARK    3  A    between atoms: C_2  and  C_4
REMARK    4  A    between atoms: C_2  and  C_15
REMARK    5  A    between atoms: C_4  and  N_5
REMARK    6  A    between atoms: N_5  and  C_6
REMARK    7  A    between atoms: C_9  and  C_10
REMARK    8  A    between atoms: C_19  and  C_20
REMARK                            x       y       z     vdW  Elec       q    Type
REMARK                         _______ _______ _______ _____ _____    ______ ____
ROOT
ATOM      1  C   UNL     1      48.734   7.333  11.953  0.00  0.00    +0.000 C 
ATOM      2  C   UNL     1      48.239   8.576  12.723  0.00  0.00    +0.000 C 
ATOM      3  C   UNL     1      49.012   9.813  12.203  0.00  0.00    +0.000 C 
ENDROOT
BRANCH   2   4
ATOM      4  C   UNL     1      48.458   8.344  14.240  0.00  0.00    +0.000 A 
ATOM      5  C   UNL     1      48.472   9.393  15.170  0.00  0.00    +0.000 A 
ATOM      6  C   UNL     1      48.585   9.142  16.538  0.00  0.00    +0.000 A 
ATOM      7  C   UNL     1      48.669   7.832  17.007  0.00  0.00    +0.000 A 
ATOM      8  C   UNL     1      48.655   6.744  16.119  0.00  0.00    +0.000 A 
ATOM      9  C   UNL     1      48.592   7.030  14.743  0.00  0.00    +0.000 A 
BRANCH   8  10
ATOM     10  C   UNL     1      48.613   5.359  16.622  0.00  0.00    +0.000 A 
ATOM     11  C   UNL     1      47.578   4.486  16.312  0.00  0.00    +0.000 A 
ATOM     12  N   UNL     1      47.512   3.193  16.703  0.00  0.00    +0.000 NA
ATOM     13  C   UNL     1      48.546   2.757  17.428  0.00  0.00    +0.000 A 
ATOM     14  N   UNL     1      49.610   3.484  17.794  0.00  0.00    +0.000 NA
ATOM     15  C   UNL     1      49.614   4.772  17.379  0.00  0.00    +0.000 A 
ENDBRANCH   8  10
ENDBRANCH   2   4
BRANCH   2  16
ATOM     16  C   UNL     1      46.715   8.806  12.474  0.00  0.00    +0.000 C 
BRANCH  16  17
ATOM     17  N   UNL     1      45.850   7.899  13.222  0.00  0.00    +0.000 N 
ATOM     18  H   UNL     1      45.476   8.199  14.114  0.00  0.00    +0.000 HD
BRANCH  17  19
ATOM     19  C   UNL     1      45.382   6.707  12.698  0.00  0.00    +0.000 A 
ATOM     20  C   UNL     1      44.563   6.637  11.567  0.00  0.00    +0.000 A 
ATOM     21  C   UNL     1      44.121   5.410  11.064  0.00  0.00    +0.000 A 
ATOM     22  C   UNL     1      44.504   4.219  11.682  0.00  0.00    +0.000 A 
ATOM     23  C   UNL     1      45.324   4.264  12.809  0.00  0.00    +0.000 A 
ATOM     24  C   UNL     1      45.757   5.501  13.307  0.00  0.00    +0.000 A 
BRANCH  22  25
ATOM     25  C   UNL     1      43.988   2.944  11.119  0.00  0.00    +0.000 C 
ATOM     26  N   UNL     1      44.695   2.370  10.100  0.00  0.00    +0.000 N 
ATOM     27  O   UNL     1      42.952   2.434  11.527  0.00  0.00    +0.000 OA
ATOM     28  H   UNL     1      45.429   2.849   9.598  0.00  0.00    +0.000 HD
ATOM     29  H   UNL     1      44.277   1.556   9.668  0.00  0.00    +0.000 HD
ENDBRANCH  22  25
ENDBRANCH  17  19
ENDBRANCH  16  17
ENDBRANCH   2  16
TORSDOF 6
ENDMDL
MODEL 4
REMARK VINA RESULT:    -6.712      3.644      7.727
REMARK INTER + INTRA:         -10.173
REMARK INTER:                  -8.922
REMARK INTRA:                  -1.251
REMARK UNBOUND:                -1.107
REMARK  Name = 
REMARK  8 active torsions:
REMARK  status: ('A' for Active; 'I' for Inactive)
REMARK    1  A    between atoms: C_1  and  C_2
REMARK    2  A    between atoms: C_2  and  C_3
REMARK    3  A    between atoms: C_2  and  C_4
REMARK    4  A    between atoms: C_2  and  C_15
REMARK    5  A    between atoms: C_4  and  N_5
REMARK    6  A    between atoms: N_5  and  C_6
REMARK    7  A    between atoms: C_9  and  C_10
REMARK    8  A    between atoms: C_19  and  C_20
REMARK                            x       y       z     vdW  Elec       q    Type
REMARK                         _______ _______ _______ _____ _____    ______ ____
ROOT
ATOM      1  C   UNL     1      48.661  10.087  11.683  0.00  0.00    +0.000 C 
ATOM      2  C   UNL     1      48.278   8.749  12.351  0.00  0.00    +0.000 C 
ATOM      3  C   UNL     1      49.181   7.635  11.765  0.00  0.00    +0.000 C 
ENDROOT
BRANCH   2   4
ATOM      4  C   UNL     1      46.773   8.477  12.099  0.00  0.00    +0.000 A 
ATOM      5  C   UNL     1      45.878   9.484  11.713  0.00  0.00    +0.000 A 
ATOM      6  C   UNL     1      44.548   9.189  11.411  0.00  0.00    +0.000 A 
ATOM      7  C   UNL     1      44.089   7.875  11.473  0.00  0.00    +0.000 A 
ATOM      8  C   UNL     1      44.944   6.827  11.850  0.00  0.00    +0.000 A 
ATOM      9  C   UNL     1      46.266   7.161  12.198  0.00  0.00    +0.000 A 
BRANCH   8  10
ATOM     10  C   UNL     1      44.494   5.424  11.788  0.00  0.00    +0.000 A 
ATOM     11  C   UNL     1      44.595   4.562  12.872  0.00  0.00    +0.000 A 
ATOM     12  N   UNL     1      44.153   3.284  12.888  0.00  0.00    +0.000 NA
ATOM     13  C   UNL     1      43.570   2.862  11.763  0.00  0.00    +0.000 A 
ATOM     14  N   UNL     1      43.399   3.584  10.647  0.00  0.00    +0.000 NA
ATOM     15  C   UNL     1      43.869   4.853  10.691  0.00  0.00    +0.000 A 
ENDBRANCH   8  10
ENDBRANCH   2   4
BRANCH   2  16
ATOM     16  C   UNL     1      48.516   8.816  13.893  0.00  0.00    +0.000 C 
BRANCH  16  17
ATOM     17  N   UNL     1      49.359   7.741  14.408  0.00  0.00    +0.000 N 
ATOM     18  H   UNL     1      50.363   7.804  14.291  0.00  0.00    +0.000 HD
BRANCH  17  19
ATOM     19  C   UNL     1      48.868   6.714  15.194  0.00  0.00    +0.000 A 
ATOM     20  C   UNL     1      47.952   5.765  14.729  0.00  0.00    +0.000 A 
ATOM     21  C   UNL     1      47.489   4.736  15.555  0.00  0.00    +0.000 A 
ATOM     22  C   UNL     1      47.947   4.630  16.869  0.00  0.00    +0.000 A 
ATOM     23  C   UNL     1      48.864   5.564  17.353  0.00  0.00    +0.000 A 
ATOM     24  C   UNL     1      49.317   6.594  16.517  0.00  0.00    +0.000 A 
BRANCH  22  25
ATOM     25  C   UNL     1      47.406   3.531  17.710  0.00  0.00    +0.000 C 
ATOM     26  N   UNL     1      48.093   3.207  18.847  0.00  0.00    +0.000 N 
ATOM     27  O   UNL     1      46.400   2.912  17.389  0.00  0.00    +0.000 OA
ATOM     28  H   UNL     1      49.025   3.544  19.044  0.00  0.00    +0.000 HD
ATOM     29  H   UNL     1      47.763   2.397  19.354  0.00  0.00    +0.000 HD
ENDBRANCH  22  25
ENDBRANCH  17  19
ENDBRANCH  16  17
ENDBRANCH   2  16
TORSDOF 6
ENDMDL
MODEL 5
REMARK VINA RESULT:    -6.419      3.801      8.303
REMARK INTER + INTRA:          -9.777
REMARK INTER:                  -8.938
REMARK INTRA:                  -0.839
REMARK UNBOUND:                -1.107
REMARK  Name = 
REMARK  8 active torsions:
REMARK  status: ('A' for Active; 'I' for Inactive)
REMARK    1  A    between atoms: C_1  and  C_2
REMARK    2  A    between atoms: C_2  and  C_3
REMARK    3  A    between atoms: C_2  and  C_4
REMARK    4  A    between atoms: C_2  and  C_15
REMARK    5  A    between atoms: C_4  and  N_5
REMARK    6  A    between atoms: N_5  and  C_6
REMARK    7  A    between atoms: C_9  and  C_10
REMARK    8  A    between atoms: C_19  and  C_20
REMARK                            x       y       z     vdW  Elec       q    Type
REMARK                         _______ _______ _______ _____ _____    ______ ____
ROOT
ATOM      1  C   UNL     1      48.485   8.470  16.208  0.00  0.00    +0.000 C 
ATOM      2  C   UNL     1      49.023   7.216  15.486  0.00  0.00    +0.000 C 
ATOM      3  C   UNL     1      50.570   7.276  15.490  0.00  0.00    +0.000 C 
ENDROOT
BRANCH   2   4
ATOM      4  C   UNL     1      48.442   7.178  14.050  0.00  0.00    +0.000 A 
ATOM      5  C   UNL     1      49.083   7.781  12.959  0.00  0.00    +0.000 A 
ATOM      6  C   UNL     1      48.577   7.655  11.665  0.00  0.00    +0.000 A 
ATOM      7  C   UNL     1      47.425   6.905  11.432  0.00  0.00    +0.000 A 
ATOM      8  C   UNL     1      46.746   6.276  12.487  0.00  0.00    +0.000 A 
ATOM      9  C   UNL     1      47.251   6.463  13.788  0.00  0.00    +0.000 A 
BRANCH   8  10
ATOM     10  C   UNL     1      45.607   5.377  12.224  0.00  0.00    +0.000 A 
ATOM     11  C   UNL     1      45.219   4.386  13.116  0.00  0.00    +0.000 A 
ATOM     12  N   UNL     1      44.155   3.569  12.950  0.00  0.00    +0.000 NA
ATOM     13  C   UNL     1      43.441   3.771  11.840  0.00  0.00    +0.000 A 
ATOM     14  N   UNL     1      43.694   4.692  10.899  0.00  0.00    +0.000 NA
ATOM     15  C   UNL     1      44.776   5.473  11.119  0.00  0.00    +0.000 A 
ENDBRANCH   8  10
ENDBRANCH   2   4
BRANCH   2  16
ATOM     16  C   UNL     1      48.578   5.919  16.233  0.00  0.00    +0.000 C 
BRANCH  16  17
ATOM     17  N   UNL     1      49.429   5.567  17.366  0.00  0.00    +0.000 N 
ATOM     18  H   UNL     1      49.423   6.159  18.188  0.00  0.00    +0.000 HD
BRANCH  17  19
ATOM     19  C   UNL     1      50.126   4.374  17.439  0.00  0.00    +0.000 A 
ATOM     20  C   UNL     1      49.563   3.138  17.107  0.00  0.00    +0.000 A 
ATOM     21  C   UNL     1      50.307   1.957  17.185  0.00  0.00    +0.000 A 
ATOM     22  C   UNL     1      51.643   1.993  17.587  0.00  0.00    +0.000 A 
ATOM     23  C   UNL     1      52.226   3.217  17.918  0.00  0.00    +0.000 A 
ATOM     24  C   UNL     1      51.469   4.393  17.841  0.00  0.00    +0.000 A 
BRANCH  22  25
ATOM     25  C   UNL     1      52.381   0.707  17.673  0.00  0.00    +0.000 C 
ATOM     26  N   UNL     1      51.843  -0.281  18.449  0.00  0.00    +0.000 N 
ATOM     27  O   UNL     1      53.449   0.538  17.097  0.00  0.00    +0.000 OA
ATOM     28  H   UNL     1      51.084  -0.123  19.097  0.00  0.00    +0.000 HD
ATOM     29  H   UNL     1      52.406  -1.113  18.571  0.00  0.00    +0.000 HD
ENDBRANCH  22  25
ENDBRANCH  17  19
ENDBRANCH  16  17
ENDBRANCH   2  16
TORSDOF 6
ENDMDL
MODEL 6
REMARK VINA RESULT:    -6.298      3.596      6.237
REMARK INTER + INTRA:          -9.614
REMARK INTER:                  -8.857
REMARK INTRA:                  -0.757
REMARK UNBOUND:                -1.107
REMARK  Name = 
REMARK  8 active torsions:
REMARK  status: ('A' for Active; 'I' for Inactive)
REMARK    1  A    between atoms: C_1  and  C_2
REMARK    2  A    between atoms: C_2  and  C_3
REMARK    3  A    between atoms: C_2  and  C_4
REMARK    4  A    between atoms: C_2  and  C_15
REMARK    5  A    between atoms: C_4  and  N_5
REMARK    6  A    between atoms: N_5  and  C_6
REMARK    7  A    between atoms: C_9  and  C_10
REMARK    8  A    between atoms: C_19  and  C_20
REMARK                            x       y       z     vdW  Elec       q    Type
REMARK                         _______ _______ _______ _____ _____    ______ ____
ROOT
ATOM      1  C   UNL     1      47.160   5.059  17.971  0.00  0.00    +0.000 C 
ATOM      2  C   UNL     1      47.916   3.887  17.307  0.00  0.00    +0.000 C 
ATOM      3  C   UNL     1      47.573   2.587  18.075  0.00  0.00    +0.000 C 
ENDROOT
BRANCH   2   4
ATOM      4  C   UNL     1      49.434   4.196  17.326  0.00  0.00    +0.000 A 
ATOM      5  C   UNL     1      49.942   5.496  17.195  0.00  0.00    +0.000 A 
ATOM      6  C   UNL     1      51.309   5.750  17.302  0.00  0.00    +0.000 A 
ATOM      7  C   UNL     1      52.199   4.708  17.562  0.00  0.00    +0.000 A 
ATOM      8  C   UNL     1      51.743   3.388  17.708  0.00  0.00    +0.000 A 
ATOM      9  C   UNL     1      50.365   3.155  17.543  0.00  0.00    +0.000 A 
BRANCH   8  10
ATOM     10  C   UNL     1      52.665   2.311  18.112  0.00  0.00    +0.000 A 
ATOM     11  C   UNL     1      53.763   2.539  18.932  0.00  0.00    +0.000 A 
ATOM     12  N   UNL     1      54.610   1.582  19.373  0.00  0.00    +0.000 NA
ATOM     13  C   UNL     1      54.329   0.337  18.981  0.00  0.00    +0.000 A 
ATOM     14  N   UNL     1      53.303  -0.028  18.200  0.00  0.00    +0.000 NA
ATOM     15  C   UNL     1      52.495   0.975  17.784  0.00  0.00    +0.000 A 
ENDBRANCH   8  10
ENDBRANCH   2   4
BRANCH   2  16
ATOM     16  C   UNL     1      47.466   3.715  15.821  0.00  0.00    +0.000 C 
BRANCH  16  17
ATOM     17  N   UNL     1      46.975   4.945  15.206  0.00  0.00    +0.000 N 
ATOM     18  H   UNL     1      47.050   5.815  15.718  0.00  0.00    +0.000 HD
BRANCH  17  19
ATOM     19  C   UNL     1      46.559   5.010  13.888  0.00  0.00    +0.000 A 
ATOM     20  C   UNL     1      46.877   6.073  13.036  0.00  0.00    +0.000 A 
ATOM     21  C   UNL     1      46.444   6.093  11.707  0.00  0.00    +0.000 A 
ATOM     22  C   UNL     1      45.690   5.035  11.197  0.00  0.00    +0.000 A 
ATOM     23  C   UNL     1      45.365   3.962  12.028  0.00  0.00    +0.000 A 
ATOM     24  C   UNL     1      45.800   3.956  13.360  0.00  0.00    +0.000 A 
BRANCH  22  25
ATOM     25  C   UNL     1      45.238   5.118   9.785  0.00  0.00    +0.000 C 
ATOM     26  N   UNL     1      43.932   4.812   9.519  0.00  0.00    +0.000 N 
ATOM     27  O   UNL     1      46.006   5.418   8.880  0.00  0.00    +0.000 OA
ATOM     28  H   UNL     1      43.321   4.367  10.190  0.00  0.00    +0.000 HD
ATOM     29  H   UNL     1      43.669   4.782   8.543  0.00  0.00    +0.000 HD
ENDBRANCH  22  25
ENDBRANCH  17  19
ENDBRANCH  16  17
ENDBRANCH   2  16
TORSDOF 6
ENDMDL
MODEL 7
REMARK VINA RESULT:    -6.201      3.215      8.312
REMARK INTER + INTRA:          -9.483
REMARK INTER:                  -8.493
REMARK INTRA:                  -0.989
REMARK UNBOUND:                -1.107
REMARK  Name = 
REMARK  8 active torsions:
REMARK  status: ('A' for Active; 'I' for Inactive)
REMARK    1  A    between atoms: C_1  and  C_2
REMARK    2  A    between atoms: C_2  and  C_3
REMARK    3  A    between atoms: C_2  and  C_4
REMARK    4  A    between atoms: C_2  and  C_15
REMARK    5  A    between atoms: C_4  and  N_5
REMARK    6  A    between atoms: N_5  and  C_6
REMARK    7  A    between atoms: C_9  and  C_10
REMARK    8  A    between atoms: C_19  and  C_20
REMARK                            x       y       z     vdW  Elec       q    Type
REMARK                         _______ _______ _______ _____ _____    ______ ____
ROOT
ATOM      1  C   UNL     1      49.090   9.423  11.763  0.00  0.00    +0.000 C 
ATOM      2  C   UNL     1      48.606   8.193  12.560  0.00  0.00    +0.000 C 
ATOM      3  C   UNL     1      49.533   6.999  12.225  0.00  0.00    +0.000 C 
ENDROOT
BRANCH   2   4
ATOM      4  C   UNL     1      47.128   7.909  12.193  0.00  0.00    +0.000 A 
ATOM      5  C   UNL     1      46.118   8.872  12.326  0.00  0.00    +0.000 A 
ATOM      6  C   UNL     1      44.814   8.612  11.906  0.00  0.00    +0.000 A 
ATOM      7  C   UNL     1      44.495   7.385  11.326  0.00  0.00    +0.000 A 
ATOM      8  C   UNL     1      45.468   6.387  11.164  0.00  0.00    +0.000 A 
ATOM      9  C   UNL     1      46.763   6.659  11.644  0.00  0.00    +0.000 A 
BRANCH   8  10
ATOM     10  C   UNL     1      45.162   5.143  10.433  0.00  0.00    +0.000 A 
ATOM     11  C   UNL     1      44.318   4.167  10.948  0.00  0.00    +0.000 A 
ATOM     12  N   UNL     1      43.963   3.033  10.301  0.00  0.00    +0.000 NA
ATOM     13  C   UNL     1      44.471   2.885   9.075  0.00  0.00    +0.000 A 
ATOM     14  N   UNL     1      45.288   3.746   8.454  0.00  0.00    +0.000 NA
ATOM     15  C   UNL     1      45.613   4.857   9.155  0.00  0.00    +0.000 A 
ENDBRANCH   8  10
ENDBRANCH   2   4
BRANCH   2  16
ATOM     16  C   UNL     1      48.690   8.466  14.096  0.00  0.00    +0.000 C 
BRANCH  16  17
ATOM     17  N   UNL     1      48.051   7.440  14.914  0.00  0.00    +0.000 N 
ATOM     18  H   UNL     1      47.057   7.275  14.809  0.00  0.00    +0.000 HD
BRANCH  17  19
ATOM     19  C   UNL     1      48.766   6.566  15.714  0.00  0.00    +0.000 A 
ATOM     20  C   UNL     1      48.224   5.386  16.233  0.00  0.00    +0.000 A 
ATOM     21  C   UNL     1      48.986   4.525  17.028  0.00  0.00    +0.000 A 
ATOM     22  C   UNL     1      50.319   4.825  17.311  0.00  0.00    +0.000 A 
ATOM     23  C   UNL     1      50.882   5.995  16.799  0.00  0.00    +0.000 A 
ATOM     24  C   UNL     1      50.107   6.853  16.007  0.00  0.00    +0.000 A 
BRANCH  22  25
ATOM     25  C   UNL     1      51.077   3.887  18.179  0.00  0.00    +0.000 C 
ATOM     26  N   UNL     1      51.204   4.211  19.501  0.00  0.00    +0.000 N 
ATOM     27  O   UNL     1      51.597   2.874  17.730  0.00  0.00    +0.000 OA
ATOM     28  H   UNL     1      50.974   5.122  19.871  0.00  0.00    +0.000 HD
ATOM     29  H   UNL     1      51.802   3.610  20.053  0.00  0.00    +0.000 HD
ENDBRANCH  22  25
ENDBRANCH  17  19
ENDBRANCH  16  17
ENDBRANCH   2  16
TORSDOF 6
ENDMDL
MODEL 8
REMARK VINA RESULT:    -6.109      3.324      6.120
REMARK INTER + INTRA:          -9.358
REMARK INTER:                  -8.314
REMARK INTRA:                  -1.044
REMARK UNBOUND:                -1.107
REMARK  Name = 
REMARK  8 active torsions:
REMARK  status: ('A' for Active; 'I' for Inactive)
REMARK    1  A    between atoms: C_1  and  C_2
REMARK    2  A    between atoms: C_2  and  C_3
REMARK    3  A    between atoms: C_2  and  C_4
REMARK    4  A    between atoms: C_2  and  C_15
REMARK    5  A    between atoms: C_4  and  N_5
REMARK    6  A    between atoms: N_5  and  C_6
REMARK    7  A    between atoms: C_9  and  C_10
REMARK    8  A    between atoms: C_19  and  C_20
REMARK                            x       y       z     vdW  Elec       q    Type
REMARK                         _______ _______ _______ _____ _____    ______ ____
ROOT
ATOM      1  C   UNL     1      50.866   7.648  16.071  0.00  0.00    +0.000 C 
ATOM      2  C   UNL     1      49.395   7.199  15.939  0.00  0.00    +0.000 C 
ATOM      3  C   UNL     1      48.488   8.336  16.472  0.00  0.00    +0.000 C 
ENDROOT
BRANCH   2   4
ATOM      4  C   UNL     1      49.203   5.878  16.726  0.00  0.00    +0.000 A 
ATOM      5  C   UNL     1      47.940   5.405  17.111  0.00  0.00    +0.000 A 
ATOM      6  C   UNL     1      47.795   4.170  17.742  0.00  0.00    +0.000 A 
ATOM      7  C   UNL     1      48.911   3.371  17.988  0.00  0.00    +0.000 A 
ATOM      8  C   UNL     1      50.198   3.794  17.619  0.00  0.00    +0.000 A 
ATOM      9  C   UNL     1      50.319   5.067  17.030  0.00  0.00    +0.000 A 
BRANCH   8  10
ATOM     10  C   UNL     1      51.358   2.895  17.759  0.00  0.00    +0.000 A 
ATOM     11  C   UNL     1      52.540   3.296  18.369  0.00  0.00    +0.000 A 
ATOM     12  N   UNL     1      53.616   2.500  18.569  0.00  0.00    +0.000 NA
ATOM     13  C   UNL     1      53.486   1.240  18.149  0.00  0.00    +0.000 A 
ATOM     14  N   UNL     1      52.405   0.717  17.553  0.00  0.00    +0.000 NA
ATOM     15  C   UNL     1      51.366   1.564  17.374  0.00  0.00    +0.000 A 
ENDBRANCH   8  10
ENDBRANCH   2   4
BRANCH   2  16
ATOM     16  C   UNL     1      49.032   6.940  14.442  0.00  0.00    +0.000 C 
BRANCH  16  17
ATOM     17  N   UNL     1      47.617   7.128  14.136  0.00  0.00    +0.000 N 
ATOM     18  H   UNL     1      47.189   8.026  14.325  0.00  0.00    +0.000 HD
BRANCH  17  19
ATOM     19  C   UNL     1      46.867   6.191  13.448  0.00  0.00    +0.000 A 
ATOM     20  C   UNL     1      46.101   6.502  12.320  0.00  0.00    +0.000 A 
ATOM     21  C   UNL     1      45.366   5.521  11.648  0.00  0.00    +0.000 A 
ATOM     22  C   UNL     1      45.394   4.197  12.089  0.00  0.00    +0.000 A 
ATOM     23  C   UNL     1      46.155   3.863  13.210  0.00  0.00    +0.000 A 
ATOM     24  C   UNL     1      46.884   4.856  13.878  0.00  0.00    +0.000 A 
BRANCH  22  25
ATOM     25  C   UNL     1      44.577   3.199  11.351  0.00  0.00    +0.000 C 
ATOM     26  N   UNL     1      43.629   2.511  12.057  0.00  0.00    +0.000 N 
ATOM     27  O   UNL     1      44.760   2.972  10.162  0.00  0.00    +0.000 OA
ATOM     28  H   UNL     1      43.581   2.514  13.065  0.00  0.00    +0.000 HD
ATOM     29  H   UNL     1      43.151   1.771  11.560  0.00  0.00    +0.000 HD
ENDBRANCH  22  25
ENDBRANCH  17  19
ENDBRANCH  16  17
ENDBRANCH   2  16
TORSDOF 6
ENDMDL
MODEL 9
REMARK VINA RESULT:    -6.078      4.096      8.300
REMARK INTER + INTRA:          -9.317
REMARK INTER:                  -7.408
REMARK INTRA:                  -1.909
REMARK UNBOUND:                -1.107
REMARK  Name = 
REMARK  8 active torsions:
REMARK  status: ('A' for Active; 'I' for Inactive)
REMARK    1  A    between atoms: C_1  and  C_2
REMARK    2  A    between atoms: C_2  and  C_3
REMARK    3  A    between atoms: C_2  and  C_4
REMARK    4  A    between atoms: C_2  and  C_15
REMARK    5  A    between atoms: C_4  and  N_5
REMARK    6  A    between atoms: N_5  and  C_6
REMARK    7  A    between atoms: C_9  and  C_10
REMARK    8  A    between atoms: C_19  and  C_20
REMARK                            x       y       z     vdW  Elec       q    Type
REMARK                         _______ _______ _______ _____ _____    ______ ____
ROOT
ATOM      1  C   UNL     1      48.165  10.530  17.580  0.00  0.00    +0.000 C 
ATOM      2  C   UNL     1      48.893   9.184  17.789  0.00  0.00    +0.000 C 
ATOM      3  C   UNL     1      50.170   9.444  18.624  0.00  0.00    +0.000 C 
ENDROOT
BRANCH   2   4
ATOM      4  C   UNL     1      49.214   8.569  16.403  0.00  0.00    +0.000 A 
ATOM      5  C   UNL     1      50.462   8.715  15.783  0.00  0.00    +0.000 A 
ATOM      6  C   UNL     1      50.746   8.076  14.575  0.00  0.00    +0.000 A 
ATOM      7  C   UNL     1      49.790   7.262  13.970  0.00  0.00    +0.000 A 
ATOM      8  C   UNL     1      48.525   7.077  14.551  0.00  0.00    +0.000 A 
ATOM      9  C   UNL     1      48.249   7.774  15.742  0.00  0.00    +0.000 A 
BRANCH   8  10
ATOM     10  C   UNL     1      47.564   6.114  13.980  0.00  0.00    +0.000 A 
ATOM     11  C   UNL     1      46.910   6.341  12.776  0.00  0.00    +0.000 A 
ATOM     12  N   UNL     1      46.059   5.473  12.183  0.00  0.00    +0.000 NA
ATOM     13  C   UNL     1      45.873   4.318  12.827  0.00  0.00    +0.000 A 
ATOM     14  N   UNL     1      46.441   3.964  13.987  0.00  0.00    +0.000 NA
ATOM     15  C   UNL     1      47.276   4.878  14.535  0.00  0.00    +0.000 A 
ENDBRANCH   8  10
ENDBRANCH   2   4
BRANCH   2  16
ATOM     16  C   UNL     1      47.985   8.185  18.574  0.00  0.00    +0.000 C 
BRANCH  16  17
ATOM     17  N   UNL     1      48.725   7.134  19.267  0.00  0.00    +0.000 N 
ATOM     18  H   UNL     1      48.924   7.242  20.254  0.00  0.00    +0.000 HD
BRANCH  17  19
ATOM     19  C   UNL     1      49.029   5.919  18.680  0.00  0.00    +0.000 A 
ATOM     20  C   UNL     1      50.320   5.569  18.270  0.00  0.00    +0.000 A 
ATOM     21  C   UNL     1      50.585   4.326  17.690  0.00  0.00    +0.000 A 
ATOM     22  C   UNL     1      49.559   3.396  17.519  0.00  0.00    +0.000 A 
ATOM     23  C   UNL     1      48.264   3.722  17.925  0.00  0.00    +0.000 A 
ATOM     24  C   UNL     1      48.009   4.974  18.501  0.00  0.00    +0.000 A 
BRANCH  22  25
ATOM     25  C   UNL     1      49.892   2.098  16.877  0.00  0.00    +0.000 C 
ATOM     26  N   UNL     1      50.894   1.354  17.436  0.00  0.00    +0.000 N 
ATOM     27  O   UNL     1      49.316   1.714  15.867  0.00  0.00    +0.000 OA
ATOM     28  H   UNL     1      51.527   1.717  18.135  0.00  0.00    +0.000 HD
ATOM     29  H   UNL     1      51.169   0.522  16.931  0.00  0.00    +0.000 HD
ENDBRANCH  22  25
ENDBRANCH  17  19
ENDBRANCH  16  17
ENDBRANCH   2  16
TORSDOF 6
ENDMDL
