MODEL 1
REMARK VINA RESULT:    -7.761      0.000      0.000
REMARK INTER + INTRA:         -10.127
REMARK INTER:                  -9.576
REMARK INTRA:                  -0.551
REMARK UNBOUND:                -0.551
REMARK  Name = 
REMARK  6 active torsions:
REMARK  status: ('A' for Active; 'I' for Inactive)
REMARK    1  A    between atoms: C_1  and  N_2
REMARK    2  A    between atoms: C_3  and  C_5
REMARK    3  A    between atoms: C_8  and  C_9
REMARK    4  A    between atoms: C_9  and  C_10
REMARK    5  A    between atoms: C_9  and  O_11
REMARK    6  A    between atoms: O_11  and  C_12
REMARK                            x       y       z     vdW  Elec       q    Type
REMARK                         _______ _______ _______ _____ _____    ______ ____
ROOT
ATOM      1  C   UNL     1      46.722   5.333  13.736  0.00  0.00    +0.000 A 
ATOM      2  C   UNL     1      46.189   6.332  12.941  0.00  0.00    +0.000 A 
ATOM      3  N   UNL     1      45.133   6.113  12.117  0.00  0.00    +0.000 NA
ATOM      4  C   UNL     1      44.614   4.853  12.114  0.00  0.00    +0.000 A 
ATOM      5  C   UNL     1      45.188   3.848  12.895  0.00  0.00    +0.000 A 
ATOM      6  N   UNL     1      46.240   4.056  13.730  0.00  0.00    +0.000 NA
ENDROOT
BRANCH   1   9
ATOM      7  C   UNL     1      48.666   5.445  16.973  0.00  0.00    +0.000 C 
ATOM      8  N   UNL     1      47.680   5.197  15.956  0.00  0.00    +0.000 N 
ATOM      9  C   UNL     1      47.840   5.659  14.665  0.00  0.00    +0.000 C 
ATOM     10  O   UNL     1      48.813   6.299  14.288  0.00  0.00    +0.000 OA
ATOM     11  H   UNL     1      46.831   4.681  16.160  0.00  0.00    +0.000 HD
ENDBRANCH   1   9
BRANCH   4  12
ATOM     12  C   UNL     1      43.367   4.568  11.282  0.00  0.00    +0.000 C 
ATOM     13  C   UNL     1      42.229   5.501  11.717  0.00  0.00    +0.000 C 
BRANCH  12  14
ATOM     14  O   UNL     1      43.701   4.758   9.899  0.00  0.00    +0.000 OA
BRANCH  14  15
ATOM     15  C   UNL     1      44.531   3.859   9.288  0.00  0.00    +0.000 A 
ATOM     16  C   UNL     1      44.521   2.475   9.468  0.00  0.00    +0.000 A 
ATOM     17  C   UNL     1      45.406   1.659   8.754  0.00  0.00    +0.000 A 
ATOM     18  C   UNL     1      46.316   2.227   7.866  0.00  0.00    +0.000 A 
ATOM     19 CL   UNL     1      47.413   1.218   7.009  0.00  0.00    +0.000 Cl
ATOM     20  C   UNL     1      46.338   3.605   7.677  0.00  0.00    +0.000 A 
ATOM     21  C   UNL     1      45.439   4.415   8.379  0.00  0.00    +0.000 A 
ENDBRANCH  14  15
ENDBRANCH  12  14
ENDBRANCH   4  12
TORSDOF 4
ENDMDL
MODEL 2
REMARK VINA RESULT:    -7.447      1.620      2.142
REMARK INTER + INTRA:          -9.738
REMARK INTER:                  -9.184
REMARK INTRA:                  -0.555
REMARK UNBOUND:                -0.551
REMARK  Name = 
REMARK  6 active torsions:
REMARK  status: ('A' for Active; 'I' for Inactive)
REMARK    1  A    between atoms: C_1  and  N_2
REMARK    2  A    between atoms: C_3  and  C_5
REMARK    3  A    between atoms: C_8  and  C_9
REMARK    4  A    between atoms: C_9  and  C_10
REMARK    5  A    between atoms: C_9  and  O_11
REMARK    6  A    between atoms: O_11  and  C_12
REMARK                            x       y       z     vdW  Elec       q    Type
REMARK                         _______ _______ _______ _____ _____    ______ ____
ROOT
ATOM      1  C   UNL     1      47.192   6.338  12.586  0.00  0.00    +0.000 A 
ATOM      2  C   UNL     1      46.761   5.118  13.074  0.00  0.00    +0.000 A 
ATOM      3  N   UNL     1      45.574   4.571  12.707  0.00  0.00    +0.000 NA
ATOM      4  C   UNL     1      44.822   5.285  11.824  0.00  0.00    +0.000 A 
ATOM      5  C   UNL     1      45.255   6.533  11.370  0.00  0.00    +0.000 A 
ATOM      6  N   UNL     1      46.445   7.088  11.723  0.00  0.00    +0.000 NA
ENDROOT
BRANCH   1   9
ATOM      7  C   UNL     1      50.428   8.266  12.300  0.00  0.00    +0.000 C 
ATOM      8  N   UNL     1      49.125   7.702  12.070  0.00  0.00    +0.000 N 
ATOM      9  C   UNL     1      48.535   6.848  12.979  0.00  0.00    +0.000 C 
ATOM     10  O   UNL     1      49.059   6.511  14.034  0.00  0.00    +0.000 OA
ATOM     11  H   UNL     1      48.602   7.910  11.226  0.00  0.00    +0.000 HD
ENDBRANCH   1   9
BRANCH   4  12
ATOM     12  C   UNL     1      43.522   4.681  11.301  0.00  0.00    +0.000 C 
ATOM     13  C   UNL     1      42.330   5.516  11.788  0.00  0.00    +0.000 C 
BRANCH  12  14
ATOM     14  O   UNL     1      43.589   4.652   9.868  0.00  0.00    +0.000 OA
BRANCH  14  15
ATOM     15  C   UNL     1      44.464   3.792   9.263  0.00  0.00    +0.000 A 
ATOM     16  C   UNL     1      44.537   2.413   9.467  0.00  0.00    +0.000 A 
ATOM     17  C   UNL     1      45.460   1.636   8.757  0.00  0.00    +0.000 A 
ATOM     18  C   UNL     1      46.326   2.240   7.850  0.00  0.00    +0.000 A 
ATOM     19 CL   UNL     1      47.471   1.280   6.998  0.00  0.00    +0.000 Cl
ATOM     20  C   UNL     1      46.266   3.613   7.637  0.00  0.00    +0.000 A 
ATOM     21  C   UNL     1      45.329   4.382   8.334  0.00  0.00    +0.000 A 
ENDBRANCH  14  15
ENDBRANCH  12  14
ENDBRANCH   4  12
TORSDOF 4
ENDMDL
MODEL 3
REMARK VINA RESULT:    -6.980      2.582      3.229
REMARK INTER + INTRA:          -9.163
REMARK INTER:                  -8.612
REMARK INTRA:                  -0.551
REMARK UNBOUND:                -0.551
REMARK  Name = 
REMARK  6 active torsions:
REMARK  status: ('A' for Active; 'I' for Inactive)
REMARK    1  A    between atoms: C_1  and  N_2
REMARK    2  A    between atoms: C_3  and  C_5
REMARK    3  A    between atoms: C_8  and  C_9
REMARK    4  A    between atoms: C_9  and  C_10
REMARK    5  A    between atoms: C_9  and  O_11
REMARK    6  A    between atoms: O_11  and  C_12
REMARK                            x       y       z     vdW  Elec       q    Type
REMARK                         _______ _______ _______ _____ _____    ______ ____
ROOT
ATOM      1  C   UNL     1      45.476   7.518  11.874  0.00  0.00    +0.000 A 
ATOM      2  C   UNL     1      44.198   7.143  11.501  0.00  0.00    +0.000 A 
ATOM      3  N   UNL     1      43.862   5.846  11.279  0.00  0.00    +0.000 NA
ATOM      4  C   UNL     1      44.850   4.924  11.448  0.00  0.00    +0.000 A 
ATOM      5  C   UNL     1      46.143   5.324  11.789  0.00  0.00    +0.000 A 
ATOM      6  N   UNL     1      46.491   6.617  12.021  0.00  0.00    +0.000 NA
ENDROOT
BRANCH   1   9
ATOM      7  C   UNL     1      47.530  10.636  12.444  0.00  0.00    +0.000 C 
ATOM      8  N   UNL     1      47.096   9.294  12.165  0.00  0.00    +0.000 N 
ATOM      9  C   UNL     1      45.760   8.951  12.165  0.00  0.00    +0.000 C 
ATOM     10  O   UNL     1      44.855   9.744  12.395  0.00  0.00    +0.000 OA
ATOM     11  H   UNL     1      47.762   8.555  11.966  0.00  0.00    +0.000 HD
ENDBRANCH   1   9
BRANCH   4  12
ATOM     12  C   UNL     1      44.512   3.442  11.306  0.00  0.00    +0.000 C 
ATOM     13  C   UNL     1      43.463   3.048  12.355  0.00  0.00    +0.000 C 
BRANCH  12  14
ATOM     14  O   UNL     1      44.028   3.220   9.973  0.00  0.00    +0.000 OA
BRANCH  14  15
ATOM     15  C   UNL     1      44.931   3.043   8.962  0.00  0.00    +0.000 A 
ATOM     16  C   UNL     1      45.351   4.016   8.053  0.00  0.00    +0.000 A 
ATOM     17  C   UNL     1      46.311   3.714   7.080  0.00  0.00    +0.000 A 
ATOM     18  C   UNL     1      46.844   2.429   7.002  0.00  0.00    +0.000 A 
ATOM     19 CL   UNL     1      48.006   2.062   5.791  0.00  0.00    +0.000 Cl
ATOM     20  C   UNL     1      46.434   1.450   7.900  0.00  0.00    +0.000 A 
ATOM     21  C   UNL     1      45.489   1.761   8.883  0.00  0.00    +0.000 A 
ENDBRANCH  14  15
ENDBRANCH  12  14
ENDBRANCH   4  12
TORSDOF 4
ENDMDL
MODEL 4
REMARK VINA RESULT:    -6.205      1.394      2.061
REMARK INTER + INTRA:          -8.206
REMARK INTER:                  -9.020
REMARK INTRA:                   0.814
REMARK UNBOUND:                -0.551
REMARK  Name = 
REMARK  6 active torsions:
REMARK  status: ('A' for Active; 'I' for Inactive)
REMARK    1  A    between atoms: C_1  and  N_2
REMARK    2  A    between atoms: C_3  and  C_5
REMARK    3  A    between atoms: C_8  and  C_9
REMARK    4  A    between atoms: C_9  and  C_10
REMARK    5  A    between atoms: C_9  and  O_11
REMARK    6  A    between atoms: O_11  and  C_12
REMARK                            x       y       z     vdW  Elec       q    Type
REMARK                         _______ _______ _______ _____ _____    ______ ____
ROOT
ATOM      1  C   UNL     1      46.913   5.281  13.230  0.00  0.00    +0.000 A 
ATOM      2  C   UNL     1      46.537   3.962  13.409  0.00  0.00    +0.000 A 
ATOM      3  N   UNL     1      45.618   3.360  12.612  0.00  0.00    +0.000 NA
ATOM      4  C   UNL     1      45.082   4.120  11.617  0.00  0.00    +0.000 A 
ATOM      5  C   UNL     1      45.446   5.460  11.474  0.00  0.00    +0.000 A 
ATOM      6  N   UNL     1      46.371   6.074  12.259  0.00  0.00    +0.000 NA
ENDROOT
BRANCH   1   9
ATOM      7  C   UNL     1      48.692   6.241  16.421  0.00  0.00    +0.000 C 
ATOM      8  N   UNL     1      47.763   5.721  15.454  0.00  0.00    +0.000 N 
ATOM      9  C   UNL     1      47.976   5.861  14.098  0.00  0.00    +0.000 C 
ATOM     10  O   UNL     1      48.952   6.424  13.618  0.00  0.00    +0.000 OA
ATOM     11  H   UNL     1      46.917   5.240  15.742  0.00  0.00    +0.000 HD
ENDBRANCH   1   9
BRANCH   4  12
ATOM     12  C   UNL     1      44.114   3.473  10.629  0.00  0.00    +0.000 C 
ATOM     13  C   UNL     1      43.730   4.486   9.542  0.00  0.00    +0.000 C 
BRANCH  12  14
ATOM     14  O   UNL     1      44.756   2.319  10.067  0.00  0.00    +0.000 OA
BRANCH  14  15
ATOM     15  C   UNL     1      45.462   2.454   8.904  0.00  0.00    +0.000 A 
ATOM     16  C   UNL     1      45.687   3.645   8.211  0.00  0.00    +0.000 A 
ATOM     17  C   UNL     1      46.459   3.653   7.044  0.00  0.00    +0.000 A 
ATOM     18  C   UNL     1      46.998   2.465   6.556  0.00  0.00    +0.000 A 
ATOM     19 CL   UNL     1      47.928   2.482   5.110  0.00  0.00    +0.000 Cl
ATOM     20  C   UNL     1      46.782   1.271   7.236  0.00  0.00    +0.000 A 
ATOM     21  C   UNL     1      46.026   1.270   8.412  0.00  0.00    +0.000 A 
ENDBRANCH  14  15
ENDBRANCH  12  14
ENDBRANCH   4  12
TORSDOF 4
ENDMDL
MODEL 5
REMARK VINA RESULT:    -5.758      3.972      8.098
REMARK INTER + INTRA:          -7.655
REMARK INTER:                  -7.117
REMARK INTRA:                  -0.538
REMARK UNBOUND:                -0.551
REMARK  Name = 
REMARK  6 active torsions:
REMARK  status: ('A' for Active; 'I' for Inactive)
REMARK    1  A    between atoms: C_1  and  N_2
REMARK    2  A    between atoms: C_3  and  C_5
REMARK    3  A    between atoms: C_8  and  C_9
REMARK    4  A    between atoms: C_9  and  C_10
REMARK    5  A    between atoms: C_9  and  O_11
REMARK    6  A    between atoms: O_11  and  C_12
REMARK                            x       y       z     vdW  Elec       q    Type
REMARK                         _______ _______ _______ _____ _____    ______ ____
ROOT
ATOM      1  C   UNL     1      46.529   4.865  13.851  0.00  0.00    +0.000 A 
ATOM      2  C   UNL     1      47.472   5.874  13.772  0.00  0.00    +0.000 A 
ATOM      3  N   UNL     1      48.355   6.117  14.774  0.00  0.00    +0.000 NA
ATOM      4  C   UNL     1      48.271   5.312  15.869  0.00  0.00    +0.000 A 
ATOM      5  C   UNL     1      47.288   4.323  15.948  0.00  0.00    +0.000 A 
ATOM      6  N   UNL     1      46.404   4.063  14.949  0.00  0.00    +0.000 NA
ENDROOT
BRANCH   1   9
ATOM      7  C   UNL     1      43.849   3.168  11.800  0.00  0.00    +0.000 C 
ATOM      8  N   UNL     1      44.765   3.549  12.841  0.00  0.00    +0.000 N 
ATOM      9  C   UNL     1      45.635   4.609  12.688  0.00  0.00    +0.000 C 
ATOM     10  O   UNL     1      45.694   5.299  11.677  0.00  0.00    +0.000 OA
ATOM     11  H   UNL     1      44.805   3.043  13.719  0.00  0.00    +0.000 HD
ENDBRANCH   1   9
BRANCH   4  12
ATOM     12  C   UNL     1      49.296   5.474  16.988  0.00  0.00    +0.000 C 
ATOM     13  C   UNL     1      48.959   6.717  17.823  0.00  0.00    +0.000 C 
BRANCH  12  14
ATOM     14  O   UNL     1      49.273   4.283  17.789  0.00  0.00    +0.000 OA
BRANCH  14  15
ATOM     15  C   UNL     1      50.353   3.445  17.761  0.00  0.00    +0.000 A 
ATOM     16  C   UNL     1      50.353   2.117  17.331  0.00  0.00    +0.000 A 
ATOM     17  C   UNL     1      51.539   1.372  17.320  0.00  0.00    +0.000 A 
ATOM     18  C   UNL     1      52.729   1.951  17.755  0.00  0.00    +0.000 A 
ATOM     19 CL   UNL     1      54.175   1.023  17.757  0.00  0.00    +0.000 Cl
ATOM     20  C   UNL     1      52.744   3.273  18.186  0.00  0.00    +0.000 A 
ATOM     21  C   UNL     1      51.560   4.019  18.177  0.00  0.00    +0.000 A 
ENDBRANCH  14  15
ENDBRANCH  12  14
ENDBRANCH   4  12
TORSDOF 4
ENDMDL
MODEL 6
REMARK VINA RESULT:    -5.626      4.138      6.746
REMARK INTER + INTRA:          -7.493
REMARK INTER:                  -6.989
REMARK INTRA:                  -0.504
REMARK UNBOUND:                -0.551
REMARK  Name = 
REMARK  6 active torsions:
REMARK  status: ('A' for Active; 'I' for Inactive)
REMARK    1  A    between atoms: C_1  and  N_2
REMARK    2  A    between atoms: C_3  and  C_5
REMARK    3  A    between atoms: C_8  and  C_9
REMARK    4  A    between atoms: C_9  and  C_10
REMARK    5  A    between atoms: C_9  and  O_11
REMARK    6  A    between atoms: O_11  and  C_12
REMARK                            x       y       z     vdW  Elec       q    Type
REMARK                         _______ _______ _______ _____ _____    ______ ____
ROOT
ATOM      1  C   UNL     1      51.459   2.196  17.533  0.00  0.00    +0.000 A 
ATOM      2  C   UNL     1      51.317   3.561  17.703  0.00  0.00    +0.000 A 
ATOM      3  N   UNL     1      50.188   4.221  17.340  0.00  0.00    +0.000 NA
ATOM      4  C   UNL     1      49.190   3.469  16.799  0.00  0.00    +0.000 A 
ATOM      5  C   UNL     1      49.364   2.097  16.600  0.00  0.00    +0.000 A 
ATOM      6  N   UNL     1      50.486   1.423  16.966  0.00  0.00    +0.000 NA
ENDROOT
BRANCH   1   9
ATOM      7  C   UNL     1      54.130  -0.463  17.785  0.00  0.00    +0.000 C 
ATOM      8  N   UNL     1      52.976   0.313  17.417  0.00  0.00    +0.000 N 
ATOM      9  C   UNL     1      52.699   1.525  18.014  0.00  0.00    +0.000 C 
ATOM     10  O   UNL     1      53.397   2.030  18.884  0.00  0.00    +0.000 OA
ATOM     11  H   UNL     1      52.327  -0.013  16.709  0.00  0.00    +0.000 HD
ENDBRANCH   1   9
BRANCH   4  12
ATOM     12  C   UNL     1      47.861   4.136  16.458  0.00  0.00    +0.000 C 
ATOM     13  C   UNL     1      47.143   4.549  17.750  0.00  0.00    +0.000 C 
BRANCH  12  14
ATOM     14  O   UNL     1      48.133   5.271  15.623  0.00  0.00    +0.000 OA
BRANCH  14  15
ATOM     15  C   UNL     1      47.461   5.398  14.438  0.00  0.00    +0.000 A 
ATOM     16  C   UNL     1      47.568   6.463  13.542  0.00  0.00    +0.000 A 
ATOM     17  C   UNL     1      46.848   6.457  12.341  0.00  0.00    +0.000 A 
ATOM     18  C   UNL     1      46.003   5.392  12.041  0.00  0.00    +0.000 A 
ATOM     19 CL   UNL     1      45.106   5.404  10.574  0.00  0.00    +0.000 Cl
ATOM     20  C   UNL     1      45.885   4.325  12.925  0.00  0.00    +0.000 A 
ATOM     21  C   UNL     1      46.621   4.326  14.115  0.00  0.00    +0.000 A 
ENDBRANCH  14  15
ENDBRANCH  12  14
ENDBRANCH   4  12
TORSDOF 4
ENDMDL
MODEL 7
REMARK VINA RESULT:    -4.882      3.938      7.741
REMARK INTER + INTRA:          -6.575
REMARK INTER:                  -6.060
REMARK INTRA:                  -0.514
REMARK UNBOUND:                -0.551
REMARK  Name = 
REMARK  6 active torsions:
REMARK  status: ('A' for Active; 'I' for Inactive)
REMARK    1  A    between atoms: C_1  and  N_2
REMARK    2  A    between atoms: C_3  and  C_5
REMARK    3  A    between atoms: C_8  and  C_9
REMARK    4  A    between atoms: C_9  and  C_10
REMARK    5  A    between atoms: C_9  and  O_11
REMARK    6  A    between atoms: O_11  and  C_12
REMARK                            x       y       z     vdW  Elec       q    Type
REMARK                         _______ _______ _______ _____ _____    ______ ____
ROOT
ATOM      1  C   UNL     1      45.477   5.451  13.093  0.00  0.00    +0.000 A 
ATOM      2  C   UNL     1      46.565   4.761  13.593  0.00  0.00    +0.000 A 
ATOM      3  N   UNL     1      47.720   5.386  13.940  0.00  0.00    +0.000 NA
ATOM      4  C   UNL     1      47.754   6.737  13.774  0.00  0.00    +0.000 A 
ATOM      5  C   UNL     1      46.659   7.413  13.232  0.00  0.00    +0.000 A 
ATOM      6  N   UNL     1      45.495   6.801  12.888  0.00  0.00    +0.000 NA
ENDROOT
BRANCH   1   9
ATOM      7  C   UNL     1      43.268   2.688  11.767  0.00  0.00    +0.000 C 
ATOM      8  N   UNL     1      44.388   3.510  12.138  0.00  0.00    +0.000 N 
ATOM      9  C   UNL     1      44.218   4.711  12.794  0.00  0.00    +0.000 C 
ATOM     10  O   UNL     1      43.125   5.164  13.111  0.00  0.00    +0.000 OA
ATOM     11  H   UNL     1      45.339   3.233  11.920  0.00  0.00    +0.000 HD
ENDBRANCH   1   9
BRANCH   4  12
ATOM     12  C   UNL     1      48.988   7.509  14.233  0.00  0.00    +0.000 C 
ATOM     13  C   UNL     1      49.032   8.876  13.538  0.00  0.00    +0.000 C 
BRANCH  12  14
ATOM     14  O   UNL     1      48.921   7.648  15.660  0.00  0.00    +0.000 OA
BRANCH  14  15
ATOM     15  C   UNL     1      49.609   6.765  16.445  0.00  0.00    +0.000 A 
ATOM     16  C   UNL     1      49.060   5.927  17.417  0.00  0.00    +0.000 A 
ATOM     17  C   UNL     1      49.873   5.040  18.133  0.00  0.00    +0.000 A 
ATOM     18  C   UNL     1      51.243   4.999  17.889  0.00  0.00    +0.000 A 
ATOM     19 CL   UNL     1      52.236   3.921  18.788  0.00  0.00    +0.000 Cl
ATOM     20  C   UNL     1      51.804   5.829  16.924  0.00  0.00    +0.000 A 
ATOM     21  C   UNL     1      50.986   6.700  16.198  0.00  0.00    +0.000 A 
ENDBRANCH  14  15
ENDBRANCH  12  14
ENDBRANCH   4  12
TORSDOF 4
ENDMDL
MODEL 8
REMARK VINA RESULT:    -4.771      4.134      8.589
REMARK INTER + INTRA:          -6.437
REMARK INTER:                  -5.933
REMARK INTRA:                  -0.504
REMARK UNBOUND:                -0.551
REMARK  Name = 
REMARK  6 active torsions:
REMARK  status: ('A' for Active; 'I' for Inactive)
REMARK    1  A    between atoms: C_1  and  N_2
REMARK    2  A    between atoms: C_3  and  C_5
REMARK    3  A    between atoms: C_8  and  C_9
REMARK    4  A    between atoms: C_9  and  C_10
REMARK    5  A    between atoms: C_9  and  O_11
REMARK    6  A    between atoms: O_11  and  C_12
REMARK                            x       y       z     vdW  Elec       q    Type
REMARK                         _______ _______ _______ _____ _____    ______ ____
ROOT
ATOM      1  C   UNL     1      46.135   5.056  12.699  0.00  0.00    +0.000 A 
ATOM      2  C   UNL     1      45.910   3.903  13.429  0.00  0.00    +0.000 A 
ATOM      3  N   UNL     1      46.516   3.674  14.622  0.00  0.00    +0.000 NA
ATOM      4  C   UNL     1      47.361   4.643  15.072  0.00  0.00    +0.000 A 
ATOM      5  C   UNL     1      47.606   5.783  14.304  0.00  0.00    +0.000 A 
ATOM      6  N   UNL     1      47.000   6.029  13.112  0.00  0.00    +0.000 NA
ENDROOT
BRANCH   1   9
ATOM      7  C   UNL     1      44.151   4.175   9.608  0.00  0.00    +0.000 C 
ATOM      8  N   UNL     1      44.884   4.130  10.844  0.00  0.00    +0.000 N 
ATOM      9  C   UNL     1      45.387   5.274  11.429  0.00  0.00    +0.000 C 
ATOM     10  O   UNL     1      45.251   6.395  10.956  0.00  0.00    +0.000 OA
ATOM     11  H   UNL     1      45.059   3.252  11.321  0.00  0.00    +0.000 HD
ENDBRANCH   1   9
BRANCH   4  12
ATOM     12  C   UNL     1      48.000   4.487  16.449  0.00  0.00    +0.000 C 
ATOM     13  C   UNL     1      47.855   3.036  16.926  0.00  0.00    +0.000 C 
BRANCH  12  14
ATOM     14  O   UNL     1      49.379   4.870  16.347  0.00  0.00    +0.000 OA
BRANCH  14  15
ATOM     15  C   UNL     1      50.115   5.010  17.491  0.00  0.00    +0.000 A 
ATOM     16  C   UNL     1      49.773   5.788  18.599  0.00  0.00    +0.000 A 
ATOM     17  C   UNL     1      50.600   5.820  19.728  0.00  0.00    +0.000 A 
ATOM     18  C   UNL     1      51.783   5.086  19.746  0.00  0.00    +0.000 A 
ATOM     19 CL   UNL     1      52.803   5.148  21.128  0.00  0.00    +0.000 Cl
ATOM     20  C   UNL     1      52.137   4.307  18.649  0.00  0.00    +0.000 A 
ATOM     21  C   UNL     1      51.298   4.263  17.531  0.00  0.00    +0.000 A 
ENDBRANCH  14  15
ENDBRANCH  12  14
ENDBRANCH   4  12
TORSDOF 4
ENDMDL
