MODEL 1
REMARK VINA RESULT:    -8.126      0.000      0.000
REMARK INTER + INTRA:         -10.397
REMARK INTER:                 -10.026
REMARK INTRA:                  -0.371
REMARK UNBOUND:                -0.371
REMARK  Name = 
REMARK  4 active torsions:
REMARK  status: ('A' for Active; 'I' for Inactive)
REMARK    1  A    between atoms: C_2  and  C_4
REMARK    2  A    between atoms: C_7  and  N_8
REMARK    3  A    between atoms: N_8  and  C_9
REMARK    4  A    between atoms: C_9  and  C_10
REMARK                            x       y       z     vdW  Elec       q    Type
REMARK                         _______ _______ _______ _____ _____    ______ ____
ROOT
ATOM      1  C   UNL     1      46.621   2.691   7.455  0.00  0.00    +0.000 A 
ATOM      2  C   UNL     1      46.318   4.062   7.588  0.00  0.00    +0.000 A 
ATOM      3  C   UNL     1      45.398   4.487   8.551  0.00  0.00    +0.000 A 
ATOM      4  C   UNL     1      44.776   3.575   9.388  0.00  0.00    +0.000 A 
ATOM      5  C   UNL     1      45.114   2.213   9.277  0.00  0.00    +0.000 A 
ATOM      6  C   UNL     1      46.014   1.776   8.309  0.00  0.00    +0.000 A 
ENDROOT
BRANCH   1   8
ATOM      7  N   UNL     1      47.836   2.968   5.364  0.00  0.00    +0.000 N 
ATOM      8  C   UNL     1      47.537   2.155   6.417  0.00  0.00    +0.000 C 
ATOM      9  O   UNL     1      48.035   1.043   6.520  0.00  0.00    +0.000 OA
ATOM     10  H   UNL     1      48.555   2.627   4.741  0.00  0.00    +0.000 HD
ATOM     11  H   UNL     1      47.667   3.962   5.393  0.00  0.00    +0.000 HD
ENDBRANCH   1   8
BRANCH   4  12
ATOM     12  N   UNL     1      43.772   3.872  10.334  0.00  0.00    +0.000 N 
ATOM     13  H   UNL     1      43.432   2.997  10.745  0.00  0.00    +0.000 HD
BRANCH  12  14
ATOM     14  C   UNL     1      43.865   4.935  11.360  0.00  0.00    +0.000 C 
ATOM     15  C   UNL     1      42.618   5.049  12.230  0.00  0.00    +0.000 C 
ATOM     16  C   UNL     1      43.004   6.181  11.331  0.00  0.00    +0.000 C 
BRANCH  14  17
ATOM     17  C   UNL     1      45.241   4.904  12.047  0.00  0.00    +0.000 A 
ATOM     18  N   UNL     1      45.462   4.024  13.043  0.00  0.00    +0.000 NA
ATOM     19  C   UNL     1      46.417   4.350  13.936  0.00  0.00    +0.000 A 
ATOM     20  C   UNL     1      47.160   5.509  13.867  0.00  0.00    +0.000 A 
ATOM     21  C   UNL     1      46.933   6.291  12.764  0.00  0.00    +0.000 A 
ATOM     22  N   UNL     1      46.007   6.008  11.845  0.00  0.00    +0.000 NA
ENDBRANCH  14  17
ENDBRANCH  12  14
ENDBRANCH   4  12
TORSDOF 4
ENDMDL
MODEL 2
REMARK VINA RESULT:    -6.826      3.264      6.336
REMARK INTER + INTRA:          -8.793
REMARK INTER:                  -8.363
REMARK INTRA:                  -0.430
REMARK UNBOUND:                -0.371
REMARK  Name = 
REMARK  4 active torsions:
REMARK  status: ('A' for Active; 'I' for Inactive)
REMARK    1  A    between atoms: C_2  and  C_4
REMARK    2  A    between atoms: C_7  and  N_8
REMARK    3  A    between atoms: N_8  and  C_9
REMARK    4  A    between atoms: C_9  and  C_10
REMARK                            x       y       z     vdW  Elec       q    Type
REMARK                         _______ _______ _______ _____ _____    ______ ____
ROOT
ATOM      1  C   UNL     1      46.972   8.219  12.884  0.00  0.00    +0.000 A 
ATOM      2  C   UNL     1      47.592   7.192  12.143  0.00  0.00    +0.000 A 
ATOM      3  C   UNL     1      46.826   6.353  11.327  0.00  0.00    +0.000 A 
ATOM      4  C   UNL     1      45.455   6.518  11.233  0.00  0.00    +0.000 A 
ATOM      5  C   UNL     1      44.848   7.570  11.943  0.00  0.00    +0.000 A 
ATOM      6  C   UNL     1      45.597   8.400  12.773  0.00  0.00    +0.000 A 
ENDROOT
BRANCH   1   8
ATOM      7  N   UNL     1      47.381   9.032  15.141  0.00  0.00    +0.000 N 
ATOM      8  C   UNL     1      47.705   9.108  13.818  0.00  0.00    +0.000 C 
ATOM      9  O   UNL     1      48.593   9.852  13.426  0.00  0.00    +0.000 OA
ATOM     10  H   UNL     1      47.978   9.555  15.767  0.00  0.00    +0.000 HD
ATOM     11  H   UNL     1      46.865   8.253  15.520  0.00  0.00    +0.000 HD
ENDBRANCH   1   8
BRANCH   4  12
ATOM     12  N   UNL     1      44.570   5.685  10.515  0.00  0.00    +0.000 N 
ATOM     13  H   UNL     1      44.561   5.977   9.532  0.00  0.00    +0.000 HD
BRANCH  12  14
ATOM     14  C   UNL     1      44.519   4.210  10.626  0.00  0.00    +0.000 C 
ATOM     15  C   UNL     1      43.259   3.697  11.315  0.00  0.00    +0.000 C 
ATOM     16  C   UNL     1      44.595   3.484  11.954  0.00  0.00    +0.000 C 
BRANCH  14  17
ATOM     17  C   UNL     1      44.956   3.553   9.306  0.00  0.00    +0.000 A 
ATOM     18  N   UNL     1      45.175   2.224   9.272  0.00  0.00    +0.000 NA
ATOM     19  C   UNL     1      46.020   1.775   8.322  0.00  0.00    +0.000 A 
ATOM     20  C   UNL     1      46.643   2.597   7.408  0.00  0.00    +0.000 A 
ATOM     21  C   UNL     1      46.280   3.918   7.458  0.00  0.00    +0.000 A 
ATOM     22  N   UNL     1      45.440   4.411   8.371  0.00  0.00    +0.000 NA
ENDBRANCH  14  17
ENDBRANCH  12  14
ENDBRANCH   4  12
TORSDOF 4
ENDMDL
MODEL 3
REMARK VINA RESULT:    -6.805      1.302      2.014
REMARK INTER + INTRA:          -8.767
REMARK INTER:                  -9.512
REMARK INTRA:                   0.745
REMARK UNBOUND:                -0.371
REMARK  Name = 
REMARK  4 active torsions:
REMARK  status: ('A' for Active; 'I' for Inactive)
REMARK    1  A    between atoms: C_2  and  C_4
REMARK    2  A    between atoms: C_7  and  N_8
REMARK    3  A    between atoms: N_8  and  C_9
REMARK    4  A    between atoms: C_9  and  C_10
REMARK                            x       y       z     vdW  Elec       q    Type
REMARK                         _______ _______ _______ _____ _____    ______ ____
ROOT
ATOM      1  C   UNL     1      46.533   2.529   7.651  0.00  0.00    +0.000 A 
ATOM      2  C   UNL     1      46.502   3.938   7.703  0.00  0.00    +0.000 A 
ATOM      3  C   UNL     1      45.651   4.589   8.601  0.00  0.00    +0.000 A 
ATOM      4  C   UNL     1      44.833   3.865   9.452  0.00  0.00    +0.000 A 
ATOM      5  C   UNL     1      44.899   2.460   9.424  0.00  0.00    +0.000 A 
ATOM      6  C   UNL     1      45.727   1.800   8.520  0.00  0.00    +0.000 A 
ENDROOT
BRANCH   1   8
ATOM      7  N   UNL     1      48.354   2.441   6.038  0.00  0.00    +0.000 N 
ATOM      8  C   UNL     1      47.360   1.766   6.683  0.00  0.00    +0.000 C 
ATOM      9  O   UNL     1      47.184   0.570   6.499  0.00  0.00    +0.000 OA
ATOM     10  H   UNL     1      48.977   1.872   5.482  0.00  0.00    +0.000 HD
ATOM     11  H   UNL     1      48.692   3.333   6.365  0.00  0.00    +0.000 HD
ENDBRANCH   1   8
BRANCH   4  12
ATOM     12  N   UNL     1      43.876   4.407  10.336  0.00  0.00    +0.000 N 
ATOM     13  H   UNL     1      42.962   3.988  10.136  0.00  0.00    +0.000 HD
BRANCH  12  14
ATOM     14  C   UNL     1      44.070   4.576  11.794  0.00  0.00    +0.000 C 
ATOM     15  C   UNL     1      44.888   3.458  12.430  0.00  0.00    +0.000 C 
ATOM     16  C   UNL     1      43.455   3.642  12.817  0.00  0.00    +0.000 C 
BRANCH  14  17
ATOM     17  C   UNL     1      44.430   6.033  12.126  0.00  0.00    +0.000 A 
ATOM     18  N   UNL     1      43.946   7.025  11.354  0.00  0.00    +0.000 NA
ATOM     19  C   UNL     1      44.655   8.172  11.328  0.00  0.00    +0.000 A 
ATOM     20  C   UNL     1      45.815   8.365  12.046  0.00  0.00    +0.000 A 
ATOM     21  C   UNL     1      46.173   7.337  12.878  0.00  0.00    +0.000 A 
ATOM     22  N   UNL     1      45.500   6.186  12.950  0.00  0.00    +0.000 NA
ENDBRANCH  14  17
ENDBRANCH  12  14
ENDBRANCH   4  12
TORSDOF 4
ENDMDL
MODEL 4
REMARK VINA RESULT:    -6.443      2.980      6.408
REMARK INTER + INTRA:          -8.321
REMARK INTER:                  -8.055
REMARK INTRA:                  -0.267
REMARK UNBOUND:                -0.371
REMARK  Name = 
REMARK  4 active torsions:
REMARK  status: ('A' for Active; 'I' for Inactive)
REMARK    1  A    between atoms: C_2  and  C_4
REMARK    2  A    between atoms: C_7  and  N_8
REMARK    3  A    between atoms: N_8  and  C_9
REMARK    4  A    between atoms: C_9  and  C_10
REMARK                            x       y       z     vdW  Elec       q    Type
REMARK                         _______ _______ _______ _____ _____    ______ ____
ROOT
ATOM      1  C   UNL     1      47.744   5.450  14.930  0.00  0.00    +0.000 A 
ATOM      2  C   UNL     1      46.911   4.365  14.590  0.00  0.00    +0.000 A 
ATOM      3  C   UNL     1      46.206   4.371  13.382  0.00  0.00    +0.000 A 
ATOM      4  C   UNL     1      46.317   5.436  12.504  0.00  0.00    +0.000 A 
ATOM      5  C   UNL     1      47.181   6.497  12.831  0.00  0.00    +0.000 A 
ATOM      6  C   UNL     1      47.873   6.511  14.039  0.00  0.00    +0.000 A 
ENDROOT
BRANCH   1   8
ATOM      7  N   UNL     1      47.730   5.554  17.362  0.00  0.00    +0.000 N 
ATOM      8  C   UNL     1      48.473   5.547  16.218  0.00  0.00    +0.000 C 
ATOM      9  O   UNL     1      49.695   5.581  16.258  0.00  0.00    +0.000 OA
ATOM     10  H   UNL     1      48.254   5.495  18.223  0.00  0.00    +0.000 HD
ATOM     11  H   UNL     1      46.766   5.255  17.373  0.00  0.00    +0.000 HD
ENDBRANCH   1   8
BRANCH   4  12
ATOM     12  N   UNL     1      45.593   5.595  11.303  0.00  0.00    +0.000 N 
ATOM     13  H   UNL     1      46.253   5.643  10.520  0.00  0.00    +0.000 HD
BRANCH  12  14
ATOM     14  C   UNL     1      44.390   4.817  10.931  0.00  0.00    +0.000 C 
ATOM     15  C   UNL     1      43.101   5.631  10.984  0.00  0.00    +0.000 C 
ATOM     16  C   UNL     1      43.293   4.480  11.920  0.00  0.00    +0.000 C 
BRANCH  14  17
ATOM     17  C   UNL     1      44.666   3.956   9.688  0.00  0.00    +0.000 A 
ATOM     18  N   UNL     1      44.532   2.617   9.770  0.00  0.00    +0.000 NA
ATOM     19  C   UNL     1      45.250   1.883   8.895  0.00  0.00    +0.000 A 
ATOM     20  C   UNL     1      46.083   2.433   7.945  0.00  0.00    +0.000 A 
ATOM     21  C   UNL     1      46.076   3.802   7.874  0.00  0.00    +0.000 A 
ATOM     22  N   UNL     1      45.375   4.574   8.708  0.00  0.00    +0.000 NA
ENDBRANCH  14  17
ENDBRANCH  12  14
ENDBRANCH   4  12
TORSDOF 4
ENDMDL
MODEL 5
REMARK VINA RESULT:    -5.772      3.353      5.329
REMARK INTER + INTRA:          -7.494
REMARK INTER:                  -7.173
REMARK INTRA:                  -0.320
REMARK UNBOUND:                -0.371
REMARK  Name = 
REMARK  4 active torsions:
REMARK  status: ('A' for Active; 'I' for Inactive)
REMARK    1  A    between atoms: C_2  and  C_4
REMARK    2  A    between atoms: C_7  and  N_8
REMARK    3  A    between atoms: N_8  and  C_9
REMARK    4  A    between atoms: C_9  and  C_10
REMARK                            x       y       z     vdW  Elec       q    Type
REMARK                         _______ _______ _______ _____ _____    ______ ____
ROOT
ATOM      1  C   UNL     1      44.897   4.148  11.538  0.00  0.00    +0.000 A 
ATOM      2  C   UNL     1      45.058   5.398  10.906  0.00  0.00    +0.000 A 
ATOM      3  C   UNL     1      45.756   6.425  11.548  0.00  0.00    +0.000 A 
ATOM      4  C   UNL     1      46.300   6.232  12.807  0.00  0.00    +0.000 A 
ATOM      5  C   UNL     1      46.170   4.970  13.415  0.00  0.00    +0.000 A 
ATOM      6  C   UNL     1      45.461   3.945  12.794  0.00  0.00    +0.000 A 
ENDROOT
BRANCH   1   8
ATOM      7  N   UNL     1      44.712   2.304   9.961  0.00  0.00    +0.000 N 
ATOM      8  C   UNL     1      44.117   3.031  10.950  0.00  0.00    +0.000 C 
ATOM      9  O   UNL     1      43.001   2.746  11.361  0.00  0.00    +0.000 OA
ATOM     10  H   UNL     1      44.211   1.476   9.668  0.00  0.00    +0.000 HD
ATOM     11  H   UNL     1      45.707   2.337   9.799  0.00  0.00    +0.000 HD
ENDBRANCH   1   8
BRANCH   4  12
ATOM     12  N   UNL     1      46.946   7.214  13.587  0.00  0.00    +0.000 N 
ATOM     13  H   UNL     1      46.507   7.247  14.513  0.00  0.00    +0.000 HD
BRANCH  12  14
ATOM     14  C   UNL     1      48.413   7.380  13.694  0.00  0.00    +0.000 C 
ATOM     15  C   UNL     1      48.945   8.588  12.932  0.00  0.00    +0.000 C 
ATOM     16  C   UNL     1      49.346   7.209  12.513  0.00  0.00    +0.000 C 
BRANCH  14  17
ATOM     17  C   UNL     1      48.877   7.161  15.144  0.00  0.00    +0.000 A 
ATOM     18  N   UNL     1      49.048   5.905  15.600  0.00  0.00    +0.000 NA
ATOM     19  C   UNL     1      48.936   5.725  16.932  0.00  0.00    +0.000 A 
ATOM     20  C   UNL     1      48.671   6.747  17.818  0.00  0.00    +0.000 A 
ATOM     21  C   UNL     1      48.613   8.003  17.271  0.00  0.00    +0.000 A 
ATOM     22  N   UNL     1      48.728   8.236  15.962  0.00  0.00    +0.000 NA
ENDBRANCH  14  17
ENDBRANCH  12  14
ENDBRANCH   4  12
TORSDOF 4
ENDMDL
MODEL 6
REMARK VINA RESULT:    -5.673      4.635      7.696
REMARK INTER + INTRA:          -7.371
REMARK INTER:                  -6.725
REMARK INTRA:                  -0.647
REMARK UNBOUND:                -0.371
REMARK  Name = 
REMARK  4 active torsions:
REMARK  status: ('A' for Active; 'I' for Inactive)
REMARK    1  A    between atoms: C_2  and  C_4
REMARK    2  A    between atoms: C_7  and  N_8
REMARK    3  A    between atoms: N_8  and  C_9
REMARK    4  A    between atoms: C_9  and  C_10
REMARK                            x       y       z     vdW  Elec       q    Type
REMARK                         _______ _______ _______ _____ _____    ______ ____
ROOT
ATOM      1  C   UNL     1      48.213   4.924  17.545  0.00  0.00    +0.000 A 
ATOM      2  C   UNL     1      48.811   6.040  16.923  0.00  0.00    +0.000 A 
ATOM      3  C   UNL     1      48.582   6.295  15.568  0.00  0.00    +0.000 A 
ATOM      4  C   UNL     1      47.767   5.464  14.819  0.00  0.00    +0.000 A 
ATOM      5  C   UNL     1      47.140   4.376  15.455  0.00  0.00    +0.000 A 
ATOM      6  C   UNL     1      47.376   4.100  16.799  0.00  0.00    +0.000 A 
ENDROOT
BRANCH   1   8
ATOM      7  N   UNL     1      48.374   3.227  19.282  0.00  0.00    +0.000 N 
ATOM      8  C   UNL     1      48.456   4.550  18.960  0.00  0.00    +0.000 C 
ATOM      9  O   UNL     1      48.757   5.388  19.798  0.00  0.00    +0.000 OA
ATOM     10  H   UNL     1      48.665   2.988  20.220  0.00  0.00    +0.000 HD
ATOM     11  H   UNL     1      48.402   2.505  18.579  0.00  0.00    +0.000 HD
ENDBRANCH   1   8
BRANCH   4  12
ATOM     12  N   UNL     1      47.531   5.570  13.431  0.00  0.00    +0.000 N 
ATOM     13  H   UNL     1      47.556   4.632  13.017  0.00  0.00    +0.000 HD
BRANCH  12  14
ATOM     14  C   UNL     1      46.465   6.390  12.814  0.00  0.00    +0.000 C 
ATOM     15  C   UNL     1      46.989   7.410  11.809  0.00  0.00    +0.000 C 
ATOM     16  C   UNL     1      46.324   7.877  13.066  0.00  0.00    +0.000 C 
BRANCH  14  17
ATOM     17  C   UNL     1      45.269   5.509  12.414  0.00  0.00    +0.000 A 
ATOM     18  N   UNL     1      44.038   5.826  12.861  0.00  0.00    +0.000 NA
ATOM     19  C   UNL     1      43.148   4.816  12.947  0.00  0.00    +0.000 A 
ATOM     20  C   UNL     1      43.439   3.515  12.597  0.00  0.00    +0.000 A 
ATOM     21  C   UNL     1      44.683   3.311  12.060  0.00  0.00    +0.000 A 
ATOM     22  N   UNL     1      45.596   4.278  11.943  0.00  0.00    +0.000 NA
ENDBRANCH  14  17
ENDBRANCH  12  14
ENDBRANCH   4  12
TORSDOF 4
ENDMDL
MODEL 7
REMARK VINA RESULT:    -5.490      3.422      6.894
REMARK INTER + INTRA:          -7.145
REMARK INTER:                  -6.944
REMARK INTRA:                  -0.201
REMARK UNBOUND:                -0.371
REMARK  Name = 
REMARK  4 active torsions:
REMARK  status: ('A' for Active; 'I' for Inactive)
REMARK    1  A    between atoms: C_2  and  C_4
REMARK    2  A    between atoms: C_7  and  N_8
REMARK    3  A    between atoms: N_8  and  C_9
REMARK    4  A    between atoms: C_9  and  C_10
REMARK                            x       y       z     vdW  Elec       q    Type
REMARK                         _______ _______ _______ _____ _____    ______ ____
ROOT
ATOM      1  C   UNL     1      47.988   4.783  16.134  0.00  0.00    +0.000 A 
ATOM      2  C   UNL     1      48.417   6.029  15.633  0.00  0.00    +0.000 A 
ATOM      3  C   UNL     1      48.011   6.453  14.363  0.00  0.00    +0.000 A 
ATOM      4  C   UNL     1      47.183   5.663  13.585  0.00  0.00    +0.000 A 
ATOM      5  C   UNL     1      46.725   4.440  14.107  0.00  0.00    +0.000 A 
ATOM      6  C   UNL     1      47.138   3.997  15.362  0.00  0.00    +0.000 A 
ENDROOT
BRANCH   1   8
ATOM      7  N   UNL     1      47.473   3.658  18.229  0.00  0.00    +0.000 N 
ATOM      8  C   UNL     1      48.425   4.235  17.441  0.00  0.00    +0.000 C 
ATOM      9  O   UNL     1      49.598   4.264  17.785  0.00  0.00    +0.000 OA
ATOM     10  H   UNL     1      47.817   3.184  19.053  0.00  0.00    +0.000 HD
ATOM     11  H   UNL     1      46.575   3.378  17.863  0.00  0.00    +0.000 HD
ENDBRANCH   1   8
BRANCH   4  12
ATOM     12  N   UNL     1      46.778   5.943  12.262  0.00  0.00    +0.000 N 
ATOM     13  H   UNL     1      47.495   5.599  11.614  0.00  0.00    +0.000 HD
BRANCH  12  14
ATOM     14  C   UNL     1      45.422   5.701  11.722  0.00  0.00    +0.000 C 
ATOM     15  C   UNL     1      44.629   6.981  11.478  0.00  0.00    +0.000 C 
ATOM     16  C   UNL     1      44.161   6.001  12.507  0.00  0.00    +0.000 C 
BRANCH  14  17
ATOM     17  C   UNL     1      45.463   4.637  10.613  0.00  0.00    +0.000 A 
ATOM     18  N   UNL     1      45.693   5.019   9.341  0.00  0.00    +0.000 NA
ATOM     19  C   UNL     1      45.222   4.208   8.372  0.00  0.00    +0.000 A 
ATOM     20  C   UNL     1      44.543   3.036   8.626  0.00  0.00    +0.000 A 
ATOM     21  C   UNL     1      44.446   2.682   9.946  0.00  0.00    +0.000 A 
ATOM     22  N   UNL     1      44.905   3.444  10.942  0.00  0.00    +0.000 NA
ENDBRANCH  14  17
ENDBRANCH  12  14
ENDBRANCH   4  12
TORSDOF 4
ENDMDL
MODEL 8
REMARK VINA RESULT:    -5.341      6.254      9.234
REMARK INTER + INTRA:          -6.961
REMARK INTER:                  -6.684
REMARK INTRA:                  -0.277
REMARK UNBOUND:                -0.371
REMARK  Name = 
REMARK  4 active torsions:
REMARK  status: ('A' for Active; 'I' for Inactive)
REMARK    1  A    between atoms: C_2  and  C_4
REMARK    2  A    between atoms: C_7  and  N_8
REMARK    3  A    between atoms: N_8  and  C_9
REMARK    4  A    between atoms: C_9  and  C_10
REMARK                            x       y       z     vdW  Elec       q    Type
REMARK                         _______ _______ _______ _____ _____    ______ ____
ROOT
ATOM      1  C   UNL     1      52.554   1.570  17.844  0.00  0.00    +0.000 A 
ATOM      2  C   UNL     1      51.308   1.171  17.319  0.00  0.00    +0.000 A 
ATOM      3  C   UNL     1      50.293   2.112  17.125  0.00  0.00    +0.000 A 
ATOM      4  C   UNL     1      50.494   3.445  17.441  0.00  0.00    +0.000 A 
ATOM      5  C   UNL     1      51.753   3.844  17.927  0.00  0.00    +0.000 A 
ATOM      6  C   UNL     1      52.766   2.913  18.142  0.00  0.00    +0.000 A 
ENDROOT
BRANCH   1   8
ATOM      7  N   UNL     1      53.316  -0.650  18.486  0.00  0.00    +0.000 N 
ATOM      8  C   UNL     1      53.658   0.624  18.138  0.00  0.00    +0.000 C 
ATOM      9  O   UNL     1      54.830   0.958  18.035  0.00  0.00    +0.000 OA
ATOM     10  H   UNL     1      54.084  -1.304  18.557  0.00  0.00    +0.000 HD
ATOM     11  H   UNL     1      52.394  -1.021  18.313  0.00  0.00    +0.000 HD
ENDBRANCH   1   8
BRANCH   4  12
ATOM     12  N   UNL     1      49.523   4.466  17.371  0.00  0.00    +0.000 N 
ATOM     13  H   UNL     1      49.935   5.288  16.917  0.00  0.00    +0.000 HD
BRANCH  12  14
ATOM     14  C   UNL     1      48.121   4.273  16.938  0.00  0.00    +0.000 C 
ATOM     15  C   UNL     1      47.098   4.800  17.938  0.00  0.00    +0.000 C 
ATOM     16  C   UNL     1      47.165   3.334  17.646  0.00  0.00    +0.000 C 
BRANCH  14  17
ATOM     17  C   UNL     1      47.958   4.642  15.454  0.00  0.00    +0.000 A 
ATOM     18  N   UNL     1      48.309   5.875  15.039  0.00  0.00    +0.000 NA
ATOM     19  C   UNL     1      47.699   6.334  13.927  0.00  0.00    +0.000 A 
ATOM     20  C   UNL     1      46.767   5.609  13.217  0.00  0.00    +0.000 A 
ATOM     21  C   UNL     1      46.550   4.330  13.659  0.00  0.00    +0.000 A 
ATOM     22  N   UNL     1      47.136   3.824  14.747  0.00  0.00    +0.000 NA
ENDBRANCH  14  17
ENDBRANCH  12  14
ENDBRANCH   4  12
TORSDOF 4
ENDMDL
MODEL 9
REMARK VINA RESULT:    -5.202      4.664      6.305
REMARK INTER + INTRA:          -6.789
REMARK INTER:                  -6.567
REMARK INTRA:                  -0.222
REMARK UNBOUND:                -0.371
REMARK  Name = 
REMARK  4 active torsions:
REMARK  status: ('A' for Active; 'I' for Inactive)
REMARK    1  A    between atoms: C_2  and  C_4
REMARK    2  A    between atoms: C_7  and  N_8
REMARK    3  A    between atoms: N_8  and  C_9
REMARK    4  A    between atoms: C_9  and  C_10
REMARK                            x       y       z     vdW  Elec       q    Type
REMARK                         _______ _______ _______ _____ _____    ______ ____
ROOT
ATOM      1  C   UNL     1      44.822   9.240  11.687  0.00  0.00    +0.000 A 
ATOM      2  C   UNL     1      45.798   9.378  12.695  0.00  0.00    +0.000 A 
ATOM      3  C   UNL     1      46.563   8.276  13.088  0.00  0.00    +0.000 A 
ATOM      4  C   UNL     1      46.378   7.038  12.495  0.00  0.00    +0.000 A 
ATOM      5  C   UNL     1      45.431   6.917  11.461  0.00  0.00    +0.000 A 
ATOM      6  C   UNL     1      44.649   8.003  11.075  0.00  0.00    +0.000 A 
ENDROOT
BRANCH   1   8
ATOM      7  N   UNL     1      42.996  10.780  12.155  0.00  0.00    +0.000 N 
ATOM      8  C   UNL     1      43.928  10.344  11.259  0.00  0.00    +0.000 C 
ATOM      9  O   UNL     1      44.045  10.871  10.162  0.00  0.00    +0.000 OA
ATOM     10  H   UNL     1      42.488  11.611  11.886  0.00  0.00    +0.000 HD
ATOM     11  H   UNL     1      43.058  10.561  13.138  0.00  0.00    +0.000 HD
ENDBRANCH   1   8
BRANCH   4  12
ATOM     12  N   UNL     1      47.025   5.840  12.864  0.00  0.00    +0.000 N 
ATOM     13  H   UNL     1      47.973   6.060  13.189  0.00  0.00    +0.000 HD
BRANCH  12  14
ATOM     14  C   UNL     1      46.420   4.771  13.691  0.00  0.00    +0.000 C 
ATOM     15  C   UNL     1      45.999   3.547  12.885  0.00  0.00    +0.000 C 
ATOM     16  C   UNL     1      44.962   4.374  13.578  0.00  0.00    +0.000 C 
BRANCH  14  17
ATOM     17  C   UNL     1      47.230   4.562  14.981  0.00  0.00    +0.000 A 
ATOM     18  N   UNL     1      46.744   3.750  15.940  0.00  0.00    +0.000 NA
ATOM     19  C   UNL     1      47.167   3.983  17.199  0.00  0.00    +0.000 A 
ATOM     20  C   UNL     1      48.056   4.982  17.531  0.00  0.00    +0.000 A 
ATOM     21  C   UNL     1      48.571   5.688  16.475  0.00  0.00    +0.000 A 
ATOM     22  N   UNL     1      48.194   5.491  15.209  0.00  0.00    +0.000 NA
ENDBRANCH  14  17
ENDBRANCH  12  14
ENDBRANCH   4  12
TORSDOF 4
ENDMDL
