MODEL 1
REMARK VINA RESULT:    -8.211      0.000      0.000
REMARK INTER + INTRA:         -12.449
REMARK INTER:                 -11.571
REMARK INTRA:                  -0.878
REMARK UNBOUND:                -0.878
REMARK  Name = 
REMARK  8 active torsions:
REMARK  status: ('A' for Active; 'I' for Inactive)
REMARK    1  A    between atoms: C_1  and  C_2
REMARK    2  A    between atoms: C_2  and  N_3
REMARK    3  A    between atoms: N_3  and  C_4
REMARK    4  A    between atoms: C_4  and  C_5
REMARK    5  A    between atoms: C_8  and  C_9
REMARK    6  A    between atoms: C_9  and  N_10
REMARK    7  A    between atoms: C_11  and  C_13
REMARK    8  A    between atoms: C_20  and  C_22
REMARK                            x       y       z     vdW  Elec       q    Type
REMARK                         _______ _______ _______ _____ _____    ______ ____
ROOT
ATOM      1  C   UNL     1      47.511   5.903  12.898  0.00  0.00    +0.000 C 
ENDROOT
BRANCH   1   2
ATOM      2  C   UNL     1      47.486   5.489  14.355  0.00  0.00    +0.000 A 
ATOM      3  C   UNL     1      48.362   6.062  15.270  0.00  0.00    +0.000 A 
ATOM      4  C   UNL     1      48.531   5.448  16.511  0.00  0.00    +0.000 A 
ATOM      5  C   UNL     1      47.828   4.278  16.810  0.00  0.00    +0.000 A 
ATOM      6  C   UNL     1      46.885   3.851  15.884  0.00  0.00    +0.000 A 
ATOM      7  N   UNL     1      46.702   4.426  14.675  0.00  0.00    +0.000 NA
BRANCH   5   8
ATOM      8  C   UNL     1      48.135   3.458  18.027  0.00  0.00    +0.000 C 
BRANCH   8   9
ATOM      9  N   UNL     1      49.523   3.100  18.139  0.00  0.00    +0.000 N 
ATOM     10  C   UNL     1      50.082   2.231  17.229  0.00  0.00    +0.000 C 
ATOM     11  O   UNL     1      49.423   1.707  16.333  0.00  0.00    +0.000 OA
ATOM     12  H   UNL     1      50.117   3.613  18.771  0.00  0.00    +0.000 HD
BRANCH  10  13
ATOM     13  C   UNL     1      51.494   1.983  17.396  0.00  0.00    +0.000 A 
ATOM     14  C   UNL     1      52.539   2.789  17.826  0.00  0.00    +0.000 A 
ATOM     15  C   UNL     1      53.728   2.021  17.804  0.00  0.00    +0.000 A 
ATOM     16  C   UNL     1      53.395   0.763  17.362  0.00  0.00    +0.000 A 
ATOM     17  N   UNL     1      52.048   0.747  17.120  0.00  0.00    +0.000 N 
ATOM     18  H   UNL     1      51.510  -0.045  16.790  0.00  0.00    +0.000 HD
ENDBRANCH  10  13
ENDBRANCH   8   9
ENDBRANCH   5   8
ENDBRANCH   1   2
BRANCH   1  19
ATOM     19  N   UNL     1      46.605   6.949  12.419  0.00  0.00    +0.000 N 
ATOM     20  C   UNL     1      45.356   6.680  11.831  0.00  0.00    +0.000 C 
ATOM     21  O   UNL     1      44.624   7.587  11.441  0.00  0.00    +0.000 OA
BRANCH  20  22
ATOM     22  C   UNL     1      44.892   5.292  11.707  0.00  0.00    +0.000 A 
ATOM     23  C   UNL     1      44.184   4.609  12.682  0.00  0.00    +0.000 A 
ATOM     24  S   UNL     1      43.675   3.054  12.186  0.00  0.00    +0.000 S 
ATOM     25  C   UNL     1      44.284   3.299  10.614  0.00  0.00    +0.000 A 
ATOM     26  N   UNL     1      44.094   2.372   9.634  0.00  0.00    +0.000 NA
ATOM     27  C   UNL     1      44.554   2.729   8.480  0.00  0.00    +0.000 A 
ATOM     28  N   UNL     1      45.218   3.903   8.228  0.00  0.00    +0.000 N 
ATOM     29  C   UNL     1      45.550   4.803   9.219  0.00  0.00    +0.000 A 
ATOM     30  O   UNL     1      46.345   5.710   9.011  0.00  0.00    +0.000 OA
ATOM     31  C   UNL     1      44.946   4.503  10.502  0.00  0.00    +0.000 A 
ATOM     32  H   UNL     1      45.611   4.085   7.318  0.00  0.00    +0.000 HD
ENDBRANCH  20  22
BRANCH  19  34
ATOM     33  C   UNL     1      48.317   8.710  12.165  0.00  0.00    +0.000 C 
ATOM     34  C   UNL     1      46.925   8.355  12.669  0.00  0.00    +0.000 C 
ENDBRANCH  19  34
ENDBRANCH   1  19
TORSDOF 7
ENDMDL
MODEL 2
REMARK VINA RESULT:    -7.813      3.486      8.093
REMARK INTER + INTRA:         -11.888
REMARK INTER:                 -10.597
REMARK INTRA:                  -1.292
REMARK UNBOUND:                -0.878
REMARK  Name = 
REMARK  8 active torsions:
REMARK  status: ('A' for Active; 'I' for Inactive)
REMARK    1  A    between atoms: C_1  and  C_2
REMARK    2  A    between atoms: C_2  and  N_3
REMARK    3  A    between atoms: N_3  and  C_4
REMARK    4  A    between atoms: C_4  and  C_5
REMARK    5  A    between atoms: C_8  and  C_9
REMARK    6  A    between atoms: C_9  and  N_10
REMARK    7  A    between atoms: C_11  and  C_13
REMARK    8  A    between atoms: C_20  and  C_22
REMARK                            x       y       z     vdW  Elec       q    Type
REMARK                         _______ _______ _______ _____ _____    ______ ____
ROOT
ATOM      1  C   UNL     1      47.331   7.646  13.788  0.00  0.00    +0.000 C 
ENDROOT
BRANCH   1   2
ATOM      2  C   UNL     1      46.405   6.482  13.508  0.00  0.00    +0.000 A 
ATOM      3  C   UNL     1      46.811   5.176  13.761  0.00  0.00    +0.000 A 
ATOM      4  C   UNL     1      46.076   4.127  13.209  0.00  0.00    +0.000 A 
ATOM      5  C   UNL     1      44.960   4.401  12.416  0.00  0.00    +0.000 A 
ATOM      6  C   UNL     1      44.559   5.727  12.323  0.00  0.00    +0.000 A 
ATOM      7  N   UNL     1      45.252   6.763  12.846  0.00  0.00    +0.000 NA
BRANCH   5   8
ATOM      8  C   UNL     1      44.271   3.333  11.619  0.00  0.00    +0.000 C 
BRANCH   8   9
ATOM      9  N   UNL     1      45.075   2.815  10.545  0.00  0.00    +0.000 N 
ATOM     10  C   UNL     1      44.940   3.334   9.277  0.00  0.00    +0.000 C 
ATOM     11  O   UNL     1      44.119   4.209   9.010  0.00  0.00    +0.000 OA
ATOM     12  H   UNL     1      45.846   2.202  10.755  0.00  0.00    +0.000 HD
BRANCH  10  13
ATOM     13  C   UNL     1      45.833   2.785   8.284  0.00  0.00    +0.000 A 
ATOM     14  C   UNL     1      46.487   3.353   7.200  0.00  0.00    +0.000 A 
ATOM     15  C   UNL     1      47.253   2.344   6.568  0.00  0.00    +0.000 A 
ATOM     16  C   UNL     1      47.057   1.179   7.271  0.00  0.00    +0.000 A 
ATOM     17  N   UNL     1      46.203   1.453   8.304  0.00  0.00    +0.000 N 
ATOM     18  H   UNL     1      45.875   0.793   8.999  0.00  0.00    +0.000 HD
ENDBRANCH  10  13
ENDBRANCH   8   9
ENDBRANCH   5   8
ENDBRANCH   1   2
BRANCH   1  19
ATOM     19  N   UNL     1      48.782   7.469  13.685  0.00  0.00    +0.000 N 
ATOM     20  C   UNL     1      49.662   7.657  14.766  0.00  0.00    +0.000 C 
ATOM     21  O   UNL     1      50.874   7.498  14.639  0.00  0.00    +0.000 OA
BRANCH  20  22
ATOM     22  C   UNL     1      49.130   8.018  16.086  0.00  0.00    +0.000 A 
ATOM     23  C   UNL     1      48.879   9.314  16.506  0.00  0.00    +0.000 A 
ATOM     24  S   UNL     1      48.137   9.396  18.045  0.00  0.00    +0.000 S 
ATOM     25  C   UNL     1      48.024   7.699  18.139  0.00  0.00    +0.000 A 
ATOM     26  N   UNL     1      47.391   7.093  19.182  0.00  0.00    +0.000 NA
ATOM     27  C   UNL     1      47.327   5.806  19.080  0.00  0.00    +0.000 A 
ATOM     28  N   UNL     1      47.870   5.073  18.055  0.00  0.00    +0.000 N 
ATOM     29  C   UNL     1      48.634   5.635  17.054  0.00  0.00    +0.000 A 
ATOM     30  O   UNL     1      49.303   4.939  16.301  0.00  0.00    +0.000 OA
ATOM     31  C   UNL     1      48.627   7.084  17.062  0.00  0.00    +0.000 A 
ATOM     32  H   UNL     1      47.842   4.065  18.075  0.00  0.00    +0.000 HD
ENDBRANCH  20  22
BRANCH  19  34
ATOM     33  C   UNL     1      49.532   8.034  11.402  0.00  0.00    +0.000 C 
ATOM     34  C   UNL     1      49.361   6.942  12.450  0.00  0.00    +0.000 C 
ENDBRANCH  19  34
ENDBRANCH   1  19
TORSDOF 7
ENDMDL
MODEL 3
REMARK VINA RESULT:    -7.604      1.431      2.100
REMARK INTER + INTRA:         -11.594
REMARK INTER:                 -10.350
REMARK INTRA:                  -1.244
REMARK UNBOUND:                -0.878
REMARK  Name = 
REMARK  8 active torsions:
REMARK  status: ('A' for Active; 'I' for Inactive)
REMARK    1  A    between atoms: C_1  and  C_2
REMARK    2  A    between atoms: C_2  and  N_3
REMARK    3  A    between atoms: N_3  and  C_4
REMARK    4  A    between atoms: C_4  and  C_5
REMARK    5  A    between atoms: C_8  and  C_9
REMARK    6  A    between atoms: C_9  and  N_10
REMARK    7  A    between atoms: C_11  and  C_13
REMARK    8  A    between atoms: C_20  and  C_22
REMARK                            x       y       z     vdW  Elec       q    Type
REMARK                         _______ _______ _______ _____ _____    ______ ____
ROOT
ATOM      1  C   UNL     1      47.485   6.255  12.732  0.00  0.00    +0.000 C 
ENDROOT
BRANCH   1   2
ATOM      2  C   UNL     1      47.351   5.593  14.087  0.00  0.00    +0.000 A 
ATOM      3  C   UNL     1      48.128   6.013  15.161  0.00  0.00    +0.000 A 
ATOM      4  C   UNL     1      48.212   5.196  16.289  0.00  0.00    +0.000 A 
ATOM      5  C   UNL     1      47.525   3.980  16.319  0.00  0.00    +0.000 A 
ATOM      6  C   UNL     1      46.678   3.704  15.254  0.00  0.00    +0.000 A 
ATOM      7  N   UNL     1      46.578   4.477  14.149  0.00  0.00    +0.000 NA
BRANCH   5   8
ATOM      8  C   UNL     1      47.755   2.966  17.399  0.00  0.00    +0.000 C 
BRANCH   8   9
ATOM      9  N   UNL     1      49.125   2.892  17.830  0.00  0.00    +0.000 N 
ATOM     10  C   UNL     1      50.036   2.166  17.096  0.00  0.00    +0.000 C 
ATOM     11  O   UNL     1      49.715   1.533  16.093  0.00  0.00    +0.000 OA
ATOM     12  H   UNL     1      49.447   3.504  18.562  0.00  0.00    +0.000 HD
BRANCH  10  13
ATOM     13  C   UNL     1      51.395   2.204  17.583  0.00  0.00    +0.000 A 
ATOM     14  C   UNL     1      52.460   1.324  17.449  0.00  0.00    +0.000 A 
ATOM     15  C   UNL     1      53.575   1.873  18.127  0.00  0.00    +0.000 A 
ATOM     16  C   UNL     1      53.177   3.075  18.664  0.00  0.00    +0.000 A 
ATOM     17  N   UNL     1      51.864   3.268  18.330  0.00  0.00    +0.000 N 
ATOM     18  H   UNL     1      51.296   4.069  18.579  0.00  0.00    +0.000 HD
ENDBRANCH  10  13
ENDBRANCH   8   9
ENDBRANCH   5   8
ENDBRANCH   1   2
BRANCH   1  19
ATOM     19  N   UNL     1      46.630   7.392  12.385  0.00  0.00    +0.000 N 
ATOM     20  C   UNL     1      45.580   7.314  11.452  0.00  0.00    +0.000 C 
ATOM     21  O   UNL     1      44.884   8.292  11.188  0.00  0.00    +0.000 OA
BRANCH  20  22
ATOM     22  C   UNL     1      45.278   6.034  10.800  0.00  0.00    +0.000 A 
ATOM     23  C   UNL     1      45.804   5.626   9.585  0.00  0.00    +0.000 A 
ATOM     24  S   UNL     1      45.363   4.029   9.157  0.00  0.00    +0.000 S 
ATOM     25  C   UNL     1      44.556   3.799  10.640  0.00  0.00    +0.000 A 
ATOM     26  N   UNL     1      44.020   2.591  10.969  0.00  0.00    +0.000 NA
ATOM     27  C   UNL     1      43.501   2.552  12.152  0.00  0.00    +0.000 A 
ATOM     28  N   UNL     1      43.435   3.617  13.014  0.00  0.00    +0.000 N 
ATOM     29  C   UNL     1      43.842   4.888  12.669  0.00  0.00    +0.000 A 
ATOM     30  O   UNL     1      43.551   5.857  13.357  0.00  0.00    +0.000 OA
ATOM     31  C   UNL     1      44.543   4.949  11.401  0.00  0.00    +0.000 A 
ATOM     32  H   UNL     1      42.953   3.534  13.897  0.00  0.00    +0.000 HD
ENDBRANCH  20  22
BRANCH  19  34
ATOM     33  C   UNL     1      48.191   9.174  13.083  0.00  0.00    +0.000 C 
ATOM     34  C   UNL     1      46.761   8.650  13.122  0.00  0.00    +0.000 C 
ENDBRANCH  19  34
ENDBRANCH   1  19
TORSDOF 7
ENDMDL
MODEL 4
REMARK VINA RESULT:    -7.568      2.684      8.215
REMARK INTER + INTRA:         -11.543
REMARK INTER:                 -10.364
REMARK INTRA:                  -1.179
REMARK UNBOUND:                -0.878
REMARK  Name = 
REMARK  8 active torsions:
REMARK  status: ('A' for Active; 'I' for Inactive)
REMARK    1  A    between atoms: C_1  and  C_2
REMARK    2  A    between atoms: C_2  and  N_3
REMARK    3  A    between atoms: N_3  and  C_4
REMARK    4  A    between atoms: C_4  and  C_5
REMARK    5  A    between atoms: C_8  and  C_9
REMARK    6  A    between atoms: C_9  and  N_10
REMARK    7  A    between atoms: C_11  and  C_13
REMARK    8  A    between atoms: C_20  and  C_22
REMARK                            x       y       z     vdW  Elec       q    Type
REMARK                         _______ _______ _______ _____ _____    ______ ____
ROOT
ATOM      1  C   UNL     1      48.695   6.524  14.594  0.00  0.00    +0.000 C 
ENDROOT
BRANCH   1   2
ATOM      2  C   UNL     1      47.433   6.255  13.802  0.00  0.00    +0.000 A 
ATOM      3  C   UNL     1      46.847   4.994  13.807  0.00  0.00    +0.000 A 
ATOM      4  C   UNL     1      45.888   4.696  12.839  0.00  0.00    +0.000 A 
ATOM      5  C   UNL     1      45.539   5.656  11.887  0.00  0.00    +0.000 A 
ATOM      6  C   UNL     1      46.084   6.925  12.037  0.00  0.00    +0.000 A 
ATOM      7  N   UNL     1      47.015   7.241  12.964  0.00  0.00    +0.000 NA
BRANCH   5   8
ATOM      8  C   UNL     1      44.690   5.322  10.697  0.00  0.00    +0.000 C 
BRANCH   8   9
ATOM      9  N   UNL     1      45.418   4.675   9.640  0.00  0.00    +0.000 N 
ATOM     10  C   UNL     1      45.096   3.386   9.276  0.00  0.00    +0.000 C 
ATOM     11  O   UNL     1      44.225   2.740   9.854  0.00  0.00    +0.000 OA
ATOM     12  H   UNL     1      46.037   5.218   9.060  0.00  0.00    +0.000 HD
BRANCH  10  13
ATOM     13  C   UNL     1      45.848   2.850   8.166  0.00  0.00    +0.000 A 
ATOM     14  C   UNL     1      46.272   3.410   6.969  0.00  0.00    +0.000 A 
ATOM     15  C   UNL     1      46.989   2.424   6.249  0.00  0.00    +0.000 A 
ATOM     16  C   UNL     1      46.993   1.281   7.013  0.00  0.00    +0.000 A 
ATOM     17  N   UNL     1      46.305   1.546   8.167  0.00  0.00    +0.000 N 
ATOM     18  H   UNL     1      46.145   0.898   8.928  0.00  0.00    +0.000 HD
ENDBRANCH  10  13
ENDBRANCH   8   9
ENDBRANCH   5   8
ENDBRANCH   1   2
BRANCH   1  19
ATOM     19  N   UNL     1      48.647   7.385  15.778  0.00  0.00    +0.000 N 
ATOM     20  C   UNL     1      48.528   6.890  17.090  0.00  0.00    +0.000 C 
ATOM     21  O   UNL     1      48.490   7.645  18.058  0.00  0.00    +0.000 OA
BRANCH  20  22
ATOM     22  C   UNL     1      48.482   5.440  17.320  0.00  0.00    +0.000 A 
ATOM     23  C   UNL     1      47.332   4.670  17.260  0.00  0.00    +0.000 A 
ATOM     24  S   UNL     1      47.627   2.995  17.446  0.00  0.00    +0.000 S 
ATOM     25  C   UNL     1      49.312   3.244  17.492  0.00  0.00    +0.000 A 
ATOM     26  N   UNL     1      50.177   2.194  17.544  0.00  0.00    +0.000 NA
ATOM     27  C   UNL     1      51.422   2.538  17.506  0.00  0.00    +0.000 A 
ATOM     28  N   UNL     1      51.877   3.831  17.461  0.00  0.00    +0.000 N 
ATOM     29  C   UNL     1      51.040   4.924  17.545  0.00  0.00    +0.000 A 
ATOM     30  O   UNL     1      51.482   6.047  17.749  0.00  0.00    +0.000 OA
ATOM     31  C   UNL     1      49.633   4.585  17.464  0.00  0.00    +0.000 A 
ATOM     32  H   UNL     1      52.865   4.030  17.503  0.00  0.00    +0.000 HD
ENDBRANCH  20  22
BRANCH  19  34
ATOM     33  C   UNL     1      49.999   9.128  14.669  0.00  0.00    +0.000 C 
ATOM     34  C   UNL     1      48.862   8.825  15.637  0.00  0.00    +0.000 C 
ENDBRANCH  19  34
ENDBRANCH   1  19
TORSDOF 7
ENDMDL
MODEL 5
REMARK VINA RESULT:    -7.373      2.527      8.195
REMARK INTER + INTRA:         -11.268
REMARK INTER:                 -10.208
REMARK INTRA:                  -1.060
REMARK UNBOUND:                -0.878
REMARK  Name = 
REMARK  8 active torsions:
REMARK  status: ('A' for Active; 'I' for Inactive)
REMARK    1  A    between atoms: C_1  and  C_2
REMARK    2  A    between atoms: C_2  and  N_3
REMARK    3  A    between atoms: N_3  and  C_4
REMARK    4  A    between atoms: C_4  and  C_5
REMARK    5  A    between atoms: C_8  and  C_9
REMARK    6  A    between atoms: C_9  and  N_10
REMARK    7  A    between atoms: C_11  and  C_13
REMARK    8  A    between atoms: C_20  and  C_22
REMARK                            x       y       z     vdW  Elec       q    Type
REMARK                         _______ _______ _______ _____ _____    ______ ____
ROOT
ATOM      1  C   UNL     1      49.607   7.029  16.012  0.00  0.00    +0.000 C 
ENDROOT
BRANCH   1   2
ATOM      2  C   UNL     1      48.714   7.095  14.790  0.00  0.00    +0.000 A 
ATOM      3  C   UNL     1      48.154   8.302  14.387  0.00  0.00    +0.000 A 
ATOM      4  C   UNL     1      47.105   8.280  13.468  0.00  0.00    +0.000 A 
ATOM      5  C   UNL     1      46.636   7.060  12.976  0.00  0.00    +0.000 A 
ATOM      6  C   UNL     1      47.338   5.918  13.340  0.00  0.00    +0.000 A 
ATOM      7  N   UNL     1      48.356   5.911  14.229  0.00  0.00    +0.000 NA
BRANCH   5   8
ATOM      8  C   UNL     1      45.377   6.961  12.168  0.00  0.00    +0.000 C 
BRANCH   8   9
ATOM      9  N   UNL     1      45.460   6.005  11.097  0.00  0.00    +0.000 N 
ATOM     10  C   UNL     1      44.810   4.796  11.206  0.00  0.00    +0.000 C 
ATOM     11  O   UNL     1      44.183   4.477  12.214  0.00  0.00    +0.000 OA
ATOM     12  H   UNL     1      45.845   6.287  10.210  0.00  0.00    +0.000 HD
BRANCH  10  13
ATOM     13  C   UNL     1      44.908   3.934  10.052  0.00  0.00    +0.000 A 
ATOM     14  C   UNL     1      45.035   4.200   8.696  0.00  0.00    +0.000 A 
ATOM     15  C   UNL     1      45.099   2.964   8.007  0.00  0.00    +0.000 A 
ATOM     16  C   UNL     1      45.010   1.966   8.948  0.00  0.00    +0.000 A 
ATOM     17  N   UNL     1      44.897   2.557  10.177  0.00  0.00    +0.000 N 
ATOM     18  H   UNL     1      44.819   2.078  11.066  0.00  0.00    +0.000 HD
ENDBRANCH  10  13
ENDBRANCH   8   9
ENDBRANCH   5   8
ENDBRANCH   1   2
BRANCH   1  19
ATOM     19  N   UNL     1      49.043   7.262  17.344  0.00  0.00    +0.000 N 
ATOM     20  C   UNL     1      48.509   6.239  18.148  0.00  0.00    +0.000 C 
ATOM     21  O   UNL     1      48.044   6.475  19.261  0.00  0.00    +0.000 OA
BRANCH  20  22
ATOM     22  C   UNL     1      48.535   4.850  17.672  0.00  0.00    +0.000 A 
ATOM     23  C   UNL     1      47.539   4.260  16.910  0.00  0.00    +0.000 A 
ATOM     24  S   UNL     1      47.923   2.673  16.403  0.00  0.00    +0.000 S 
ATOM     25  C   UNL     1      49.480   2.775  17.089  0.00  0.00    +0.000 A 
ATOM     26  N   UNL     1      50.384   1.769  16.932  0.00  0.00    +0.000 NA
ATOM     27  C   UNL     1      51.542   2.019  17.450  0.00  0.00    +0.000 A 
ATOM     28  N   UNL     1      51.861   3.161  18.140  0.00  0.00    +0.000 N 
ATOM     29  C   UNL     1      50.937   4.140  18.438  0.00  0.00    +0.000 A 
ATOM     30  O   UNL     1      51.184   5.018  19.255  0.00  0.00    +0.000 OA
ATOM     31  C   UNL     1      49.663   3.959  17.771  0.00  0.00    +0.000 A 
ATOM     32  H   UNL     1      52.765   3.260  18.578  0.00  0.00    +0.000 HD
ENDBRANCH  20  22
BRANCH  19  34
ATOM     33  C   UNL     1      47.894   9.420  17.689  0.00  0.00    +0.000 C 
ATOM     34  C   UNL     1      49.143   8.590  17.951  0.00  0.00    +0.000 C 
ENDBRANCH  19  34
ENDBRANCH   1  19
TORSDOF 7
ENDMDL
MODEL 6
REMARK VINA RESULT:    -7.149      3.496      8.708
REMARK INTER + INTRA:         -10.952
REMARK INTER:                 -10.222
REMARK INTRA:                  -0.730
REMARK UNBOUND:                -0.878
REMARK  Name = 
REMARK  8 active torsions:
REMARK  status: ('A' for Active; 'I' for Inactive)
REMARK    1  A    between atoms: C_1  and  C_2
REMARK    2  A    between atoms: C_2  and  N_3
REMARK    3  A    between atoms: N_3  and  C_4
REMARK    4  A    between atoms: C_4  and  C_5
REMARK    5  A    between atoms: C_8  and  C_9
REMARK    6  A    between atoms: C_9  and  N_10
REMARK    7  A    between atoms: C_11  and  C_13
REMARK    8  A    between atoms: C_20  and  C_22
REMARK                            x       y       z     vdW  Elec       q    Type
REMARK                         _______ _______ _______ _____ _____    ______ ____
ROOT
ATOM      1  C   UNL     1      47.857   5.604  14.710  0.00  0.00    +0.000 C 
ENDROOT
BRANCH   1   2
ATOM      2  C   UNL     1      46.696   5.014  13.936  0.00  0.00    +0.000 A 
ATOM      3  C   UNL     1      46.740   3.700  13.484  0.00  0.00    +0.000 A 
ATOM      4  C   UNL     1      45.816   3.290  12.523  0.00  0.00    +0.000 A 
ATOM      5  C   UNL     1      44.875   4.197  12.031  0.00  0.00    +0.000 A 
ATOM      6  C   UNL     1      44.828   5.449  12.631  0.00  0.00    +0.000 A 
ATOM      7  N   UNL     1      45.711   5.872  13.563  0.00  0.00    +0.000 NA
BRANCH   5   8
ATOM      8  C   UNL     1      44.012   3.881  10.846  0.00  0.00    +0.000 C 
BRANCH   8   9
ATOM      9  N   UNL     1      44.701   3.150   9.817  0.00  0.00    +0.000 N 
ATOM     10  C   UNL     1      45.353   3.831   8.813  0.00  0.00    +0.000 C 
ATOM     11  O   UNL     1      45.337   5.057   8.735  0.00  0.00    +0.000 OA
ATOM     12  H   UNL     1      44.849   2.160   9.928  0.00  0.00    +0.000 HD
BRANCH  10  13
ATOM     13  C   UNL     1      46.062   3.005   7.864  0.00  0.00    +0.000 A 
ATOM     14  C   UNL     1      46.585   3.268   6.606  0.00  0.00    +0.000 A 
ATOM     15  C   UNL     1      47.192   2.084   6.124  0.00  0.00    +0.000 A 
ATOM     16  C   UNL     1      47.032   1.118   7.089  0.00  0.00    +0.000 A 
ATOM     17  N   UNL     1      46.352   1.681   8.135  0.00  0.00    +0.000 N 
ATOM     18  H   UNL     1      46.091   1.217   8.996  0.00  0.00    +0.000 HD
ENDBRANCH  10  13
ENDBRANCH   8   9
ENDBRANCH   5   8
ENDBRANCH   1   2
BRANCH   1  19
ATOM     19  N   UNL     1      48.023   5.290  16.131  0.00  0.00    +0.000 N 
ATOM     20  C   UNL     1      48.901   5.990  16.980  0.00  0.00    +0.000 C 
ATOM     21  O   UNL     1      49.012   5.696  18.167  0.00  0.00    +0.000 OA
BRANCH  20  22
ATOM     22  C   UNL     1      49.678   7.119  16.453  0.00  0.00    +0.000 A 
ATOM     23  C   UNL     1      50.795   6.995  15.642  0.00  0.00    +0.000 A 
ATOM     24  S   UNL     1      51.399   8.496  15.087  0.00  0.00    +0.000 S 
ATOM     25  C   UNL     1      50.114   9.343  15.819  0.00  0.00    +0.000 A 
ATOM     26  N   UNL     1      49.971  10.687  15.650  0.00  0.00    +0.000 NA
ATOM     27  C   UNL     1      48.914  11.176  16.209  0.00  0.00    +0.000 A 
ATOM     28  N   UNL     1      48.013  10.454  16.951  0.00  0.00    +0.000 N 
ATOM     29  C   UNL     1      48.194   9.121  17.259  0.00  0.00    +0.000 A 
ATOM     30  O   UNL     1      47.513   8.570  18.114  0.00  0.00    +0.000 OA
ATOM     31  C   UNL     1      49.298   8.506  16.550  0.00  0.00    +0.000 A 
ATOM     32  H   UNL     1      47.246  10.913  17.417  0.00  0.00    +0.000 HD
ENDBRANCH  20  22
BRANCH  19  34
ATOM     33  C   UNL     1      47.847   2.944  16.880  0.00  0.00    +0.000 C 
ATOM     34  C   UNL     1      47.155   4.295  16.761  0.00  0.00    +0.000 C 
ENDBRANCH  19  34
ENDBRANCH   1  19
TORSDOF 7
ENDMDL
MODEL 7
REMARK VINA RESULT:    -7.107      3.365      8.742
REMARK INTER + INTRA:         -10.893
REMARK INTER:                  -9.975
REMARK INTRA:                  -0.918
REMARK UNBOUND:                -0.878
REMARK  Name = 
REMARK  8 active torsions:
REMARK  status: ('A' for Active; 'I' for Inactive)
REMARK    1  A    between atoms: C_1  and  C_2
REMARK    2  A    between atoms: C_2  and  N_3
REMARK    3  A    between atoms: N_3  and  C_4
REMARK    4  A    between atoms: C_4  and  C_5
REMARK    5  A    between atoms: C_8  and  C_9
REMARK    6  A    between atoms: C_9  and  N_10
REMARK    7  A    between atoms: C_11  and  C_13
REMARK    8  A    between atoms: C_20  and  C_22
REMARK                            x       y       z     vdW  Elec       q    Type
REMARK                         _______ _______ _______ _____ _____    ______ ____
ROOT
ATOM      1  C   UNL     1      47.869   5.387  14.575  0.00  0.00    +0.000 C 
ENDROOT
BRANCH   1   2
ATOM      2  C   UNL     1      46.662   4.930  13.783  0.00  0.00    +0.000 A 
ATOM      3  C   UNL     1      46.513   3.594  13.425  0.00  0.00    +0.000 A 
ATOM      4  C   UNL     1      45.577   3.262  12.446  0.00  0.00    +0.000 A 
ATOM      5  C   UNL     1      44.816   4.266  11.842  0.00  0.00    +0.000 A 
ATOM      6  C   UNL     1      44.945   5.552  12.352  0.00  0.00    +0.000 A 
ATOM      7  N   UNL     1      45.844   5.901  13.298  0.00  0.00    +0.000 NA
BRANCH   5   8
ATOM      8  C   UNL     1      43.964   4.000  10.638  0.00  0.00    +0.000 C 
BRANCH   8   9
ATOM      9  N   UNL     1      44.643   3.254   9.613  0.00  0.00    +0.000 N 
ATOM     10  C   UNL     1      45.441   3.911   8.703  0.00  0.00    +0.000 C 
ATOM     11  O   UNL     1      45.569   5.133   8.704  0.00  0.00    +0.000 OA
ATOM     12  H   UNL     1      44.670   2.249   9.668  0.00  0.00    +0.000 HD
BRANCH  10  13
ATOM     13  C   UNL     1      46.123   3.064   7.752  0.00  0.00    +0.000 A 
ATOM     14  C   UNL     1      46.618   3.301   6.478  0.00  0.00    +0.000 A 
ATOM     15  C   UNL     1      47.207   2.105   6.003  0.00  0.00    +0.000 A 
ATOM     16  C   UNL     1      47.064   1.158   6.989  0.00  0.00    +0.000 A 
ATOM     17  N   UNL     1      46.412   1.743   8.040  0.00  0.00    +0.000 N 
ATOM     18  H   UNL     1      46.168   1.296   8.915  0.00  0.00    +0.000 HD
ENDBRANCH  10  13
ENDBRANCH   8   9
ENDBRANCH   5   8
ENDBRANCH   1   2
BRANCH   1  19
ATOM     19  N   UNL     1      47.879   5.254  16.034  0.00  0.00    +0.000 N 
ATOM     20  C   UNL     1      48.473   6.197  16.892  0.00  0.00    +0.000 C 
ATOM     21  O   UNL     1      48.461   6.049  18.112  0.00  0.00    +0.000 OA
BRANCH  20  22
ATOM     22  C   UNL     1      49.093   7.404  16.331  0.00  0.00    +0.000 A 
ATOM     23  C   UNL     1      48.409   8.569  16.022  0.00  0.00    +0.000 A 
ATOM     24  S   UNL     1      49.432   9.840  15.508  0.00  0.00    +0.000 S 
ATOM     25  C   UNL     1      50.827   8.905  15.800  0.00  0.00    +0.000 A 
ATOM     26  N   UNL     1      52.072   9.435  15.652  0.00  0.00    +0.000 NA
ATOM     27  C   UNL     1      53.028   8.626  15.974  0.00  0.00    +0.000 A 
ATOM     28  N   UNL     1      52.852   7.330  16.388  0.00  0.00    +0.000 N 
ATOM     29  C   UNL     1      51.618   6.714  16.420  0.00  0.00    +0.000 A 
ATOM     30  O   UNL     1      51.518   5.502  16.555  0.00  0.00    +0.000 OA
ATOM     31  C   UNL     1      50.511   7.620  16.188  0.00  0.00    +0.000 A 
ATOM     32  H   UNL     1      53.647   6.733  16.557  0.00  0.00    +0.000 HD
ENDBRANCH  20  22
BRANCH  19  34
ATOM     33  C   UNL     1      47.982   2.915  16.819  0.00  0.00    +0.000 C 
ATOM     34  C   UNL     1      47.130   4.168  16.668  0.00  0.00    +0.000 C 
ENDBRANCH  19  34
ENDBRANCH   1  19
TORSDOF 7
ENDMDL
MODEL 8
REMARK VINA RESULT:    -6.473      3.558      8.051
REMARK INTER + INTRA:         -10.000
REMARK INTER:                  -7.974
REMARK INTRA:                  -2.026
REMARK UNBOUND:                -0.878
REMARK  Name = 
REMARK  8 active torsions:
REMARK  status: ('A' for Active; 'I' for Inactive)
REMARK    1  A    between atoms: C_1  and  C_2
REMARK    2  A    between atoms: C_2  and  N_3
REMARK    3  A    between atoms: N_3  and  C_4
REMARK    4  A    between atoms: C_4  and  C_5
REMARK    5  A    between atoms: C_8  and  C_9
REMARK    6  A    between atoms: C_9  and  N_10
REMARK    7  A    between atoms: C_11  and  C_13
REMARK    8  A    between atoms: C_20  and  C_22
REMARK                            x       y       z     vdW  Elec       q    Type
REMARK                         _______ _______ _______ _____ _____    ______ ____
ROOT
ATOM      1  C   UNL     1      49.384   5.607  20.171  0.00  0.00    +0.000 C 
ENDROOT
BRANCH   1   2
ATOM      2  C   UNL     1      48.779   4.761  19.070  0.00  0.00    +0.000 A 
ATOM      3  C   UNL     1      49.484   3.691  18.531  0.00  0.00    +0.000 A 
ATOM      4  C   UNL     1      49.046   3.137  17.328  0.00  0.00    +0.000 A 
ATOM      5  C   UNL     1      47.921   3.664  16.689  0.00  0.00    +0.000 A 
ATOM      6  C   UNL     1      47.211   4.648  17.364  0.00  0.00    +0.000 A 
ATOM      7  N   UNL     1      47.614   5.203  18.529  0.00  0.00    +0.000 NA
BRANCH   5   8
ATOM      8  C   UNL     1      47.539   3.262  15.296  0.00  0.00    +0.000 C 
BRANCH   8   9
ATOM      9  N   UNL     1      47.069   4.359  14.494  0.00  0.00    +0.000 N 
ATOM     10  C   UNL     1      46.292   4.112  13.384  0.00  0.00    +0.000 C 
ATOM     11  O   UNL     1      46.011   2.972  13.021  0.00  0.00    +0.000 OA
ATOM     12  H   UNL     1      47.164   5.300  14.838  0.00  0.00    +0.000 HD
BRANCH  10  13
ATOM     13  C   UNL     1      45.824   5.284  12.682  0.00  0.00    +0.000 A 
ATOM     14  C   UNL     1      45.392   5.481  11.378  0.00  0.00    +0.000 A 
ATOM     15  C   UNL     1      45.036   6.843  11.232  0.00  0.00    +0.000 A 
ATOM     16  C   UNL     1      45.255   7.457  12.442  0.00  0.00    +0.000 A 
ATOM     17  N   UNL     1      45.728   6.511  13.311  0.00  0.00    +0.000 N 
ATOM     18  H   UNL     1      45.975   6.662  14.282  0.00  0.00    +0.000 HD
ENDBRANCH  10  13
ENDBRANCH   8   9
ENDBRANCH   5   8
ENDBRANCH   1   2
BRANCH   1  19
ATOM     19  N   UNL     1      50.725   6.174  20.005  0.00  0.00    +0.000 N 
ATOM     20  C   UNL     1      51.008   7.250  19.144  0.00  0.00    +0.000 C 
ATOM     21  O   UNL     1      52.147   7.698  19.032  0.00  0.00    +0.000 OA
BRANCH  20  22
ATOM     22  C   UNL     1      49.921   7.882  18.385  0.00  0.00    +0.000 A 
ATOM     23  C   UNL     1      49.099   8.885  18.874  0.00  0.00    +0.000 A 
ATOM     24  S   UNL     1      48.016   9.504  17.704  0.00  0.00    +0.000 S 
ATOM     25  C   UNL     1      48.698   8.531  16.482  0.00  0.00    +0.000 A 
ATOM     26  N   UNL     1      48.289   8.639  15.187  0.00  0.00    +0.000 NA
ATOM     27  C   UNL     1      48.945   7.887  14.366  0.00  0.00    +0.000 A 
ATOM     28  N   UNL     1      49.938   7.012  14.727  0.00  0.00    +0.000 N 
ATOM     29  C   UNL     1      50.287   6.773  16.040  0.00  0.00    +0.000 A 
ATOM     30  O   UNL     1      50.994   5.822  16.346  0.00  0.00    +0.000 OA
ATOM     31  C   UNL     1      49.665   7.685  16.980  0.00  0.00    +0.000 A 
ATOM     32  H   UNL     1      50.360   6.404  14.042  0.00  0.00    +0.000 HD
ENDBRANCH  20  22
BRANCH  19  34
ATOM     33  C   UNL     1      52.476   4.457  20.293  0.00  0.00    +0.000 C 
ATOM     34  C   UNL     1      51.819   5.710  20.858  0.00  0.00    +0.000 C 
ENDBRANCH  19  34
ENDBRANCH   1  19
TORSDOF 7
ENDMDL
MODEL 9
REMARK VINA RESULT:    -6.447      3.852      8.318
REMARK INTER + INTRA:          -9.962
REMARK INTER:                  -7.764
REMARK INTRA:                  -2.199
REMARK UNBOUND:                -0.878
REMARK  Name = 
REMARK  8 active torsions:
REMARK  status: ('A' for Active; 'I' for Inactive)
REMARK    1  A    between atoms: C_1  and  C_2
REMARK    2  A    between atoms: C_2  and  N_3
REMARK    3  A    between atoms: N_3  and  C_4
REMARK    4  A    between atoms: C_4  and  C_5
REMARK    5  A    between atoms: C_8  and  C_9
REMARK    6  A    between atoms: C_9  and  N_10
REMARK    7  A    between atoms: C_11  and  C_13
REMARK    8  A    between atoms: C_20  and  C_22
REMARK                            x       y       z     vdW  Elec       q    Type
REMARK                         _______ _______ _______ _____ _____    ______ ____
ROOT
ATOM      1  C   UNL     1      52.360   5.015  18.962  0.00  0.00    +0.000 C 
ENDROOT
BRANCH   1   2
ATOM      2  C   UNL     1      51.022   4.361  18.687  0.00  0.00    +0.000 A 
ATOM      3  C   UNL     1      50.915   3.332  17.758  0.00  0.00    +0.000 A 
ATOM      4  C   UNL     1      49.647   2.971  17.301  0.00  0.00    +0.000 A 
ATOM      5  C   UNL     1      48.519   3.646  17.773  0.00  0.00    +0.000 A 
ATOM      6  C   UNL     1      48.714   4.573  18.789  0.00  0.00    +0.000 A 
ATOM      7  N   UNL     1      49.930   4.942  19.249  0.00  0.00    +0.000 NA
BRANCH   5   8
ATOM      8  C   UNL     1      47.165   3.458  17.156  0.00  0.00    +0.000 C 
BRANCH   8   9
ATOM      9  N   UNL     1      46.861   4.429  16.141  0.00  0.00    +0.000 N 
ATOM     10  C   UNL     1      47.050   4.115  14.814  0.00  0.00    +0.000 C 
ATOM     11  O   UNL     1      47.514   3.035  14.455  0.00  0.00    +0.000 OA
ATOM     12  H   UNL     1      46.354   5.264  16.390  0.00  0.00    +0.000 HD
BRANCH  10  13
ATOM     13  C   UNL     1      46.658   5.138  13.873  0.00  0.00    +0.000 A 
ATOM     14  C   UNL     1      47.393   6.027  13.100  0.00  0.00    +0.000 A 
ATOM     15  C   UNL     1      46.488   6.808  12.343  0.00  0.00    +0.000 A 
ATOM     16  C   UNL     1      45.218   6.388  12.662  0.00  0.00    +0.000 A 
ATOM     17  N   UNL     1      45.329   5.382  13.583  0.00  0.00    +0.000 N 
ATOM     18  H   UNL     1      44.563   4.870  14.003  0.00  0.00    +0.000 HD
ENDBRANCH  10  13
ENDBRANCH   8   9
ENDBRANCH   5   8
ENDBRANCH   1   2
BRANCH   1  19
ATOM     19  N   UNL     1      53.128   5.603  17.862  0.00  0.00    +0.000 N 
ATOM     20  C   UNL     1      52.916   6.908  17.382  0.00  0.00    +0.000 C 
ATOM     21  O   UNL     1      53.582   7.365  16.456  0.00  0.00    +0.000 OA
BRANCH  20  22
ATOM     22  C   UNL     1      51.904   7.763  18.017  0.00  0.00    +0.000 A 
ATOM     23  C   UNL     1      52.158   8.643  19.056  0.00  0.00    +0.000 A 
ATOM     24  S   UNL     1      50.800   9.590  19.488  0.00  0.00    +0.000 S 
ATOM     25  C   UNL     1      49.872   8.934  18.219  0.00  0.00    +0.000 A 
ATOM     26  N   UNL     1      48.616   9.389  17.958  0.00  0.00    +0.000 NA
ATOM     27  C   UNL     1      48.064   8.842  16.925  0.00  0.00    +0.000 A 
ATOM     28  N   UNL     1      48.637   7.860  16.158  0.00  0.00    +0.000 N 
ATOM     29  C   UNL     1      49.848   7.277  16.468  0.00  0.00    +0.000 A 
ATOM     30  O   UNL     1      50.217   6.248  15.917  0.00  0.00    +0.000 OA
ATOM     31  C   UNL     1      50.555   7.944  17.543  0.00  0.00    +0.000 A 
ATOM     32  H   UNL     1      48.121   7.429  15.406  0.00  0.00    +0.000 HD
ENDBRANCH  20  22
BRANCH  19  34
ATOM     33  C   UNL     1      54.933   3.989  18.346  0.00  0.00    +0.000 C 
ATOM     34  C   UNL     1      54.266   4.873  17.301  0.00  0.00    +0.000 C 
ENDBRANCH  19  34
ENDBRANCH   1  19
TORSDOF 7
ENDMDL
