MODEL 1
REMARK VINA RESULT:    -8.865      0.000      0.000
REMARK INTER + INTRA:         -13.137
REMARK INTER:                 -11.975
REMARK INTRA:                  -1.162
REMARK UNBOUND:                -1.162
REMARK  Name = 
REMARK  6 active torsions:
REMARK  status: ('A' for Active; 'I' for Inactive)
REMARK    1  A    between atoms: C_2  and  C_19
REMARK    2  A    between atoms: N_3  and  C_4
REMARK    3  A    between atoms: C_4  and  C_5
REMARK    4  A    between atoms: C_8  and  C_9
REMARK    5  A    between atoms: C_9  and  N_10
REMARK    6  A    between atoms: N_10  and  C_11
REMARK                            x       y       z     vdW  Elec       q    Type
REMARK                         _______ _______ _______ _____ _____    ______ ____
ROOT
ATOM      1  C   UNL     1      45.722   6.463  12.583  0.00  0.00    +0.000 C 
ENDROOT
BRANCH   1   2
ATOM      2  C   UNL     1      44.267   5.946  12.699  0.00  0.00    +0.000 C 
ATOM      3  C   UNL     1      43.433   6.089  11.421  0.00  0.00    +0.000 C 
ATOM      4  C   UNL     1      43.678   5.013  10.369  0.00  0.00    +0.000 C 
ATOM      5  C   UNL     1      43.701   3.577  10.910  0.00  0.00    +0.000 C 
ATOM      6  C   UNL     1      44.483   3.440  12.227  0.00  0.00    +0.000 C 
ATOM      7  C   UNL     1      44.140   4.518  13.246  0.00  0.00    +0.000 C 
BRANCH   5   8
ATOM      8  C   UNL     1      44.300   2.586   9.887  0.00  0.00    +0.000 C 
BRANCH   8   9
ATOM      9  N   UNL     1      44.777   3.269   8.686  0.00  0.00    +0.000 N 
ATOM     10  H   UNL     1      45.002   4.247   8.863  0.00  0.00    +0.000 HD
BRANCH   9  11
ATOM     11  C   UNL     1      45.814   2.666   7.955  0.00  0.00    +0.000 A 
ATOM     12  C   UNL     1      46.695   3.377   7.141  0.00  0.00    +0.000 A 
ATOM     13  C   UNL     1      47.748   2.708   6.536  0.00  0.00    +0.000 A 
ATOM     14  N   UNL     1      47.997   1.393   6.693  0.00  0.00    +0.000 NA
ATOM     15  C   UNL     1      47.159   0.725   7.509  0.00  0.00    +0.000 A 
ATOM     16  C   UNL     1      46.084   1.310   8.161  0.00  0.00    +0.000 A 
ENDBRANCH   9  11
ENDBRANCH   8   9
ENDBRANCH   5   8
ENDBRANCH   1   2
BRANCH   1  19
ATOM     17  O   UNL     1      48.544   6.165  12.871  0.00  0.00    +0.000 OA
ATOM     18  C   UNL     1      47.843   6.296  13.869  0.00  0.00    +0.000 C 
ATOM     19  N   UNL     1      46.482   6.476  13.810  0.00  0.00    +0.000 N 
ATOM     20  H   UNL     1      45.988   6.744  14.655  0.00  0.00    +0.000 HD
BRANCH  18  21
ATOM     21  C   UNL     1      48.394   6.121  15.218  0.00  0.00    +0.000 A 
ATOM     22  C   UNL     1      49.240   7.076  15.765  0.00  0.00    +0.000 A 
ATOM     23  S   UNL     1      49.751   6.700  17.351  0.00  0.00    +0.000 S 
ATOM     24  C   UNL     1      48.837   5.263  17.362  0.00  0.00    +0.000 A 
ATOM     25  N   UNL     1      48.771   4.475  18.468  0.00  0.00    +0.000 NA
ATOM     26  C   UNL     1      48.014   3.434  18.334  0.00  0.00    +0.000 A 
ATOM     27  N   UNL     1      47.349   3.095  17.184  0.00  0.00    +0.000 N 
ATOM     28  C   UNL     1      47.465   3.810  16.018  0.00  0.00    +0.000 A 
ATOM     29  O   UNL     1      47.021   3.381  14.957  0.00  0.00    +0.000 OA
ATOM     30  C   UNL     1      48.214   5.041  16.148  0.00  0.00    +0.000 A 
ATOM     31  H   UNL     1      46.828   2.233  17.126  0.00  0.00    +0.000 HD
ENDBRANCH  18  21
ENDBRANCH   1  19
TORSDOF 6
ENDMDL
MODEL 2
REMARK VINA RESULT:    -8.607      1.606      2.526
REMARK INTER + INTRA:         -12.788
REMARK INTER:                 -11.822
REMARK INTRA:                  -0.966
REMARK UNBOUND:                -1.162
REMARK  Name = 
REMARK  6 active torsions:
REMARK  status: ('A' for Active; 'I' for Inactive)
REMARK    1  A    between atoms: C_2  and  C_19
REMARK    2  A    between atoms: N_3  and  C_4
REMARK    3  A    between atoms: C_4  and  C_5
REMARK    4  A    between atoms: C_8  and  C_9
REMARK    5  A    between atoms: C_9  and  N_10
REMARK    6  A    between atoms: N_10  and  C_11
REMARK                            x       y       z     vdW  Elec       q    Type
REMARK                         _______ _______ _______ _____ _____    ______ ____
ROOT
ATOM      1  C   UNL     1      46.078   4.580  13.659  0.00  0.00    +0.000 C 
ENDROOT
BRANCH   1   2
ATOM      2  C   UNL     1      44.970   5.483  13.062  0.00  0.00    +0.000 C 
ATOM      3  C   UNL     1      45.373   6.232  11.788  0.00  0.00    +0.000 C 
ATOM      4  C   UNL     1      45.315   5.403  10.509  0.00  0.00    +0.000 C 
ATOM      5  C   UNL     1      44.036   4.572  10.336  0.00  0.00    +0.000 C 
ATOM      6  C   UNL     1      43.593   3.870  11.631  0.00  0.00    +0.000 C 
ATOM      7  C   UNL     1      43.622   4.780  12.850  0.00  0.00    +0.000 C 
BRANCH   5   8
ATOM      8  C   UNL     1      44.189   3.501   9.233  0.00  0.00    +0.000 C 
BRANCH   8   9
ATOM      9  N   UNL     1      45.041   3.967   8.141  0.00  0.00    +0.000 N 
ATOM     10  H   UNL     1      45.539   4.823   8.378  0.00  0.00    +0.000 HD
BRANCH   9  11
ATOM     11  C   UNL     1      45.929   3.045   7.561  0.00  0.00    +0.000 A 
ATOM     12  C   UNL     1      46.801   3.367   6.522  0.00  0.00    +0.000 A 
ATOM     13  C   UNL     1      47.709   2.416   6.080  0.00  0.00    +0.000 A 
ATOM     14  N   UNL     1      47.824   1.180   6.606  0.00  0.00    +0.000 NA
ATOM     15  C   UNL     1      46.998   0.894   7.631  0.00  0.00    +0.000 A 
ATOM     16  C   UNL     1      46.064   1.781   8.144  0.00  0.00    +0.000 A 
ENDBRANCH   9  11
ENDBRANCH   8   9
ENDBRANCH   5   8
ENDBRANCH   1   2
BRANCH   1  19
ATOM     17  O   UNL     1      47.658   3.152  15.556  0.00  0.00    +0.000 OA
ATOM     18  C   UNL     1      47.506   4.363  15.684  0.00  0.00    +0.000 C 
ATOM     19  N   UNL     1      46.787   5.124  14.793  0.00  0.00    +0.000 N 
ATOM     20  H   UNL     1      46.839   6.135  14.862  0.00  0.00    +0.000 HD
BRANCH  18  21
ATOM     21  C   UNL     1      47.962   5.070  16.886  0.00  0.00    +0.000 A 
ATOM     22  C   UNL     1      47.403   4.789  18.126  0.00  0.00    +0.000 A 
ATOM     23  S   UNL     1      48.087   5.698  19.399  0.00  0.00    +0.000 S 
ATOM     24  C   UNL     1      49.167   6.475  18.336  0.00  0.00    +0.000 A 
ATOM     25  N   UNL     1      50.102   7.350  18.792  0.00  0.00    +0.000 NA
ATOM     26  C   UNL     1      50.868   7.837  17.869  0.00  0.00    +0.000 A 
ATOM     27  N   UNL     1      50.758   7.553  16.533  0.00  0.00    +0.000 N 
ATOM     28  C   UNL     1      49.769   6.752  16.020  0.00  0.00    +0.000 A 
ATOM     29  O   UNL     1      49.572   6.670  14.812  0.00  0.00    +0.000 OA
ATOM     30  C   UNL     1      48.954   6.099  17.022  0.00  0.00    +0.000 A 
ATOM     31  H   UNL     1      51.346   8.019  15.857  0.00  0.00    +0.000 HD
ENDBRANCH  18  21
ENDBRANCH   1  19
TORSDOF 6
ENDMDL
MODEL 3
REMARK VINA RESULT:    -8.345      1.157      1.673
REMARK INTER + INTRA:         -12.434
REMARK INTER:                 -11.453
REMARK INTRA:                  -0.981
REMARK UNBOUND:                -1.162
REMARK  Name = 
REMARK  6 active torsions:
REMARK  status: ('A' for Active; 'I' for Inactive)
REMARK    1  A    between atoms: C_2  and  C_19
REMARK    2  A    between atoms: N_3  and  C_4
REMARK    3  A    between atoms: C_4  and  C_5
REMARK    4  A    between atoms: C_8  and  C_9
REMARK    5  A    between atoms: C_9  and  N_10
REMARK    6  A    between atoms: N_10  and  C_11
REMARK                            x       y       z     vdW  Elec       q    Type
REMARK                         _______ _______ _______ _____ _____    ______ ____
ROOT
ATOM      1  C   UNL     1      46.565   5.076  13.566  0.00  0.00    +0.000 C 
ENDROOT
BRANCH   1   2
ATOM      2  C   UNL     1      45.520   5.981  12.870  0.00  0.00    +0.000 C 
ATOM      3  C   UNL     1      45.886   6.400  11.442  0.00  0.00    +0.000 C 
ATOM      4  C   UNL     1      45.611   5.348  10.373  0.00  0.00    +0.000 C 
ATOM      5  C   UNL     1      44.234   4.679  10.465  0.00  0.00    +0.000 C 
ATOM      6  C   UNL     1      43.834   4.315  11.905  0.00  0.00    +0.000 C 
ATOM      7  C   UNL     1      44.084   5.438  12.901  0.00  0.00    +0.000 C 
BRANCH   5   8
ATOM      8  C   UNL     1      44.156   3.399   9.603  0.00  0.00    +0.000 C 
BRANCH   8   9
ATOM      9  N   UNL     1      44.655   3.627   8.249  0.00  0.00    +0.000 N 
ATOM     10  H   UNL     1      44.819   4.614   8.059  0.00  0.00    +0.000 HD
BRANCH   9  11
ATOM     11  C   UNL     1      45.759   2.870   7.819  0.00  0.00    +0.000 A 
ATOM     12  C   UNL     1      45.973   1.544   8.192  0.00  0.00    +0.000 A 
ATOM     13  C   UNL     1      47.038   0.849   7.640  0.00  0.00    +0.000 A 
ATOM     14  N   UNL     1      47.892   1.368   6.736  0.00  0.00    +0.000 NA
ATOM     15  C   UNL     1      47.654   2.640   6.359  0.00  0.00    +0.000 A 
ATOM     16  C   UNL     1      46.611   3.410   6.852  0.00  0.00    +0.000 A 
ENDBRANCH   9  11
ENDBRANCH   8   9
ENDBRANCH   5   8
ENDBRANCH   1   2
BRANCH   1  19
ATOM     17  O   UNL     1      49.003   6.538  13.803  0.00  0.00    +0.000 OA
ATOM     18  C   UNL     1      48.351   6.280  14.809  0.00  0.00    +0.000 C 
ATOM     19  N   UNL     1      47.152   5.609  14.773  0.00  0.00    +0.000 N 
ATOM     20  H   UNL     1      46.586   5.575  15.614  0.00  0.00    +0.000 HD
BRANCH  18  21
ATOM     21  C   UNL     1      48.880   6.543  16.152  0.00  0.00    +0.000 A 
ATOM     22  C   UNL     1      49.279   7.822  16.517  0.00  0.00    +0.000 A 
ATOM     23  S   UNL     1      49.840   7.924  18.126  0.00  0.00    +0.000 S 
ATOM     24  C   UNL     1      49.545   6.269  18.391  0.00  0.00    +0.000 A 
ATOM     25  N   UNL     1      49.747   5.700  19.609  0.00  0.00    +0.000 NA
ATOM     26  C   UNL     1      49.450   4.442  19.663  0.00  0.00    +0.000 A 
ATOM     27  N   UNL     1      49.005   3.698  18.601  0.00  0.00    +0.000 N 
ATOM     28  C   UNL     1      48.878   4.209  17.334  0.00  0.00    +0.000 A 
ATOM     29  O   UNL     1      48.667   3.483  16.368  0.00  0.00    +0.000 OA
ATOM     30  C   UNL     1      49.095   5.637  17.246  0.00  0.00    +0.000 A 
ATOM     31  H   UNL     1      48.854   2.704  18.696  0.00  0.00    +0.000 HD
ENDBRANCH  18  21
ENDBRANCH   1  19
TORSDOF 6
ENDMDL
MODEL 4
REMARK VINA RESULT:    -7.380      2.099      3.204
REMARK INTER + INTRA:         -11.131
REMARK INTER:                 -10.348
REMARK INTRA:                  -0.783
REMARK UNBOUND:                -1.162
REMARK  Name = 
REMARK  6 active torsions:
REMARK  status: ('A' for Active; 'I' for Inactive)
REMARK    1  A    between atoms: C_2  and  C_19
REMARK    2  A    between atoms: N_3  and  C_4
REMARK    3  A    between atoms: C_4  and  C_5
REMARK    4  A    between atoms: C_8  and  C_9
REMARK    5  A    between atoms: C_9  and  N_10
REMARK    6  A    between atoms: N_10  and  C_11
REMARK                            x       y       z     vdW  Elec       q    Type
REMARK                         _______ _______ _______ _____ _____    ______ ____
ROOT
ATOM      1  C   UNL     1      46.691   5.511  13.264  0.00  0.00    +0.000 C 
ENDROOT
BRANCH   1   2
ATOM      2  C   UNL     1      45.436   6.178  12.649  0.00  0.00    +0.000 C 
ATOM      3  C   UNL     1      45.565   6.539  11.166  0.00  0.00    +0.000 C 
ATOM      4  C   UNL     1      45.358   5.376  10.201  0.00  0.00    +0.000 C 
ATOM      5  C   UNL     1      44.133   4.501  10.499  0.00  0.00    +0.000 C 
ATOM      6  C   UNL     1      43.963   4.191  11.995  0.00  0.00    +0.000 C 
ATOM      7  C   UNL     1      44.127   5.413  12.887  0.00  0.00    +0.000 C 
BRANCH   5   8
ATOM      8  C   UNL     1      44.179   3.163   9.729  0.00  0.00    +0.000 C 
BRANCH   8   9
ATOM      9  N   UNL     1      44.561   3.355   8.331  0.00  0.00    +0.000 N 
ATOM     10  H   UNL     1      44.568   4.339   8.065  0.00  0.00    +0.000 HD
BRANCH   9  11
ATOM     11  C   UNL     1      45.737   2.732   7.879  0.00  0.00    +0.000 A 
ATOM     12  C   UNL     1      46.042   1.395   8.129  0.00  0.00    +0.000 A 
ATOM     13  C   UNL     1      47.179   0.842   7.559  0.00  0.00    +0.000 A 
ATOM     14  N   UNL     1      48.022   1.514   6.750  0.00  0.00    +0.000 NA
ATOM     15  C   UNL     1      47.697   2.796   6.491  0.00  0.00    +0.000 A 
ATOM     16  C   UNL     1      46.578   3.431   7.010  0.00  0.00    +0.000 A 
ENDBRANCH   9  11
ENDBRANCH   8   9
ENDBRANCH   5   8
ENDBRANCH   1   2
BRANCH   1  19
ATOM     17  O   UNL     1      49.265   6.676  13.658  0.00  0.00    +0.000 OA
ATOM     18  C   UNL     1      48.468   6.637  14.590  0.00  0.00    +0.000 C 
ATOM     19  N   UNL     1      47.199   6.122  14.469  0.00  0.00    +0.000 N 
ATOM     20  H   UNL     1      46.538   6.272  15.224  0.00  0.00    +0.000 HD
BRANCH  18  21
ATOM     21  C   UNL     1      48.866   7.009  15.953  0.00  0.00    +0.000 A 
ATOM     22  C   UNL     1      49.011   6.039  16.936  0.00  0.00    +0.000 A 
ATOM     23  S   UNL     1      49.504   6.671  18.443  0.00  0.00    +0.000 S 
ATOM     24  C   UNL     1      49.560   8.255  17.822  0.00  0.00    +0.000 A 
ATOM     25  N   UNL     1      49.981   9.299  18.584  0.00  0.00    +0.000 NA
ATOM     26  C   UNL     1      49.997  10.435  17.964  0.00  0.00    +0.000 A 
ATOM     27  N   UNL     1      49.597  10.623  16.666  0.00  0.00    +0.000 N 
ATOM     28  C   UNL     1      49.076   9.616  15.894  0.00  0.00    +0.000 A 
ATOM     29  O   UNL     1      48.547   9.847  14.811  0.00  0.00    +0.000 OA
ATOM     30  C   UNL     1      49.138   8.306  16.506  0.00  0.00    +0.000 A 
ATOM     31  H   UNL     1      49.572  11.549  16.265  0.00  0.00    +0.000 HD
ENDBRANCH  18  21
ENDBRANCH   1  19
TORSDOF 6
ENDMDL
MODEL 5
REMARK VINA RESULT:    -7.136      3.917      8.773
REMARK INTER + INTRA:         -10.801
REMARK INTER:                  -9.807
REMARK INTRA:                  -0.994
REMARK UNBOUND:                -1.162
REMARK  Name = 
REMARK  6 active torsions:
REMARK  status: ('A' for Active; 'I' for Inactive)
REMARK    1  A    between atoms: C_2  and  C_19
REMARK    2  A    between atoms: N_3  and  C_4
REMARK    3  A    between atoms: C_4  and  C_5
REMARK    4  A    between atoms: C_8  and  C_9
REMARK    5  A    between atoms: C_9  and  N_10
REMARK    6  A    between atoms: N_10  and  C_11
REMARK                            x       y       z     vdW  Elec       q    Type
REMARK                         _______ _______ _______ _____ _____    ______ ____
ROOT
ATOM      1  C   UNL     1      48.349   5.727  15.863  0.00  0.00    +0.000 C 
ENDROOT
BRANCH   1   2
ATOM      2  C   UNL     1      48.036   4.996  17.191  0.00  0.00    +0.000 C 
ATOM      3  C   UNL     1      47.531   3.559  17.026  0.00  0.00    +0.000 C 
ATOM      4  C   UNL     1      48.617   2.520  16.769  0.00  0.00    +0.000 C 
ATOM      5  C   UNL     1      49.838   2.622  17.693  0.00  0.00    +0.000 C 
ATOM      6  C   UNL     1      50.309   4.069  17.913  0.00  0.00    +0.000 C 
ATOM      7  C   UNL     1      49.173   5.033  18.222  0.00  0.00    +0.000 C 
BRANCH   5   8
ATOM      8  C   UNL     1      51.033   1.800  17.162  0.00  0.00    +0.000 C 
BRANCH   8   9
ATOM      9  N   UNL     1      52.312   2.398  17.540  0.00  0.00    +0.000 N 
ATOM     10  H   UNL     1      52.193   3.256  18.076  0.00  0.00    +0.000 HD
BRANCH   9  11
ATOM     11  C   UNL     1      53.264   1.575  18.164  0.00  0.00    +0.000 A 
ATOM     12  C   UNL     1      53.410   0.218  17.881  0.00  0.00    +0.000 A 
ATOM     13  C   UNL     1      54.442  -0.492  18.476  0.00  0.00    +0.000 A 
ATOM     14  N   UNL     1      55.345   0.051  19.316  0.00  0.00    +0.000 NA
ATOM     15  C   UNL     1      55.213   1.371  19.555  0.00  0.00    +0.000 A 
ATOM     16  C   UNL     1      54.218   2.161  19.001  0.00  0.00    +0.000 A 
ENDBRANCH   9  11
ENDBRANCH   8   9
ENDBRANCH   5   8
ENDBRANCH   1   2
BRANCH   1  19
ATOM     17  O   UNL     1      48.647   6.196  13.065  0.00  0.00    +0.000 OA
ATOM     18  C   UNL     1      47.540   5.924  13.519  0.00  0.00    +0.000 C 
ATOM     19  N   UNL     1      47.323   5.654  14.849  0.00  0.00    +0.000 N 
ATOM     20  H   UNL     1      46.425   5.274  15.130  0.00  0.00    +0.000 HD
BRANCH  18  21
ATOM     21  C   UNL     1      46.331   6.012  12.692  0.00  0.00    +0.000 A 
ATOM     22  C   UNL     1      45.852   7.245  12.270  0.00  0.00    +0.000 A 
ATOM     23  S   UNL     1      44.452   7.130  11.299  0.00  0.00    +0.000 S 
ATOM     24  C   UNL     1      44.459   5.430  11.393  0.00  0.00    +0.000 A 
ATOM     25  N   UNL     1      43.550   4.680  10.716  0.00  0.00    +0.000 NA
ATOM     26  C   UNL     1      43.701   3.403  10.863  0.00  0.00    +0.000 A 
ATOM     27  N   UNL     1      44.656   2.815  11.652  0.00  0.00    +0.000 N 
ATOM     28  C   UNL     1      45.530   3.536  12.426  0.00  0.00    +0.000 A 
ATOM     29  O   UNL     1      46.239   2.992  13.267  0.00  0.00    +0.000 OA
ATOM     30  C   UNL     1      45.471   4.966  12.214  0.00  0.00    +0.000 A 
ATOM     31  H   UNL     1      44.676   1.813  11.775  0.00  0.00    +0.000 HD
ENDBRANCH  18  21
ENDBRANCH   1  19
TORSDOF 6
ENDMDL
MODEL 6
REMARK VINA RESULT:    -6.848      2.951      4.991
REMARK INTER + INTRA:         -10.412
REMARK INTER:                  -9.540
REMARK INTRA:                  -0.871
REMARK UNBOUND:                -1.162
REMARK  Name = 
REMARK  6 active torsions:
REMARK  status: ('A' for Active; 'I' for Inactive)
REMARK    1  A    between atoms: C_2  and  C_19
REMARK    2  A    between atoms: N_3  and  C_4
REMARK    3  A    between atoms: C_4  and  C_5
REMARK    4  A    between atoms: C_8  and  C_9
REMARK    5  A    between atoms: C_9  and  N_10
REMARK    6  A    between atoms: N_10  and  C_11
REMARK                            x       y       z     vdW  Elec       q    Type
REMARK                         _______ _______ _______ _____ _____    ______ ____
ROOT
ATOM      1  C   UNL     1      48.673   6.783  15.662  0.00  0.00    +0.000 C 
ENDROOT
BRANCH   1   2
ATOM      2  C   UNL     1      49.051   7.762  14.523  0.00  0.00    +0.000 C 
ATOM      3  C   UNL     1      49.283   7.099  13.161  0.00  0.00    +0.000 C 
ATOM      4  C   UNL     1      48.015   6.765  12.384  0.00  0.00    +0.000 C 
ATOM      5  C   UNL     1      46.975   7.893  12.330  0.00  0.00    +0.000 C 
ATOM      6  C   UNL     1      46.787   8.604  13.681  0.00  0.00    +0.000 C 
ATOM      7  C   UNL     1      48.099   8.955  14.366  0.00  0.00    +0.000 C 
BRANCH   5   8
ATOM      8  C   UNL     1      45.596   7.384  11.855  0.00  0.00    +0.000 C 
BRANCH   8   9
ATOM      9  N   UNL     1      45.114   6.277  12.679  0.00  0.00    +0.000 N 
ATOM     10  H   UNL     1      44.486   6.591  13.417  0.00  0.00    +0.000 HD
BRANCH   9  11
ATOM     11  C   UNL     1      44.562   5.163  12.025  0.00  0.00    +0.000 A 
ATOM     12  C   UNL     1      44.739   4.903  10.667  0.00  0.00    +0.000 A 
ATOM     13  C   UNL     1      44.237   3.727  10.131  0.00  0.00    +0.000 A 
ATOM     14  N   UNL     1      43.589   2.787  10.846  0.00  0.00    +0.000 NA
ATOM     15  C   UNL     1      43.453   3.035  12.164  0.00  0.00    +0.000 A 
ATOM     16  C   UNL     1      43.928   4.179  12.789  0.00  0.00    +0.000 A 
ENDBRANCH   9  11
ENDBRANCH   8   9
ENDBRANCH   5   8
ENDBRANCH   1   2
BRANCH   1  19
ATOM     17  O   UNL     1      48.494   4.690  17.591  0.00  0.00    +0.000 OA
ATOM     18  C   UNL     1      49.589   4.998  17.131  0.00  0.00    +0.000 C 
ATOM     19  N   UNL     1      49.752   5.972  16.176  0.00  0.00    +0.000 N 
ATOM     20  H   UNL     1      50.653   6.062  15.719  0.00  0.00    +0.000 HD
BRANCH  18  21
ATOM     21  C   UNL     1      50.832   4.445  17.680  0.00  0.00    +0.000 A 
ATOM     22  C   UNL     1      51.730   5.259  18.358  0.00  0.00    +0.000 A 
ATOM     23  S   UNL     1      53.099   4.421  18.938  0.00  0.00    +0.000 S 
ATOM     24  C   UNL     1      52.522   2.942  18.323  0.00  0.00    +0.000 A 
ATOM     25  N   UNL     1      53.194   1.778  18.533  0.00  0.00    +0.000 NA
ATOM     26  C   UNL     1      52.616   0.735  18.030  0.00  0.00    +0.000 A 
ATOM     27  N   UNL     1      51.451   0.759  17.308  0.00  0.00    +0.000 N 
ATOM     28  C   UNL     1      50.794   1.921  16.992  0.00  0.00    +0.000 A 
ATOM     29  O   UNL     1      49.868   1.935  16.187  0.00  0.00    +0.000 OA
ATOM     30  C   UNL     1      51.341   3.103  17.622  0.00  0.00    +0.000 A 
ATOM     31  H   UNL     1      51.090  -0.084  16.887  0.00  0.00    +0.000 HD
ENDBRANCH  18  21
ENDBRANCH   1  19
TORSDOF 6
ENDMDL
MODEL 7
REMARK VINA RESULT:    -6.845      3.355      7.836
REMARK INTER + INTRA:         -10.409
REMARK INTER:                  -9.144
REMARK INTRA:                  -1.264
REMARK UNBOUND:                -1.162
REMARK  Name = 
REMARK  6 active torsions:
REMARK  status: ('A' for Active; 'I' for Inactive)
REMARK    1  A    between atoms: C_2  and  C_19
REMARK    2  A    between atoms: N_3  and  C_4
REMARK    3  A    between atoms: C_4  and  C_5
REMARK    4  A    between atoms: C_8  and  C_9
REMARK    5  A    between atoms: C_9  and  N_10
REMARK    6  A    between atoms: N_10  and  C_11
REMARK                            x       y       z     vdW  Elec       q    Type
REMARK                         _______ _______ _______ _____ _____    ______ ____
ROOT
ATOM      1  C   UNL     1      49.259   7.630  15.162  0.00  0.00    +0.000 C 
ENDROOT
BRANCH   1   2
ATOM      2  C   UNL     1      49.148   8.503  16.436  0.00  0.00    +0.000 C 
ATOM      3  C   UNL     1      47.950   8.177  17.332  0.00  0.00    +0.000 C 
ATOM      4  C   UNL     1      48.136   6.966  18.240  0.00  0.00    +0.000 C 
ATOM      5  C   UNL     1      49.474   6.923  18.991  0.00  0.00    +0.000 C 
ATOM      6  C   UNL     1      50.673   7.313  18.111  0.00  0.00    +0.000 C 
ATOM      7  C   UNL     1      50.429   8.564  17.279  0.00  0.00    +0.000 C 
BRANCH   5   8
ATOM      8  C   UNL     1      49.751   5.529  19.596  0.00  0.00    +0.000 C 
BRANCH   8   9
ATOM      9  N   UNL     1      48.713   4.566  19.234  0.00  0.00    +0.000 N 
ATOM     10  H   UNL     1      47.837   5.020  18.982  0.00  0.00    +0.000 HD
BRANCH   9  11
ATOM     11  C   UNL     1      49.031   3.584  18.280  0.00  0.00    +0.000 A 
ATOM     12  C   UNL     1      48.098   3.033  17.404  0.00  0.00    +0.000 A 
ATOM     13  C   UNL     1      48.525   2.141  16.432  0.00  0.00    +0.000 A 
ATOM     14  N   UNL     1      49.810   1.772  16.257  0.00  0.00    +0.000 NA
ATOM     15  C   UNL     1      50.706   2.338  17.089  0.00  0.00    +0.000 A 
ATOM     16  C   UNL     1      50.373   3.244  18.085  0.00  0.00    +0.000 A 
ENDBRANCH   9  11
ENDBRANCH   8   9
ENDBRANCH   5   8
ENDBRANCH   1   2
BRANCH   1  19
ATOM     17  O   UNL     1      48.887   5.935  12.898  0.00  0.00    +0.000 OA
ATOM     18  C   UNL     1      47.910   6.426  13.453  0.00  0.00    +0.000 C 
ATOM     19  N   UNL     1      48.007   7.226  14.568  0.00  0.00    +0.000 N 
ATOM     20  H   UNL     1      47.160   7.460  15.074  0.00  0.00    +0.000 HD
BRANCH  18  21
ATOM     21  C   UNL     1      46.565   6.315  12.877  0.00  0.00    +0.000 A 
ATOM     22  C   UNL     1      45.890   7.446  12.437  0.00  0.00    +0.000 A 
ATOM     23  S   UNL     1      44.353   7.102  11.777  0.00  0.00    +0.000 S 
ATOM     24  C   UNL     1      44.554   5.431  12.038  0.00  0.00    +0.000 A 
ATOM     25  N   UNL     1      43.618   4.534  11.632  0.00  0.00    +0.000 NA
ATOM     26  C   UNL     1      43.926   3.300  11.874  0.00  0.00    +0.000 A 
ATOM     27  N   UNL     1      45.066   2.891  12.514  0.00  0.00    +0.000 N 
ATOM     28  C   UNL     1      45.990   3.768  13.024  0.00  0.00    +0.000 A 
ATOM     29  O   UNL     1      46.897   3.388  13.759  0.00  0.00    +0.000 OA
ATOM     30  C   UNL     1      45.745   5.153  12.686  0.00  0.00    +0.000 A 
ATOM     31  H   UNL     1      45.213   1.916  12.730  0.00  0.00    +0.000 HD
ENDBRANCH  18  21
ENDBRANCH   1  19
TORSDOF 6
ENDMDL
MODEL 8
REMARK VINA RESULT:    -6.788      3.439      7.584
REMARK INTER + INTRA:         -10.331
REMARK INTER:                  -9.327
REMARK INTRA:                  -1.003
REMARK UNBOUND:                -1.162
REMARK  Name = 
REMARK  6 active torsions:
REMARK  status: ('A' for Active; 'I' for Inactive)
REMARK    1  A    between atoms: C_2  and  C_19
REMARK    2  A    between atoms: N_3  and  C_4
REMARK    3  A    between atoms: C_4  and  C_5
REMARK    4  A    between atoms: C_8  and  C_9
REMARK    5  A    between atoms: C_9  and  N_10
REMARK    6  A    between atoms: N_10  and  C_11
REMARK                            x       y       z     vdW  Elec       q    Type
REMARK                         _______ _______ _______ _____ _____    ______ ____
ROOT
ATOM      1  C   UNL     1      49.469   7.362  12.288  0.00  0.00    +0.000 C 
ENDROOT
BRANCH   1   2
ATOM      2  C   UNL     1      49.878   8.668  13.013  0.00  0.00    +0.000 C 
ATOM      3  C   UNL     1      48.740   9.365  13.765  0.00  0.00    +0.000 C 
ATOM      4  C   UNL     1      48.412   8.769  15.130  0.00  0.00    +0.000 C 
ATOM      5  C   UNL     1      49.631   8.485  16.019  0.00  0.00    +0.000 C 
ATOM      6  C   UNL     1      50.800   7.845  15.253  0.00  0.00    +0.000 C 
ATOM      7  C   UNL     1      51.102   8.532  13.929  0.00  0.00    +0.000 C 
BRANCH   5   8
ATOM      8  C   UNL     1      49.274   7.569  17.211  0.00  0.00    +0.000 C 
BRANCH   8   9
ATOM      9  N   UNL     1      48.275   6.567  16.843  0.00  0.00    +0.000 N 
ATOM     10  H   UNL     1      47.909   6.714  15.904  0.00  0.00    +0.000 HD
BRANCH   9  11
ATOM     11  C   UNL     1      48.607   5.213  17.017  0.00  0.00    +0.000 A 
ATOM     12  C   UNL     1      47.748   4.163  16.695  0.00  0.00    +0.000 A 
ATOM     13  C   UNL     1      48.201   2.858  16.811  0.00  0.00    +0.000 A 
ATOM     14  N   UNL     1      49.445   2.522  17.205  0.00  0.00    +0.000 NA
ATOM     15  C   UNL     1      50.275   3.546  17.482  0.00  0.00    +0.000 A 
ATOM     16  C   UNL     1      49.914   4.882  17.389  0.00  0.00    +0.000 A 
ENDBRANCH   9  11
ENDBRANCH   8   9
ENDBRANCH   5   8
ENDBRANCH   1   2
BRANCH   1  19
ATOM     17  O   UNL     1      47.800   5.571  13.752  0.00  0.00    +0.000 OA
ATOM     18  C   UNL     1      47.318   6.248  12.849  0.00  0.00    +0.000 C 
ATOM     19  N   UNL     1      48.050   7.155  12.121  0.00  0.00    +0.000 N 
ATOM     20  H   UNL     1      47.560   7.798  11.508  0.00  0.00    +0.000 HD
BRANCH  18  21
ATOM     21  C   UNL     1      45.945   6.029  12.378  0.00  0.00    +0.000 A 
ATOM     22  C   UNL     1      45.180   7.091  11.913  0.00  0.00    +0.000 A 
ATOM     23  S   UNL     1      43.624   6.626  11.389  0.00  0.00    +0.000 S 
ATOM     24  C   UNL     1      43.934   4.990  11.744  0.00  0.00    +0.000 A 
ATOM     25  N   UNL     1      43.023   4.020  11.465  0.00  0.00    +0.000 NA
ATOM     26  C   UNL     1      43.414   2.823  11.764  0.00  0.00    +0.000 A 
ATOM     27  N   UNL     1      44.616   2.517  12.348  0.00  0.00    +0.000 N 
ATOM     28  C   UNL     1      45.522   3.472  12.732  0.00  0.00    +0.000 A 
ATOM     29  O   UNL     1      46.496   3.190  13.424  0.00  0.00    +0.000 OA
ATOM     30  C   UNL     1      45.179   4.816  12.322  0.00  0.00    +0.000 A 
ATOM     31  H   UNL     1      44.831   1.568  12.616  0.00  0.00    +0.000 HD
ENDBRANCH  18  21
ENDBRANCH   1  19
TORSDOF 6
ENDMDL
MODEL 9
REMARK VINA RESULT:    -6.667      2.889      4.738
REMARK INTER + INTRA:         -10.167
REMARK INTER:                  -8.755
REMARK INTRA:                  -1.413
REMARK UNBOUND:                -1.162
REMARK  Name = 
REMARK  6 active torsions:
REMARK  status: ('A' for Active; 'I' for Inactive)
REMARK    1  A    between atoms: C_2  and  C_19
REMARK    2  A    between atoms: N_3  and  C_4
REMARK    3  A    between atoms: C_4  and  C_5
REMARK    4  A    between atoms: C_8  and  C_9
REMARK    5  A    between atoms: C_9  and  N_10
REMARK    6  A    between atoms: N_10  and  C_11
REMARK                            x       y       z     vdW  Elec       q    Type
REMARK                         _______ _______ _______ _____ _____    ______ ____
ROOT
ATOM      1  C   UNL     1      50.273   8.945  13.847  0.00  0.00    +0.000 C 
ENDROOT
BRANCH   1   2
ATOM      2  C   UNL     1      49.912   8.662  12.369  0.00  0.00    +0.000 C 
ATOM      3  C   UNL     1      49.481   7.221  12.080  0.00  0.00    +0.000 C 
ATOM      4  C   UNL     1      48.035   6.897  12.442  0.00  0.00    +0.000 C 
ATOM      5  C   UNL     1      47.005   7.934  11.974  0.00  0.00    +0.000 C 
ATOM      6  C   UNL     1      47.463   9.384  12.203  0.00  0.00    +0.000 C 
ATOM      7  C   UNL     1      48.897   9.641  11.762  0.00  0.00    +0.000 C 
BRANCH   5   8
ATOM      8  C   UNL     1      45.638   7.743  12.668  0.00  0.00    +0.000 C 
BRANCH   8   9
ATOM      9  N   UNL     1      45.507   6.407  13.247  0.00  0.00    +0.000 N 
ATOM     10  H   UNL     1      45.202   6.436  14.218  0.00  0.00    +0.000 HD
BRANCH   9  11
ATOM     11  C   UNL     1      44.753   5.455  12.539  0.00  0.00    +0.000 A 
ATOM     12  C   UNL     1      45.143   4.126  12.384  0.00  0.00    +0.000 A 
ATOM     13  C   UNL     1      44.286   3.238  11.753  0.00  0.00    +0.000 A 
ATOM     14  N   UNL     1      43.068   3.569  11.281  0.00  0.00    +0.000 NA
ATOM     15  C   UNL     1      42.690   4.849  11.467  0.00  0.00    +0.000 A 
ATOM     16  C   UNL     1      43.476   5.805  12.092  0.00  0.00    +0.000 A 
ENDBRANCH   9  11
ENDBRANCH   8   9
ENDBRANCH   5   8
ENDBRANCH   1   2
BRANCH   1  19
ATOM     17  O   UNL     1      48.242   8.260  15.729  0.00  0.00    +0.000 OA
ATOM     18  C   UNL     1      49.241   7.556  15.634  0.00  0.00    +0.000 C 
ATOM     19  N   UNL     1      50.247   7.802  14.729  0.00  0.00    +0.000 N 
ATOM     20  H   UNL     1      50.958   7.093  14.586  0.00  0.00    +0.000 HD
BRANCH  18  21
ATOM     21  C   UNL     1      49.508   6.472  16.587  0.00  0.00    +0.000 A 
ATOM     22  C   UNL     1      50.562   6.566  17.486  0.00  0.00    +0.000 A 
ATOM     23  S   UNL     1      50.688   5.217  18.524  0.00  0.00    +0.000 S 
ATOM     24  C   UNL     1      49.324   4.479  17.820  0.00  0.00    +0.000 A 
ATOM     25  N   UNL     1      48.833   3.303  18.293  0.00  0.00    +0.000 NA
ATOM     26  C   UNL     1      47.776   2.883  17.675  0.00  0.00    +0.000 A 
ATOM     27  N   UNL     1      47.192   3.515  16.608  0.00  0.00    +0.000 N 
ATOM     28  C   UNL     1      47.711   4.652  16.040  0.00  0.00    +0.000 A 
ATOM     29  O   UNL     1      47.286   5.086  14.974  0.00  0.00    +0.000 OA
ATOM     30  C   UNL     1      48.829   5.219  16.762  0.00  0.00    +0.000 A 
ATOM     31  H   UNL     1      46.407   3.098  16.129  0.00  0.00    +0.000 HD
ENDBRANCH  18  21
ENDBRANCH   1  19
TORSDOF 6
ENDMDL
