MODEL 1
REMARK VINA RESULT:    -8.791      0.000      0.000
REMARK INTER + INTRA:         -12.587
REMARK INTER:                 -11.875
REMARK INTRA:                  -0.712
REMARK UNBOUND:                -0.712
REMARK  Name = 
REMARK  6 active torsions:
REMARK  status: ('A' for Active; 'I' for Inactive)
REMARK    1  A    between atoms: C_2  and  C_20
REMARK    2  A    between atoms: N_3  and  C_4
REMARK    3  A    between atoms: C_4  and  C_5
REMARK    4  A    between atoms: N_8  and  C_9
REMARK    5  A    between atoms: C_9  and  C_10
REMARK    6  A    between atoms: C_11  and  C_12
REMARK                            x       y       z     vdW  Elec       q    Type
REMARK                         _______ _______ _______ _____ _____    ______ ____
ROOT
ATOM      1  C   UNL     1      46.191   4.748  13.931  0.00  0.00    +0.000 C 
ENDROOT
BRANCH   1   2
ATOM      2  C   UNL     1      45.657   6.113  13.396  0.00  0.00    +0.000 C 
ATOM      3  C   UNL     1      44.125   6.206  13.267  0.00  0.00    +0.000 C 
ATOM      4  C   UNL     1      43.549   5.280  12.187  0.00  0.00    +0.000 C 
ATOM      5  N   UNL     1      44.222   5.377  10.873  0.00  0.00    +0.000 NA
ATOM      6  C   UNL     1      45.690   5.313  11.022  0.00  0.00    +0.000 C 
ATOM      7  C   UNL     1      46.179   6.407  11.978  0.00  0.00    +0.000 C 
BRANCH   5   8
ATOM      8  C   UNL     1      43.757   4.287   9.994  0.00  0.00    +0.000 C 
BRANCH   8   9
ATOM      9  C   UNL     1      44.870   3.588   9.256  0.00  0.00    +0.000 C 
ATOM     10  C   UNL     1      45.099   3.723   7.939  0.00  0.00    +0.000 C 
BRANCH  10  11
ATOM     11  C   UNL     1      46.136   2.944   7.265  0.00  0.00    +0.000 A 
ATOM     12  C   UNL     1      46.692   3.392   6.065  0.00  0.00    +0.000 A 
ATOM     13  C   UNL     1      47.664   2.611   5.458  0.00  0.00    +0.000 A 
ATOM     14  N   UNL     1      48.106   1.438   5.961  0.00  0.00    +0.000 NA
ATOM     15  C   UNL     1      47.544   1.026   7.117  0.00  0.00    +0.000 A 
ATOM     16  C   UNL     1      46.568   1.734   7.800  0.00  0.00    +0.000 A 
ENDBRANCH  10  11
ENDBRANCH   8   9
ENDBRANCH   5   8
ENDBRANCH   1   2
BRANCH   1  19
ATOM     17  O   UNL     1      46.443   3.648  16.605  0.00  0.00    +0.000 OA
ATOM     18  C   UNL     1      47.362   4.305  16.107  0.00  0.00    +0.000 C 
ATOM     19  N   UNL     1      47.293   4.881  14.861  0.00  0.00    +0.000 N 
ATOM     20  H   UNL     1      48.172   5.099  14.413  0.00  0.00    +0.000 HD
BRANCH  18  21
ATOM     21  C   UNL     1      48.624   4.562  16.843  0.00  0.00    +0.000 A 
ATOM     22  C   UNL     1      48.929   5.787  17.414  0.00  0.00    +0.000 A 
ATOM     23  S   UNL     1      50.452   5.804  18.212  0.00  0.00    +0.000 S 
ATOM     24  C   UNL     1      50.727   4.166  17.852  0.00  0.00    +0.000 A 
ATOM     25  N   UNL     1      51.845   3.520  18.283  0.00  0.00    +0.000 NA
ATOM     26  C   UNL     1      51.902   2.275  17.939  0.00  0.00    +0.000 A 
ATOM     27  N   UNL     1      50.968   1.614  17.202  0.00  0.00    +0.000 N 
ATOM     28  C   UNL     1      49.901   2.254  16.651  0.00  0.00    +0.000 A 
ATOM     29  O   UNL     1      49.194   1.672  15.810  0.00  0.00    +0.000 OA
ATOM     30  C   UNL     1      49.714   3.634  17.072  0.00  0.00    +0.000 A 
ATOM     31  H   UNL     1      51.107   0.661  16.894  0.00  0.00    +0.000 HD
ENDBRANCH  18  21
ENDBRANCH   1  19
TORSDOF 6
ENDMDL
MODEL 2
REMARK VINA RESULT:    -8.639      1.847      2.427
REMARK INTER + INTRA:         -12.381
REMARK INTER:                 -11.299
REMARK INTRA:                  -1.082
REMARK UNBOUND:                -0.712
REMARK  Name = 
REMARK  6 active torsions:
REMARK  status: ('A' for Active; 'I' for Inactive)
REMARK    1  A    between atoms: C_2  and  C_20
REMARK    2  A    between atoms: N_3  and  C_4
REMARK    3  A    between atoms: C_4  and  C_5
REMARK    4  A    between atoms: N_8  and  C_9
REMARK    5  A    between atoms: C_9  and  C_10
REMARK    6  A    between atoms: C_11  and  C_12
REMARK                            x       y       z     vdW  Elec       q    Type
REMARK                         _______ _______ _______ _____ _____    ______ ____
ROOT
ATOM      1  C   UNL     1      45.707   6.014  12.468  0.00  0.00    +0.000 C 
ENDROOT
BRANCH   1   2
ATOM      2  C   UNL     1      44.155   6.021  12.628  0.00  0.00    +0.000 C 
ATOM      3  C   UNL     1      43.574   4.813  13.386  0.00  0.00    +0.000 C 
ATOM      4  C   UNL     1      43.734   3.487  12.630  0.00  0.00    +0.000 C 
ATOM      5  N   UNL     1      43.282   3.525  11.222  0.00  0.00    +0.000 NA
ATOM      6  C   UNL     1      43.828   4.705  10.521  0.00  0.00    +0.000 C 
ATOM      7  C   UNL     1      43.447   5.991  11.261  0.00  0.00    +0.000 C 
BRANCH   5   8
ATOM      8  C   UNL     1      43.701   2.290  10.532  0.00  0.00    +0.000 C 
BRANCH   8   9
ATOM      9  C   UNL     1      44.489   2.539   9.271  0.00  0.00    +0.000 C 
ATOM     10  C   UNL     1      45.489   1.752   8.843  0.00  0.00    +0.000 C 
BRANCH  10  11
ATOM     11  C   UNL     1      46.278   2.101   7.662  0.00  0.00    +0.000 A 
ATOM     12  C   UNL     1      47.386   1.333   7.297  0.00  0.00    +0.000 A 
ATOM     13  C   UNL     1      48.108   1.712   6.176  0.00  0.00    +0.000 A 
ATOM     14  N   UNL     1      47.802   2.784   5.414  0.00  0.00    +0.000 NA
ATOM     15  C   UNL     1      46.731   3.512   5.795  0.00  0.00    +0.000 A 
ATOM     16  C   UNL     1      45.946   3.216   6.897  0.00  0.00    +0.000 A 
ENDBRANCH  10  11
ENDBRANCH   8   9
ENDBRANCH   5   8
ENDBRANCH   1   2
BRANCH   1  19
ATOM     17  O   UNL     1      48.566   6.186  12.931  0.00  0.00    +0.000 OA
ATOM     18  C   UNL     1      47.781   6.103  13.879  0.00  0.00    +0.000 C 
ATOM     19  N   UNL     1      46.419   5.985  13.727  0.00  0.00    +0.000 N 
ATOM     20  H   UNL     1      45.850   6.255  14.517  0.00  0.00    +0.000 HD
BRANCH  18  21
ATOM     21  C   UNL     1      48.253   6.086  15.286  0.00  0.00    +0.000 A 
ATOM     22  C   UNL     1      48.818   7.189  15.907  0.00  0.00    +0.000 A 
ATOM     23  S   UNL     1      49.268   6.892  17.539  0.00  0.00    +0.000 S 
ATOM     24  C   UNL     1      48.686   5.296  17.473  0.00  0.00    +0.000 A 
ATOM     25  N   UNL     1      48.724   4.479  18.561  0.00  0.00    +0.000 NA
ATOM     26  C   UNL     1      48.233   3.301  18.355  0.00  0.00    +0.000 A 
ATOM     27  N   UNL     1      47.721   2.853  17.177  0.00  0.00    +0.000 N 
ATOM     28  C   UNL     1      47.776   3.596  16.038  0.00  0.00    +0.000 A 
ATOM     29  O   UNL     1      47.501   3.076  14.942  0.00  0.00    +0.000 OA
ATOM     30  C   UNL     1      48.226   4.968  16.209  0.00  0.00    +0.000 A 
ATOM     31  H   UNL     1      47.425   1.894  17.053  0.00  0.00    +0.000 HD
ENDBRANCH  18  21
ENDBRANCH   1  19
TORSDOF 6
ENDMDL
MODEL 3
REMARK VINA RESULT:    -8.522      1.771      2.339
REMARK INTER + INTRA:         -12.224
REMARK INTER:                 -11.449
REMARK INTRA:                  -0.774
REMARK UNBOUND:                -0.712
REMARK  Name = 
REMARK  6 active torsions:
REMARK  status: ('A' for Active; 'I' for Inactive)
REMARK    1  A    between atoms: C_2  and  C_20
REMARK    2  A    between atoms: N_3  and  C_4
REMARK    3  A    between atoms: C_4  and  C_5
REMARK    4  A    between atoms: N_8  and  C_9
REMARK    5  A    between atoms: C_9  and  C_10
REMARK    6  A    between atoms: C_11  and  C_12
REMARK                            x       y       z     vdW  Elec       q    Type
REMARK                         _______ _______ _______ _____ _____    ______ ____
ROOT
ATOM      1  C   UNL     1      46.681   5.273  13.334  0.00  0.00    +0.000 C 
ENDROOT
BRANCH   1   2
ATOM      2  C   UNL     1      45.743   6.460  12.953  0.00  0.00    +0.000 C 
ATOM      3  C   UNL     1      44.241   6.197  13.169  0.00  0.00    +0.000 C 
ATOM      4  C   UNL     1      43.671   5.125  12.229  0.00  0.00    +0.000 C 
ATOM      5  N   UNL     1      43.997   5.327  10.800  0.00  0.00    +0.000 NA
ATOM      6  C   UNL     1      45.437   5.604  10.618  0.00  0.00    +0.000 C 
ATOM      7  C   UNL     1      45.859   6.814  11.459  0.00  0.00    +0.000 C 
BRANCH   5   8
ATOM      8  C   UNL     1      43.614   4.128  10.029  0.00  0.00    +0.000 C 
BRANCH   8   9
ATOM      9  C   UNL     1      44.765   3.484   9.300  0.00  0.00    +0.000 C 
ATOM     10  C   UNL     1      44.950   3.560   7.971  0.00  0.00    +0.000 C 
BRANCH  10  11
ATOM     11  C   UNL     1      46.034   2.832   7.313  0.00  0.00    +0.000 A 
ATOM     12  C   UNL     1      46.529   1.648   7.862  0.00  0.00    +0.000 A 
ATOM     13  C   UNL     1      47.566   1.001   7.207  0.00  0.00    +0.000 A 
ATOM     14  N   UNL     1      48.127   1.452   6.064  0.00  0.00    +0.000 NA
ATOM     15  C   UNL     1      47.634   2.604   5.561  0.00  0.00    +0.000 A 
ATOM     16  C   UNL     1      46.601   3.323   6.140  0.00  0.00    +0.000 A 
ENDBRANCH  10  11
ENDBRANCH   8   9
ENDBRANCH   5   8
ENDBRANCH   1   2
BRANCH   1  19
ATOM     17  O   UNL     1      47.621   3.117  15.034  0.00  0.00    +0.000 OA
ATOM     18  C   UNL     1      47.653   4.287  15.428  0.00  0.00    +0.000 C 
ATOM     19  N   UNL     1      47.192   5.348  14.686  0.00  0.00    +0.000 N 
ATOM     20  H   UNL     1      47.553   6.261  14.928  0.00  0.00    +0.000 HD
BRANCH  18  21
ATOM     21  C   UNL     1      48.166   4.643  16.774  0.00  0.00    +0.000 A 
ATOM     22  C   UNL     1      47.676   4.082  17.942  0.00  0.00    +0.000 A 
ATOM     23  S   UNL     1      48.456   4.670  19.356  0.00  0.00    +0.000 S 
ATOM     24  C   UNL     1      49.495   5.660  18.446  0.00  0.00    +0.000 A 
ATOM     25  N   UNL     1      50.459   6.417  19.038  0.00  0.00    +0.000 NA
ATOM     26  C   UNL     1      51.176   7.104  18.211  0.00  0.00    +0.000 A 
ATOM     27  N   UNL     1      51.022   7.122  16.859  0.00  0.00    +0.000 N 
ATOM     28  C   UNL     1      49.996   6.476  16.241  0.00  0.00    +0.000 A 
ATOM     29  O   UNL     1      49.760   6.692  15.039  0.00  0.00    +0.000 OA
ATOM     30  C   UNL     1      49.205   5.603  17.093  0.00  0.00    +0.000 A 
ATOM     31  H   UNL     1      51.560   7.743  16.269  0.00  0.00    +0.000 HD
ENDBRANCH  18  21
ENDBRANCH   1  19
TORSDOF 6
ENDMDL
MODEL 4
REMARK VINA RESULT:    -8.210      3.571      4.465
REMARK INTER + INTRA:         -11.802
REMARK INTER:                 -10.595
REMARK INTRA:                  -1.208
REMARK UNBOUND:                -0.712
REMARK  Name = 
REMARK  6 active torsions:
REMARK  status: ('A' for Active; 'I' for Inactive)
REMARK    1  A    between atoms: C_2  and  C_20
REMARK    2  A    between atoms: N_3  and  C_4
REMARK    3  A    between atoms: C_4  and  C_5
REMARK    4  A    between atoms: N_8  and  C_9
REMARK    5  A    between atoms: C_9  and  C_10
REMARK    6  A    between atoms: C_11  and  C_12
REMARK                            x       y       z     vdW  Elec       q    Type
REMARK                         _______ _______ _______ _____ _____    ______ ____
ROOT
ATOM      1  C   UNL     1      46.471   6.477  11.567  0.00  0.00    +0.000 C 
ENDROOT
BRANCH   1   2
ATOM      2  C   UNL     1      45.735   6.124  12.897  0.00  0.00    +0.000 C 
ATOM      3  C   UNL     1      45.969   4.690  13.408  0.00  0.00    +0.000 C 
ATOM      4  C   UNL     1      45.359   3.613  12.500  0.00  0.00    +0.000 C 
ATOM      5  N   UNL     1      43.944   3.847  12.138  0.00  0.00    +0.000 NA
ATOM      6  C   UNL     1      43.736   5.234  11.675  0.00  0.00    +0.000 C 
ATOM      7  C   UNL     1      44.207   6.230  12.741  0.00  0.00    +0.000 C 
BRANCH   5   8
ATOM      8  C   UNL     1      43.538   2.898  11.083  0.00  0.00    +0.000 C 
BRANCH   8   9
ATOM      9  C   UNL     1      44.666   2.490  10.170  0.00  0.00    +0.000 C 
ATOM     10  C   UNL     1      44.863   3.003   8.944  0.00  0.00    +0.000 C 
BRANCH  10  11
ATOM     11  C   UNL     1      45.919   2.495   8.069  0.00  0.00    +0.000 A 
ATOM     12  C   UNL     1      46.258   1.141   8.080  0.00  0.00    +0.000 A 
ATOM     13  C   UNL     1      47.276   0.710   7.242  0.00  0.00    +0.000 A 
ATOM     14  N   UNL     1      47.960   1.528   6.413  0.00  0.00    +0.000 NA
ATOM     15  C   UNL     1      47.616   2.833   6.430  0.00  0.00    +0.000 A 
ATOM     16  C   UNL     1      46.615   3.360   7.229  0.00  0.00    +0.000 A 
ENDBRANCH  10  11
ENDBRANCH   8   9
ENDBRANCH   5   8
ENDBRANCH   1   2
BRANCH   1  19
ATOM     17  O   UNL     1      47.019   9.264  12.158  0.00  0.00    +0.000 OA
ATOM     18  C   UNL     1      47.941   8.447  12.076  0.00  0.00    +0.000 C 
ATOM     19  N   UNL     1      47.751   7.121  11.766  0.00  0.00    +0.000 N 
ATOM     20  H   UNL     1      48.483   6.482  12.043  0.00  0.00    +0.000 HD
BRANCH  18  21
ATOM     21  C   UNL     1      49.357   8.844  12.271  0.00  0.00    +0.000 A 
ATOM     22  C   UNL     1      50.002   9.764  11.460  0.00  0.00    +0.000 A 
ATOM     23  S   UNL     1      51.635  10.044  11.918  0.00  0.00    +0.000 S 
ATOM     24  C   UNL     1      51.513   8.976  13.235  0.00  0.00    +0.000 A 
ATOM     25  N   UNL     1      52.555   8.774  14.087  0.00  0.00    +0.000 NA
ATOM     26  C   UNL     1      52.302   7.943  15.045  0.00  0.00    +0.000 A 
ATOM     27  N   UNL     1      51.125   7.287  15.231  0.00  0.00    +0.000 N 
ATOM     28  C   UNL     1      50.105   7.369  14.335  0.00  0.00    +0.000 A 
ATOM     29  O   UNL     1      49.137   6.592  14.422  0.00  0.00    +0.000 OA
ATOM     30  C   UNL     1      50.275   8.358  13.282  0.00  0.00    +0.000 A 
ATOM     31  H   UNL     1      51.012   6.586  15.951  0.00  0.00    +0.000 HD
ENDBRANCH  18  21
ENDBRANCH   1  19
TORSDOF 6
ENDMDL
MODEL 5
REMARK VINA RESULT:    -7.953      2.468      2.888
REMARK INTER + INTRA:         -11.454
REMARK INTER:                 -10.411
REMARK INTRA:                  -1.043
REMARK UNBOUND:                -0.712
REMARK  Name = 
REMARK  6 active torsions:
REMARK  status: ('A' for Active; 'I' for Inactive)
REMARK    1  A    between atoms: C_2  and  C_20
REMARK    2  A    between atoms: N_3  and  C_4
REMARK    3  A    between atoms: C_4  and  C_5
REMARK    4  A    between atoms: N_8  and  C_9
REMARK    5  A    between atoms: C_9  and  C_10
REMARK    6  A    between atoms: C_11  and  C_12
REMARK                            x       y       z     vdW  Elec       q    Type
REMARK                         _______ _______ _______ _____ _____    ______ ____
ROOT
ATOM      1  C   UNL     1      47.486   6.105  12.475  0.00  0.00    +0.000 C 
ENDROOT
BRANCH   1   2
ATOM      2  C   UNL     1      46.223   5.958  13.380  0.00  0.00    +0.000 C 
ATOM      3  C   UNL     1      45.612   4.545  13.419  0.00  0.00    +0.000 C 
ATOM      4  C   UNL     1      45.003   4.109  12.079  0.00  0.00    +0.000 C 
ATOM      5  N   UNL     1      44.078   5.095  11.477  0.00  0.00    +0.000 NA
ATOM      6  C   UNL     1      44.672   6.448  11.474  0.00  0.00    +0.000 C 
ATOM      7  C   UNL     1      45.073   6.859  12.895  0.00  0.00    +0.000 C 
BRANCH   5   8
ATOM      8  C   UNL     1      43.747   4.688  10.098  0.00  0.00    +0.000 C 
BRANCH   8   9
ATOM      9  C   UNL     1      44.861   3.949   9.401  0.00  0.00    +0.000 C 
ATOM     10  C   UNL     1      44.863   3.656   8.090  0.00  0.00    +0.000 C 
BRANCH  10  11
ATOM     11  C   UNL     1      45.929   2.853   7.493  0.00  0.00    +0.000 A 
ATOM     12  C   UNL     1      46.636   3.325   6.385  0.00  0.00    +0.000 A 
ATOM     13  C   UNL     1      47.630   2.521   5.848  0.00  0.00    +0.000 A 
ATOM     14  N   UNL     1      47.955   1.304   6.335  0.00  0.00    +0.000 NA
ATOM     15  C   UNL     1      47.249   0.871   7.400  0.00  0.00    +0.000 A 
ATOM     16  C   UNL     1      46.239   1.598   8.009  0.00  0.00    +0.000 A 
ENDBRANCH  10  11
ENDBRANCH   8   9
ENDBRANCH   5   8
ENDBRANCH   1   2
BRANCH   1  19
ATOM     17  O   UNL     1      48.177   8.581  13.822  0.00  0.00    +0.000 OA
ATOM     18  C   UNL     1      48.943   7.614  13.854  0.00  0.00    +0.000 C 
ATOM     19  N   UNL     1      48.691   6.426  13.209  0.00  0.00    +0.000 N 
ATOM     20  H   UNL     1      49.181   5.612  13.552  0.00  0.00    +0.000 HD
BRANCH  18  21
ATOM     21  C   UNL     1      50.241   7.670  14.572  0.00  0.00    +0.000 A 
ATOM     22  C   UNL     1      51.308   8.443  14.145  0.00  0.00    +0.000 A 
ATOM     23  S   UNL     1      52.684   8.325  15.168  0.00  0.00    +0.000 S 
ATOM     24  C   UNL     1      51.879   7.270  16.231  0.00  0.00    +0.000 A 
ATOM     25  N   UNL     1      52.477   6.806  17.362  0.00  0.00    +0.000 NA
ATOM     26  C   UNL     1      51.731   6.024  18.071  0.00  0.00    +0.000 A 
ATOM     27  N   UNL     1      50.460   5.649  17.763  0.00  0.00    +0.000 N 
ATOM     28  C   UNL     1      49.874   5.993  16.584  0.00  0.00    +0.000 A 
ATOM     29  O   UNL     1      48.805   5.456  16.241  0.00  0.00    +0.000 OA
ATOM     30  C   UNL     1      50.611   6.951  15.776  0.00  0.00    +0.000 A 
ATOM     31  H   UNL     1      49.955   4.969  18.314  0.00  0.00    +0.000 HD
ENDBRANCH  18  21
ENDBRANCH   1  19
TORSDOF 6
ENDMDL
MODEL 6
REMARK VINA RESULT:    -7.607      4.202      4.751
REMARK INTER + INTRA:         -10.987
REMARK INTER:                  -9.921
REMARK INTRA:                  -1.065
REMARK UNBOUND:                -0.712
REMARK  Name = 
REMARK  6 active torsions:
REMARK  status: ('A' for Active; 'I' for Inactive)
REMARK    1  A    between atoms: C_2  and  C_20
REMARK    2  A    between atoms: N_3  and  C_4
REMARK    3  A    between atoms: C_4  and  C_5
REMARK    4  A    between atoms: N_8  and  C_9
REMARK    5  A    between atoms: C_9  and  C_10
REMARK    6  A    between atoms: C_11  and  C_12
REMARK                            x       y       z     vdW  Elec       q    Type
REMARK                         _______ _______ _______ _____ _____    ______ ____
ROOT
ATOM      1  C   UNL     1      47.312   6.332  12.049  0.00  0.00    +0.000 C 
ENDROOT
BRANCH   1   2
ATOM      2  C   UNL     1      46.264   5.940  13.137  0.00  0.00    +0.000 C 
ATOM      3  C   UNL     1      45.922   4.440  13.200  0.00  0.00    +0.000 C 
ATOM      4  C   UNL     1      45.181   3.933  11.955  0.00  0.00    +0.000 C 
ATOM      5  N   UNL     1      44.012   4.750  11.562  0.00  0.00    +0.000 NA
ATOM      6  C   UNL     1      44.354   6.187  11.534  0.00  0.00    +0.000 C 
ATOM      7  C   UNL     1      44.911   6.631  12.891  0.00  0.00    +0.000 C 
BRANCH   5   8
ATOM      8  C   UNL     1      43.529   4.321  10.235  0.00  0.00    +0.000 C 
BRANCH   8   9
ATOM      9  C   UNL     1      44.524   3.486   9.470  0.00  0.00    +0.000 C 
ATOM     10  C   UNL     1      45.211   3.927   8.403  0.00  0.00    +0.000 C 
BRANCH  10  11
ATOM     11  C   UNL     1      46.091   3.036   7.647  0.00  0.00    +0.000 A 
ATOM     12  C   UNL     1      46.342   1.738   8.096  0.00  0.00    +0.000 A 
ATOM     13  C   UNL     1      47.193   0.936   7.350  0.00  0.00    +0.000 A 
ATOM     14  N   UNL     1      47.795   1.340   6.211  0.00  0.00    +0.000 NA
ATOM     15  C   UNL     1      47.540   2.602   5.805  0.00  0.00    +0.000 A 
ATOM     16  C   UNL     1      46.706   3.479   6.479  0.00  0.00    +0.000 A 
ENDBRANCH  10  11
ENDBRANCH   8   9
ENDBRANCH   5   8
ENDBRANCH   1   2
BRANCH   1  19
ATOM     17  O   UNL     1      47.691   9.209  12.083  0.00  0.00    +0.000 OA
ATOM     18  C   UNL     1      48.535   8.458  12.582  0.00  0.00    +0.000 C 
ATOM     19  N   UNL     1      48.432   7.087  12.568  0.00  0.00    +0.000 N 
ATOM     20  H   UNL     1      48.966   6.586  13.264  0.00  0.00    +0.000 HD
BRANCH  18  21
ATOM     21  C   UNL     1      49.771   8.983  13.213  0.00  0.00    +0.000 A 
ATOM     22  C   UNL     1      49.758   9.816  14.321  0.00  0.00    +0.000 A 
ATOM     23  S   UNL     1      51.330  10.267  14.849  0.00  0.00    +0.000 S 
ATOM     24  C   UNL     1      52.072   9.331  13.640  0.00  0.00    +0.000 A 
ATOM     25  N   UNL     1      53.426   9.233  13.544  0.00  0.00    +0.000 NA
ATOM     26  C   UNL     1      53.835   8.474  12.581  0.00  0.00    +0.000 A 
ATOM     27  N   UNL     1      53.035   7.816  11.699  0.00  0.00    +0.000 N 
ATOM     28  C   UNL     1      51.685   7.984  11.687  0.00  0.00    +0.000 A 
ATOM     29  O   UNL     1      51.012   7.543  10.738  0.00  0.00    +0.000 OA
ATOM     30  C   UNL     1      51.140   8.745  12.799  0.00  0.00    +0.000 A 
ATOM     31  H   UNL     1      53.414   7.301  10.915  0.00  0.00    +0.000 HD
ENDBRANCH  18  21
ENDBRANCH   1  19
TORSDOF 6
ENDMDL
MODEL 7
REMARK VINA RESULT:    -7.356      2.974      4.079
REMARK INTER + INTRA:         -10.649
REMARK INTER:                  -9.620
REMARK INTRA:                  -1.029
REMARK UNBOUND:                -0.712
REMARK  Name = 
REMARK  6 active torsions:
REMARK  status: ('A' for Active; 'I' for Inactive)
REMARK    1  A    between atoms: C_2  and  C_20
REMARK    2  A    between atoms: N_3  and  C_4
REMARK    3  A    between atoms: C_4  and  C_5
REMARK    4  A    between atoms: N_8  and  C_9
REMARK    5  A    between atoms: C_9  and  C_10
REMARK    6  A    between atoms: C_11  and  C_12
REMARK                            x       y       z     vdW  Elec       q    Type
REMARK                         _______ _______ _______ _____ _____    ______ ____
ROOT
ATOM      1  C   UNL     1      47.972   6.455  13.983  0.00  0.00    +0.000 C 
ENDROOT
BRANCH   1   2
ATOM      2  C   UNL     1      47.612   7.773  13.229  0.00  0.00    +0.000 C 
ATOM      3  C   UNL     1      46.127   8.176  13.298  0.00  0.00    +0.000 C 
ATOM      4  C   UNL     1      45.199   7.207  12.552  0.00  0.00    +0.000 C 
ATOM      5  N   UNL     1      45.623   6.893  11.170  0.00  0.00    +0.000 NA
ATOM      6  C   UNL     1      47.056   6.536  11.122  0.00  0.00    +0.000 C 
ATOM      7  C   UNL     1      47.908   7.659  11.723  0.00  0.00    +0.000 C 
BRANCH   5   8
ATOM      8  C   UNL     1      44.809   5.783  10.639  0.00  0.00    +0.000 C 
BRANCH   8   9
ATOM      9  C   UNL     1      45.559   4.881   9.692  0.00  0.00    +0.000 C 
ATOM     10  C   UNL     1      44.981   3.914   8.960  0.00  0.00    +0.000 C 
BRANCH  10  11
ATOM     11  C   UNL     1      45.779   3.010   8.132  0.00  0.00    +0.000 A 
ATOM     12  C   UNL     1      46.410   3.478   6.978  0.00  0.00    +0.000 A 
ATOM     13  C   UNL     1      47.145   2.580   6.219  0.00  0.00    +0.000 A 
ATOM     14  N   UNL     1      47.286   1.274   6.532  0.00  0.00    +0.000 NA
ATOM     15  C   UNL     1      46.658   0.848   7.649  0.00  0.00    +0.000 A 
ATOM     16  C   UNL     1      45.902   1.666   8.473  0.00  0.00    +0.000 A 
ENDBRANCH  10  11
ENDBRANCH   8   9
ENDBRANCH   5   8
ENDBRANCH   1   2
BRANCH   1  19
ATOM     17  O   UNL     1      50.176   6.261  15.862  0.00  0.00    +0.000 OA
ATOM     18  C   UNL     1      49.034   6.514  16.257  0.00  0.00    +0.000 C 
ATOM     19  N   UNL     1      47.942   6.586  15.424  0.00  0.00    +0.000 N 
ATOM     20  H   UNL     1      47.148   7.110  15.764  0.00  0.00    +0.000 HD
BRANCH  18  21
ATOM     21  C   UNL     1      48.735   6.726  17.695  0.00  0.00    +0.000 A 
ATOM     22  C   UNL     1      48.868   5.731  18.650  0.00  0.00    +0.000 A 
ATOM     23  S   UNL     1      48.463   6.253  20.236  0.00  0.00    +0.000 S 
ATOM     24  C   UNL     1      48.138   7.833  19.699  0.00  0.00    +0.000 A 
ATOM     25  N   UNL     1      47.775   8.819  20.564  0.00  0.00    +0.000 NA
ATOM     26  C   UNL     1      47.575   9.967  20.004  0.00  0.00    +0.000 A 
ATOM     27  N   UNL     1      47.687  10.227  18.673  0.00  0.00    +0.000 N 
ATOM     28  C   UNL     1      47.928   9.244  17.765  0.00  0.00    +0.000 A 
ATOM     29  O   UNL     1      47.808   9.478  16.549  0.00  0.00    +0.000 OA
ATOM     30  C   UNL     1      48.261   7.943  18.324  0.00  0.00    +0.000 A 
ATOM     31  H   UNL     1      47.439  11.126  18.282  0.00  0.00    +0.000 HD
ENDBRANCH  18  21
ENDBRANCH   1  19
TORSDOF 6
ENDMDL
MODEL 8
REMARK VINA RESULT:    -7.309      2.188      3.380
REMARK INTER + INTRA:         -10.585
REMARK INTER:                  -9.872
REMARK INTRA:                  -0.713
REMARK UNBOUND:                -0.712
REMARK  Name = 
REMARK  6 active torsions:
REMARK  status: ('A' for Active; 'I' for Inactive)
REMARK    1  A    between atoms: C_2  and  C_20
REMARK    2  A    between atoms: N_3  and  C_4
REMARK    3  A    between atoms: C_4  and  C_5
REMARK    4  A    between atoms: N_8  and  C_9
REMARK    5  A    between atoms: C_9  and  C_10
REMARK    6  A    between atoms: C_11  and  C_12
REMARK                            x       y       z     vdW  Elec       q    Type
REMARK                         _______ _______ _______ _____ _____    ______ ____
ROOT
ATOM      1  C   UNL     1      48.767   6.658  15.714  0.00  0.00    +0.000 C 
ENDROOT
BRANCH   1   2
ATOM      2  C   UNL     1      49.273   7.731  14.701  0.00  0.00    +0.000 C 
ATOM      3  C   UNL     1      48.365   8.966  14.554  0.00  0.00    +0.000 C 
ATOM      4  C   UNL     1      47.006   8.649  13.913  0.00  0.00    +0.000 C 
ATOM      5  N   UNL     1      47.088   7.870  12.657  0.00  0.00    +0.000 NA
ATOM      6  C   UNL     1      47.985   6.706  12.812  0.00  0.00    +0.000 C 
ATOM      7  C   UNL     1      49.374   7.159  13.276  0.00  0.00    +0.000 C 
BRANCH   5   8
ATOM      8  C   UNL     1      45.740   7.418  12.264  0.00  0.00    +0.000 C 
BRANCH   8   9
ATOM      9  C   UNL     1      45.744   6.403  11.149  0.00  0.00    +0.000 C 
ATOM     10  C   UNL     1      44.933   5.333  11.106  0.00  0.00    +0.000 C 
BRANCH  10  11
ATOM     11  C   UNL     1      45.052   4.333  10.045  0.00  0.00    +0.000 A 
ATOM     12  C   UNL     1      44.573   3.035  10.238  0.00  0.00    +0.000 A 
ATOM     13  C   UNL     1      44.720   2.120   9.207  0.00  0.00    +0.000 A 
ATOM     14  N   UNL     1      45.301   2.411   8.023  0.00  0.00    +0.000 NA
ATOM     15  C   UNL     1      45.762   3.670   7.869  0.00  0.00    +0.000 A 
ATOM     16  C   UNL     1      45.662   4.656   8.837  0.00  0.00    +0.000 A 
ENDBRANCH  10  11
ENDBRANCH   8   9
ENDBRANCH   5   8
ENDBRANCH   1   2
BRANCH   1  19
ATOM     17  O   UNL     1      48.566   4.505  17.650  0.00  0.00    +0.000 OA
ATOM     18  C   UNL     1      49.670   4.933  17.299  0.00  0.00    +0.000 C 
ATOM     19  N   UNL     1      49.832   5.972  16.413  0.00  0.00    +0.000 N 
ATOM     20  H   UNL     1      50.724   6.029  15.941  0.00  0.00    +0.000 HD
BRANCH  18  21
ATOM     21  C   UNL     1      50.933   4.376  17.844  0.00  0.00    +0.000 A 
ATOM     22  C   UNL     1      51.845   5.134  18.560  0.00  0.00    +0.000 A 
ATOM     23  S   UNL     1      53.215   4.235  19.079  0.00  0.00    +0.000 S 
ATOM     24  C   UNL     1      52.608   2.801  18.397  0.00  0.00    +0.000 A 
ATOM     25  N   UNL     1      53.274   1.620  18.513  0.00  0.00    +0.000 NA
ATOM     26  C   UNL     1      52.678   0.619  17.953  0.00  0.00    +0.000 A 
ATOM     27  N   UNL     1      51.497   0.678  17.280  0.00  0.00    +0.000 N 
ATOM     28  C   UNL     1      50.864   1.858  17.038  0.00  0.00    +0.000 A 
ATOM     29  O   UNL     1      49.911   1.900  16.240  0.00  0.00    +0.000 OA
ATOM     30  C   UNL     1      51.420   3.017  17.719  0.00  0.00    +0.000 A 
ATOM     31  H   UNL     1      51.119  -0.122  16.791  0.00  0.00    +0.000 HD
ENDBRANCH  18  21
ENDBRANCH   1  19
TORSDOF 6
ENDMDL
MODEL 9
REMARK VINA RESULT:    -7.102      4.178      8.063
REMARK INTER + INTRA:         -10.306
REMARK INTER:                  -9.074
REMARK INTRA:                  -1.232
REMARK UNBOUND:                -0.712
REMARK  Name = 
REMARK  6 active torsions:
REMARK  status: ('A' for Active; 'I' for Inactive)
REMARK    1  A    between atoms: C_2  and  C_20
REMARK    2  A    between atoms: N_3  and  C_4
REMARK    3  A    between atoms: C_4  and  C_5
REMARK    4  A    between atoms: N_8  and  C_9
REMARK    5  A    between atoms: C_9  and  C_10
REMARK    6  A    between atoms: C_11  and  C_12
REMARK                            x       y       z     vdW  Elec       q    Type
REMARK                         _______ _______ _______ _____ _____    ______ ____
ROOT
ATOM      1  C   UNL     1      47.517   3.384  16.504  0.00  0.00    +0.000 C 
ENDROOT
BRANCH   1   2
ATOM      2  C   UNL     1      47.725   3.958  17.940  0.00  0.00    +0.000 C 
ATOM      3  C   UNL     1      47.529   5.480  18.066  0.00  0.00    +0.000 C 
ATOM      4  C   UNL     1      48.596   6.295  17.321  0.00  0.00    +0.000 C 
ATOM      5  N   UNL     1      49.989   5.891  17.613  0.00  0.00    +0.000 NA
ATOM      6  C   UNL     1      50.150   4.426  17.513  0.00  0.00    +0.000 C 
ATOM      7  C   UNL     1      49.160   3.715  18.442  0.00  0.00    +0.000 C 
BRANCH   5   8
ATOM      8  C   UNL     1      50.908   6.564  16.675  0.00  0.00    +0.000 C 
BRANCH   8   9
ATOM      9  C   UNL     1      50.222   7.534  15.747  0.00  0.00    +0.000 C 
ATOM     10  C   UNL     1      50.259   7.446  14.407  0.00  0.00    +0.000 C 
BRANCH  10  11
ATOM     11  C   UNL     1      49.653   8.474  13.562  0.00  0.00    +0.000 A 
ATOM     12  C   UNL     1      49.751   8.396  12.171  0.00  0.00    +0.000 A 
ATOM     13  C   UNL     1      49.170   9.401  11.413  0.00  0.00    +0.000 A 
ATOM     14  N   UNL     1      48.512  10.455  11.944  0.00  0.00    +0.000 NA
ATOM     15  C   UNL     1      48.440  10.508  13.290  0.00  0.00    +0.000 A 
ATOM     16  C   UNL     1      48.987   9.554  14.134  0.00  0.00    +0.000 A 
ENDBRANCH  10  11
ENDBRANCH   8   9
ENDBRANCH   5   8
ENDBRANCH   1   2
BRANCH   1  19
ATOM     17  O   UNL     1      47.110   3.094  13.645  0.00  0.00    +0.000 OA
ATOM     18  C   UNL     1      46.768   4.129  14.226  0.00  0.00    +0.000 C 
ATOM     19  N   UNL     1      46.965   4.342  15.570  0.00  0.00    +0.000 N 
ATOM     20  H   UNL     1      46.376   5.036  16.009  0.00  0.00    +0.000 HD
BRANCH  18  21
ATOM     21  C   UNL     1      46.142   5.261  13.501  0.00  0.00    +0.000 A 
ATOM     22  C   UNL     1      46.750   6.499  13.364  0.00  0.00    +0.000 A 
ATOM     23  S   UNL     1      45.806   7.624  12.470  0.00  0.00    +0.000 S 
ATOM     24  C   UNL     1      44.578   6.477  12.208  0.00  0.00    +0.000 A 
ATOM     25  N   UNL     1      43.475   6.772  11.468  0.00  0.00    +0.000 NA
ATOM     26  C   UNL     1      42.640   5.792  11.349  0.00  0.00    +0.000 A 
ATOM     27  N   UNL     1      42.786   4.558  11.902  0.00  0.00    +0.000 N 
ATOM     28  C   UNL     1      43.812   4.264  12.747  0.00  0.00    +0.000 A 
ATOM     29  O   UNL     1      43.795   3.206  13.401  0.00  0.00    +0.000 OA
ATOM     30  C   UNL     1      44.845   5.282  12.853  0.00  0.00    +0.000 A 
ATOM     31  H   UNL     1      42.061   3.856  11.844  0.00  0.00    +0.000 HD
ENDBRANCH  18  21
ENDBRANCH   1  19
TORSDOF 6
ENDMDL
