MODEL 1
REMARK VINA RESULT:    -7.528      0.000      0.000
REMARK INTER + INTRA:          -9.725
REMARK INTER:                  -9.289
REMARK INTRA:                  -0.436
REMARK UNBOUND:                -0.436
REMARK  Name = 
REMARK  4 active torsions:
REMARK  status: ('A' for Active; 'I' for Inactive)
REMARK    1  A    between atoms: C_2  and  C_4
REMARK    2  A    between atoms: C_7  and  N_8
REMARK    3  A    between atoms: N_8  and  C_9
REMARK    4  A    between atoms: C_9  and  C_10
REMARK                            x       y       z     vdW  Elec       q    Type
REMARK                         _______ _______ _______ _____ _____    ______ ____
ROOT
ATOM      1  C   UNL     1      46.372   2.284   7.793  0.00  0.00    +0.000 A 
ATOM      2  C   UNL     1      46.375   3.658   7.611  0.00  0.00    +0.000 A 
ATOM      3  C   UNL     1      45.493   4.424   8.374  0.00  0.00    +0.000 A 
ATOM      4  C   UNL     1      44.612   3.816   9.272  0.00  0.00    +0.000 A 
ATOM      5  C   UNL     1      44.711   2.427   9.386  0.00  0.00    +0.000 A 
ATOM      6  N   UNL     1      45.559   1.641   8.674  0.00  0.00    +0.000 NA
ENDROOT
BRANCH   1   8
ATOM      7  N   UNL     1      48.430   2.059   6.531  0.00  0.00    +0.000 N 
ATOM      8  C   UNL     1      47.308   1.428   6.996  0.00  0.00    +0.000 C 
ATOM      9  O   UNL     1      47.094   0.243   6.770  0.00  0.00    +0.000 OA
ATOM     10  H   UNL     1      49.104   1.541   5.987  0.00  0.00    +0.000 HD
ATOM     11  H   UNL     1      48.575   3.039   6.743  0.00  0.00    +0.000 HD
ENDBRANCH   1   8
BRANCH   4  12
ATOM     12  N   UNL     1      43.769   4.639  10.019  0.00  0.00    +0.000 N 
ATOM     13  H   UNL     1      43.985   5.630   9.880  0.00  0.00    +0.000 HD
BRANCH  12  14
ATOM     14  C   UNL     1      43.572   4.370  11.453  0.00  0.00    +0.000 C 
BRANCH  14  15
ATOM     15  C   UNL     1      44.812   4.703  12.274  0.00  0.00    +0.000 A 
ATOM     16  N   UNL     1      45.441   3.687  12.901  0.00  0.00    +0.000 NA
ATOM     17  C   UNL     1      46.566   3.999  13.571  0.00  0.00    +0.000 A 
ATOM     18  C   UNL     1      47.090   5.268  13.628  0.00  0.00    +0.000 A 
ATOM     19  C   UNL     1      46.388   6.230  12.944  0.00  0.00    +0.000 A 
ATOM     20  N   UNL     1      45.259   5.981  12.254  0.00  0.00    +0.000 NA
ENDBRANCH  14  15
ENDBRANCH  12  14
ENDBRANCH   4  12
TORSDOF 4
ENDMDL
MODEL 2
REMARK VINA RESULT:    -7.237      2.597      5.841
REMARK INTER + INTRA:          -9.366
REMARK INTER:                  -9.021
REMARK INTRA:                  -0.344
REMARK UNBOUND:                -0.436
REMARK  Name = 
REMARK  4 active torsions:
REMARK  status: ('A' for Active; 'I' for Inactive)
REMARK    1  A    between atoms: C_2  and  C_4
REMARK    2  A    between atoms: C_7  and  N_8
REMARK    3  A    between atoms: N_8  and  C_9
REMARK    4  A    between atoms: C_9  and  C_10
REMARK                            x       y       z     vdW  Elec       q    Type
REMARK                         _______ _______ _______ _____ _____    ______ ____
ROOT
ATOM      1  C   UNL     1      46.580   4.402  13.701  0.00  0.00    +0.000 A 
ATOM      2  C   UNL     1      46.809   5.607  13.057  0.00  0.00    +0.000 A 
ATOM      3  C   UNL     1      46.152   5.844  11.849  0.00  0.00    +0.000 A 
ATOM      4  C   UNL     1      45.310   4.878  11.293  0.00  0.00    +0.000 A 
ATOM      5  C   UNL     1      45.138   3.709  12.040  0.00  0.00    +0.000 A 
ATOM      6  N   UNL     1      45.748   3.437  13.222  0.00  0.00    +0.000 NA
ENDROOT
BRANCH   1   8
ATOM      7  N   UNL     1      47.347   5.167  15.870  0.00  0.00    +0.000 N 
ATOM      8  C   UNL     1      47.264   4.112  15.001  0.00  0.00    +0.000 C 
ATOM      9  O   UNL     1      47.722   3.011  15.280  0.00  0.00    +0.000 OA
ATOM     10  H   UNL     1      47.795   5.042  16.765  0.00  0.00    +0.000 HD
ATOM     11  H   UNL     1      46.952   6.062  15.605  0.00  0.00    +0.000 HD
ENDBRANCH   1   8
BRANCH   4  12
ATOM     12  N   UNL     1      44.666   5.183  10.094  0.00  0.00    +0.000 N 
ATOM     13  H   UNL     1      43.930   5.882  10.227  0.00  0.00    +0.000 HD
BRANCH  12  14
ATOM     14  C   UNL     1      44.169   4.095   9.236  0.00  0.00    +0.000 C 
BRANCH  14  15
ATOM     15  C   UNL     1      45.297   3.395   8.487  0.00  0.00    +0.000 A 
ATOM     16  N   UNL     1      45.464   2.072   8.698  0.00  0.00    +0.000 NA
ATOM     17  C   UNL     1      46.428   1.468   7.980  0.00  0.00    +0.000 A 
ATOM     18  C   UNL     1      47.214   2.120   7.060  0.00  0.00    +0.000 A 
ATOM     19  C   UNL     1      46.957   3.460   6.905  0.00  0.00    +0.000 A 
ATOM     20  N   UNL     1      46.005   4.121   7.590  0.00  0.00    +0.000 NA
ENDBRANCH  14  15
ENDBRANCH  12  14
ENDBRANCH   4  12
TORSDOF 4
ENDMDL
MODEL 3
REMARK VINA RESULT:    -6.767      2.693      5.948
REMARK INTER + INTRA:          -8.785
REMARK INTER:                  -8.429
REMARK INTRA:                  -0.357
REMARK UNBOUND:                -0.436
REMARK  Name = 
REMARK  4 active torsions:
REMARK  status: ('A' for Active; 'I' for Inactive)
REMARK    1  A    between atoms: C_2  and  C_4
REMARK    2  A    between atoms: C_7  and  N_8
REMARK    3  A    between atoms: N_8  and  C_9
REMARK    4  A    between atoms: C_9  and  C_10
REMARK                            x       y       z     vdW  Elec       q    Type
REMARK                         _______ _______ _______ _____ _____    ______ ____
ROOT
ATOM      1  C   UNL     1      46.603   5.572  12.864  0.00  0.00    +0.000 A 
ATOM      2  C   UNL     1      46.400   6.230  11.661  0.00  0.00    +0.000 A 
ATOM      3  C   UNL     1      45.595   5.614  10.702  0.00  0.00    +0.000 A 
ATOM      4  C   UNL     1      45.036   4.356  10.940  0.00  0.00    +0.000 A 
ATOM      5  C   UNL     1      45.292   3.797  12.195  0.00  0.00    +0.000 A 
ATOM      6  N   UNL     1      46.060   4.361  13.163  0.00  0.00    +0.000 NA
ENDROOT
BRANCH   1   8
ATOM      7  N   UNL     1      47.329   7.560  14.047  0.00  0.00    +0.000 N 
ATOM      8  C   UNL     1      47.457   6.202  13.920  0.00  0.00    +0.000 C 
ATOM      9  O   UNL     1      48.221   5.559  14.628  0.00  0.00    +0.000 OA
ATOM     10  H   UNL     1      47.875   8.050  14.740  0.00  0.00    +0.000 HD
ATOM     11  H   UNL     1      46.682   8.058  13.446  0.00  0.00    +0.000 HD
ENDBRANCH   1   8
BRANCH   4  12
ATOM     12  N   UNL     1      44.224   3.803   9.950  0.00  0.00    +0.000 N 
ATOM     13  H   UNL     1      43.230   3.926  10.162  0.00  0.00    +0.000 HD
BRANCH  12  14
ATOM     14  C   UNL     1      44.468   2.425   9.494  0.00  0.00    +0.000 C 
BRANCH  14  15
ATOM     15  C   UNL     1      45.551   2.358   8.424  0.00  0.00    +0.000 A 
ATOM     16  N   UNL     1      46.237   1.202   8.297  0.00  0.00    +0.000 NA
ATOM     17  C   UNL     1      47.146   1.149   7.307  0.00  0.00    +0.000 A 
ATOM     18  C   UNL     1      47.387   2.188   6.439  0.00  0.00    +0.000 A 
ATOM     19  C   UNL     1      46.628   3.315   6.639  0.00  0.00    +0.000 A 
ATOM     20  N   UNL     1      45.701   3.428   7.608  0.00  0.00    +0.000 NA
ENDBRANCH  14  15
ENDBRANCH  12  14
ENDBRANCH   4  12
TORSDOF 4
ENDMDL
MODEL 4
REMARK VINA RESULT:    -6.101      1.796      2.446
REMARK INTER + INTRA:          -7.964
REMARK INTER:                  -7.642
REMARK INTRA:                  -0.322
REMARK UNBOUND:                -0.436
REMARK  Name = 
REMARK  4 active torsions:
REMARK  status: ('A' for Active; 'I' for Inactive)
REMARK    1  A    between atoms: C_2  and  C_4
REMARK    2  A    between atoms: C_7  and  N_8
REMARK    3  A    between atoms: N_8  and  C_9
REMARK    4  A    between atoms: C_9  and  C_10
REMARK                            x       y       z     vdW  Elec       q    Type
REMARK                         _______ _______ _______ _____ _____    ______ ____
ROOT
ATOM      1  C   UNL     1      46.414   3.292   7.350  0.00  0.00    +0.000 A 
ATOM      2  C   UNL     1      45.628   2.389   8.047  0.00  0.00    +0.000 A 
ATOM      3  C   UNL     1      44.924   2.851   9.159  0.00  0.00    +0.000 A 
ATOM      4  C   UNL     1      45.035   4.181   9.573  0.00  0.00    +0.000 A 
ATOM      5  C   UNL     1      45.840   5.005   8.783  0.00  0.00    +0.000 A 
ATOM      6  N   UNL     1      46.537   4.605   7.688  0.00  0.00    +0.000 NA
ENDROOT
BRANCH   1   8
ATOM      7  N   UNL     1      48.498   2.528   6.373  0.00  0.00    +0.000 N 
ATOM      8  C   UNL     1      47.182   2.835   6.148  0.00  0.00    +0.000 C 
ATOM      9  O   UNL     1      46.680   2.739   5.035  0.00  0.00    +0.000 OA
ATOM     10  H   UNL     1      49.074   2.213   5.608  0.00  0.00    +0.000 HD
ATOM     11  H   UNL     1      48.877   2.615   7.309  0.00  0.00    +0.000 HD
ENDBRANCH   1   8
BRANCH   4  12
ATOM     12  N   UNL     1      44.289   4.586  10.680  0.00  0.00    +0.000 N 
ATOM     13  H   UNL     1      43.654   5.354  10.449  0.00  0.00    +0.000 HD
BRANCH  12  14
ATOM     14  C   UNL     1      44.972   4.871  11.953  0.00  0.00    +0.000 C 
BRANCH  14  15
ATOM     15  C   UNL     1      45.191   6.365  12.164  0.00  0.00    +0.000 A 
ATOM     16  N   UNL     1      46.149   6.741  13.038  0.00  0.00    +0.000 NA
ATOM     17  C   UNL     1      46.362   8.063  13.162  0.00  0.00    +0.000 A 
ATOM     18  C   UNL     1      45.676   9.015  12.446  0.00  0.00    +0.000 A 
ATOM     19  C   UNL     1      44.735   8.533  11.570  0.00  0.00    +0.000 A 
ATOM     20  N   UNL     1      44.477   7.223  11.398  0.00  0.00    +0.000 NA
ENDBRANCH  14  15
ENDBRANCH  12  14
ENDBRANCH   4  12
TORSDOF 4
ENDMDL
MODEL 5
REMARK VINA RESULT:    -5.834      3.414      5.708
REMARK INTER + INTRA:          -7.634
REMARK INTER:                  -7.227
REMARK INTRA:                  -0.407
REMARK UNBOUND:                -0.436
REMARK  Name = 
REMARK  4 active torsions:
REMARK  status: ('A' for Active; 'I' for Inactive)
REMARK    1  A    between atoms: C_2  and  C_4
REMARK    2  A    between atoms: C_7  and  N_8
REMARK    3  A    between atoms: N_8  and  C_9
REMARK    4  A    between atoms: C_9  and  C_10
REMARK                            x       y       z     vdW  Elec       q    Type
REMARK                         _______ _______ _______ _____ _____    ______ ____
ROOT
ATOM      1  C   UNL     1      47.426   6.611  13.061  0.00  0.00    +0.000 A 
ATOM      2  C   UNL     1      46.514   7.555  12.619  0.00  0.00    +0.000 A 
ATOM      3  C   UNL     1      45.161   7.211  12.612  0.00  0.00    +0.000 A 
ATOM      4  C   UNL     1      44.746   5.938  13.012  0.00  0.00    +0.000 A 
ATOM      5  C   UNL     1      45.752   5.075  13.457  0.00  0.00    +0.000 A 
ATOM      6  N   UNL     1      47.078   5.368  13.491  0.00  0.00    +0.000 NA
ENDROOT
BRANCH   1   8
ATOM      7  N   UNL     1      49.406   7.400  11.906  0.00  0.00    +0.000 N 
ATOM      8  C   UNL     1      48.886   6.944  13.088  0.00  0.00    +0.000 C 
ATOM      9  O   UNL     1      49.577   6.822  14.091  0.00  0.00    +0.000 OA
ATOM     10  H   UNL     1      50.384   7.644  11.852  0.00  0.00    +0.000 HD
ATOM     11  H   UNL     1      48.801   7.493  11.098  0.00  0.00    +0.000 HD
ENDBRANCH   1   8
BRANCH   4  12
ATOM     12  N   UNL     1      43.379   5.662  13.001  0.00  0.00    +0.000 N 
ATOM     13  H   UNL     1      43.144   4.888  13.629  0.00  0.00    +0.000 HD
BRANCH  12  14
ATOM     14  C   UNL     1      42.680   5.492  11.717  0.00  0.00    +0.000 C 
BRANCH  14  15
ATOM     15  C   UNL     1      43.359   4.458  10.827  0.00  0.00    +0.000 A 
ATOM     16  N   UNL     1      43.956   4.897   9.698  0.00  0.00    +0.000 NA
ATOM     17  C   UNL     1      44.599   3.974   8.961  0.00  0.00    +0.000 A 
ATOM     18  C   UNL     1      44.681   2.646   9.308  0.00  0.00    +0.000 A 
ATOM     19  C   UNL     1      44.057   2.300  10.481  0.00  0.00    +0.000 A 
ATOM     20  N   UNL     1      43.402   3.178  11.265  0.00  0.00    +0.000 NA
ENDBRANCH  14  15
ENDBRANCH  12  14
ENDBRANCH   4  12
TORSDOF 4
ENDMDL
MODEL 6
REMARK VINA RESULT:    -5.698      3.276      6.558
REMARK INTER + INTRA:          -7.466
REMARK INTER:                  -7.165
REMARK INTRA:                  -0.301
REMARK UNBOUND:                -0.436
REMARK  Name = 
REMARK  4 active torsions:
REMARK  status: ('A' for Active; 'I' for Inactive)
REMARK    1  A    between atoms: C_2  and  C_4
REMARK    2  A    between atoms: C_7  and  N_8
REMARK    3  A    between atoms: N_8  and  C_9
REMARK    4  A    between atoms: C_9  and  C_10
REMARK                            x       y       z     vdW  Elec       q    Type
REMARK                         _______ _______ _______ _____ _____    ______ ____
ROOT
ATOM      1  C   UNL     1      47.594   4.148  15.362  0.00  0.00    +0.000 A 
ATOM      2  C   UNL     1      47.785   5.508  15.182  0.00  0.00    +0.000 A 
ATOM      3  C   UNL     1      47.386   6.075  13.971  0.00  0.00    +0.000 A 
ATOM      4  C   UNL     1      46.837   5.283  12.959  0.00  0.00    +0.000 A 
ATOM      5  C   UNL     1      46.673   3.928  13.259  0.00  0.00    +0.000 A 
ATOM      6  N   UNL     1      47.037   3.333  14.425  0.00  0.00    +0.000 NA
ENDROOT
BRANCH   1   8
ATOM      7  N   UNL     1      46.981   3.017  17.418  0.00  0.00    +0.000 N 
ATOM      8  C   UNL     1      48.005   3.504  16.650  0.00  0.00    +0.000 C 
ATOM      9  O   UNL     1      49.174   3.412  17.003  0.00  0.00    +0.000 OA
ATOM     10  H   UNL     1      47.186   2.570  18.298  0.00  0.00    +0.000 HD
ATOM     11  H   UNL     1      46.026   3.108  17.090  0.00  0.00    +0.000 HD
ENDBRANCH   1   8
BRANCH   4  12
ATOM     12  N   UNL     1      46.440   5.912  11.780  0.00  0.00    +0.000 N 
ATOM     13  H   UNL     1      46.626   6.918  11.805  0.00  0.00    +0.000 HD
BRANCH  12  14
ATOM     14  C   UNL     1      45.090   5.670  11.244  0.00  0.00    +0.000 C 
BRANCH  14  15
ATOM     15  C   UNL     1      45.098   4.659  10.104  0.00  0.00    +0.000 A 
ATOM     16  N   UNL     1      45.733   5.004   8.963  0.00  0.00    +0.000 NA
ATOM     17  C   UNL     1      45.776   4.072   7.994  0.00  0.00    +0.000 A 
ATOM     18  C   UNL     1      45.229   2.817   8.121  0.00  0.00    +0.000 A 
ATOM     19  C   UNL     1      44.620   2.555   9.324  0.00  0.00    +0.000 A 
ATOM     20  N   UNL     1      44.547   3.443  10.333  0.00  0.00    +0.000 NA
ENDBRANCH  14  15
ENDBRANCH  12  14
ENDBRANCH   4  12
TORSDOF 4
ENDMDL
MODEL 7
REMARK VINA RESULT:    -5.607      3.615      5.563
REMARK INTER + INTRA:          -7.354
REMARK INTER:                  -7.068
REMARK INTRA:                  -0.287
REMARK UNBOUND:                -0.436
REMARK  Name = 
REMARK  4 active torsions:
REMARK  status: ('A' for Active; 'I' for Inactive)
REMARK    1  A    between atoms: C_2  and  C_4
REMARK    2  A    between atoms: C_7  and  N_8
REMARK    3  A    between atoms: N_8  and  C_9
REMARK    4  A    between atoms: C_9  and  C_10
REMARK                            x       y       z     vdW  Elec       q    Type
REMARK                         _______ _______ _______ _____ _____    ______ ____
ROOT
ATOM      1  C   UNL     1      45.111   4.204  11.633  0.00  0.00    +0.000 A 
ATOM      2  C   UNL     1      45.507   5.516  11.835  0.00  0.00    +0.000 A 
ATOM      3  C   UNL     1      46.267   5.808  12.969  0.00  0.00    +0.000 A 
ATOM      4  C   UNL     1      46.590   4.807  13.888  0.00  0.00    +0.000 A 
ATOM      5  C   UNL     1      46.154   3.517  13.572  0.00  0.00    +0.000 A 
ATOM      6  N   UNL     1      45.422   3.183  12.478  0.00  0.00    +0.000 NA
ENDROOT
BRANCH   1   8
ATOM      7  N   UNL     1      44.146   4.854   9.506  0.00  0.00    +0.000 N 
ATOM      8  C   UNL     1      44.298   3.851  10.426  0.00  0.00    +0.000 C 
ATOM      9  O   UNL     1      43.799   2.745  10.261  0.00  0.00    +0.000 OA
ATOM     10  H   UNL     1      43.611   4.685   8.668  0.00  0.00    +0.000 HD
ATOM     11  H   UNL     1      44.578   5.755   9.675  0.00  0.00    +0.000 HD
ENDBRANCH   1   8
BRANCH   4  12
ATOM     12  N   UNL     1      47.369   5.158  14.991  0.00  0.00    +0.000 N 
ATOM     13  H   UNL     1      48.347   5.309  14.731  0.00  0.00    +0.000 HD
BRANCH  12  14
ATOM     14  C   UNL     1      47.299   4.350  16.219  0.00  0.00    +0.000 C 
BRANCH  14  15
ATOM     15  C   UNL     1      48.662   3.801  16.623  0.00  0.00    +0.000 A 
ATOM     16  N   UNL     1      49.575   4.675  17.097  0.00  0.00    +0.000 NA
ATOM     17  C   UNL     1      50.749   4.156  17.501  0.00  0.00    +0.000 A 
ATOM     18  C   UNL     1      51.040   2.813  17.464  0.00  0.00    +0.000 A 
ATOM     19  C   UNL     1      50.042   2.003  16.982  0.00  0.00    +0.000 A 
ATOM     20  N   UNL     1      48.846   2.460  16.566  0.00  0.00    +0.000 NA
ENDBRANCH  14  15
ENDBRANCH  12  14
ENDBRANCH   4  12
TORSDOF 4
ENDMDL
MODEL 8
REMARK VINA RESULT:    -5.457      3.340      5.187
REMARK INTER + INTRA:          -7.169
REMARK INTER:                  -6.839
REMARK INTRA:                  -0.331
REMARK UNBOUND:                -0.436
REMARK  Name = 
REMARK  4 active torsions:
REMARK  status: ('A' for Active; 'I' for Inactive)
REMARK    1  A    between atoms: C_2  and  C_4
REMARK    2  A    between atoms: C_7  and  N_8
REMARK    3  A    between atoms: N_8  and  C_9
REMARK    4  A    between atoms: C_9  and  C_10
REMARK                            x       y       z     vdW  Elec       q    Type
REMARK                         _______ _______ _______ _____ _____    ______ ____
ROOT
ATOM      1  C   UNL     1      44.871   3.990  11.717  0.00  0.00    +0.000 A 
ATOM      2  C   UNL     1      45.307   5.098  11.009  0.00  0.00    +0.000 A 
ATOM      3  C   UNL     1      46.016   6.083  11.698  0.00  0.00    +0.000 A 
ATOM      4  C   UNL     1      46.251   5.965  13.070  0.00  0.00    +0.000 A 
ATOM      5  C   UNL     1      45.782   4.797  13.676  0.00  0.00    +0.000 A 
ATOM      6  N   UNL     1      45.097   3.807  13.047  0.00  0.00    +0.000 NA
ENDROOT
BRANCH   1   8
ATOM      7  N   UNL     1      44.737   2.365   9.923  0.00  0.00    +0.000 N 
ATOM      8  C   UNL     1      44.111   2.909  11.012  0.00  0.00    +0.000 C 
ATOM      9  O   UNL     1      43.005   2.529  11.376  0.00  0.00    +0.000 OA
ATOM     10  H   UNL     1      44.282   1.631   9.400  0.00  0.00    +0.000 HD
ATOM     11  H   UNL     1      45.655   2.702   9.655  0.00  0.00    +0.000 HD
ENDBRANCH   1   8
BRANCH   4  12
ATOM     12  N   UNL     1      46.983   6.973  13.697  0.00  0.00    +0.000 N 
ATOM     13  H   UNL     1      46.870   7.874  13.224  0.00  0.00    +0.000 HD
BRANCH  12  14
ATOM     14  C   UNL     1      48.403   6.753  14.014  0.00  0.00    +0.000 C 
BRANCH  14  15
ATOM     15  C   UNL     1      48.629   6.525  15.504  0.00  0.00    +0.000 A 
ATOM     16  N   UNL     1      48.761   7.614  16.292  0.00  0.00    +0.000 NA
ATOM     17  C   UNL     1      48.901   7.386  17.611  0.00  0.00    +0.000 A 
ATOM     18  C   UNL     1      48.900   6.131  18.171  0.00  0.00    +0.000 A 
ATOM     19  C   UNL     1      48.743   5.089  17.290  0.00  0.00    +0.000 A 
ATOM     20  N   UNL     1      48.596   5.251  15.961  0.00  0.00    +0.000 NA
ENDBRANCH  14  15
ENDBRANCH  12  14
ENDBRANCH   4  12
TORSDOF 4
ENDMDL
MODEL 9
REMARK VINA RESULT:    -5.320      5.084      8.481
REMARK INTER + INTRA:          -7.000
REMARK INTER:                  -6.743
REMARK INTRA:                  -0.257
REMARK UNBOUND:                -0.436
REMARK  Name = 
REMARK  4 active torsions:
REMARK  status: ('A' for Active; 'I' for Inactive)
REMARK    1  A    between atoms: C_2  and  C_4
REMARK    2  A    between atoms: C_7  and  N_8
REMARK    3  A    between atoms: N_8  and  C_9
REMARK    4  A    between atoms: C_9  and  C_10
REMARK                            x       y       z     vdW  Elec       q    Type
REMARK                         _______ _______ _______ _____ _____    ______ ____
ROOT
ATOM      1  C   UNL     1      48.670   4.369  18.313  0.00  0.00    +0.000 A 
ATOM      2  C   UNL     1      48.366   3.068  17.946  0.00  0.00    +0.000 A 
ATOM      3  C   UNL     1      47.808   2.853  16.685  0.00  0.00    +0.000 A 
ATOM      4  C   UNL     1      47.537   3.926  15.832  0.00  0.00    +0.000 A 
ATOM      5  C   UNL     1      47.903   5.191  16.300  0.00  0.00    +0.000 A 
ATOM      6  N   UNL     1      48.457   5.449  17.513  0.00  0.00    +0.000 NA
ENDROOT
BRANCH   1   8
ATOM      7  N   UNL     1      48.624   4.070  20.719  0.00  0.00    +0.000 N 
ATOM      8  C   UNL     1      49.274   4.639  19.657  0.00  0.00    +0.000 C 
ATOM      9  O   UNL     1      50.280   5.322  19.808  0.00  0.00    +0.000 OA
ATOM     10  H   UNL     1      48.977   4.210  21.654  0.00  0.00    +0.000 HD
ATOM     11  H   UNL     1      47.797   3.507  20.554  0.00  0.00    +0.000 HD
ENDBRANCH   1   8
BRANCH   4  12
ATOM     12  N   UNL     1      46.997   3.644  14.577  0.00  0.00    +0.000 N 
ATOM     13  H   UNL     1      47.509   2.893  14.105  0.00  0.00    +0.000 HD
BRANCH  12  14
ATOM     14  C   UNL     1      46.740   4.742  13.632  0.00  0.00    +0.000 C 
BRANCH  14  15
ATOM     15  C   UNL     1      45.529   4.467  12.749  0.00  0.00    +0.000 A 
ATOM     16  N   UNL     1      45.456   5.112  11.565  0.00  0.00    +0.000 NA
ATOM     17  C   UNL     1      44.407   4.806  10.779  0.00  0.00    +0.000 A 
ATOM     18  C   UNL     1      43.446   3.883  11.117  0.00  0.00    +0.000 A 
ATOM     19  C   UNL     1      43.617   3.268  12.333  0.00  0.00    +0.000 A 
ATOM     20  N   UNL     1      44.646   3.527  13.162  0.00  0.00    +0.000 NA
ENDBRANCH  14  15
ENDBRANCH  12  14
ENDBRANCH   4  12
TORSDOF 4
ENDMDL
